# generated using pymatgen
data_TlPd3O4
_symmetry_space_group_name_H-M   'P 1'
_cell_length_a   9.75873400
_cell_length_b   9.75873400
_cell_length_c   9.75873400
_cell_angle_alpha   90.00000000
_cell_angle_beta   90.00000000
_cell_angle_gamma   90.00000000
_symmetry_Int_Tables_number   1
_chemical_formula_structural   TlPd3O4
_chemical_formula_sum   'Tl8 Pd24 O32'
_cell_volume   929.35243456
_cell_formula_units_Z   8
loop_
 _symmetry_equiv_pos_site_id
 _symmetry_equiv_pos_as_xyz
  1  'x, y, z'
loop_
 _atom_site_type_symbol
 _atom_site_label
 _atom_site_symmetry_multiplicity
 _atom_site_fract_x
 _atom_site_fract_y
 _atom_site_fract_z
 _atom_site_occupancy
  Tl  Tl0  1  0.50000000  0.00000000  0.00000000  1
  Tl  Tl1  1  0.00000000  0.00000000  0.00000000  1
  Tl  Tl2  1  0.50000000  0.50000000  0.50000000  1
  Tl  Tl3  1  0.00000000  0.50000000  0.50000000  1
  Tl  Tl4  1  0.00000000  0.00000000  0.50000000  1
  Tl  Tl5  1  0.50000000  0.00000000  0.50000000  1
  Tl  Tl6  1  0.00000000  0.50000000  0.00000000  1
  Tl  Tl7  1  0.50000000  0.50000000  0.00000000  1
  Pd  Pd8  1  0.00000000  0.75000000  0.75000000  1
  Pd  Pd9  1  0.25000000  0.25000000  0.00000000  1
  Pd  Pd10  1  0.25000000  0.00000000  0.75000000  1
  Pd  Pd11  1  0.00000000  0.25000000  0.75000000  1
  Pd  Pd12  1  0.75000000  0.00000000  0.75000000  1
  Pd  Pd13  1  0.25000000  0.75000000  0.00000000  1
  Pd  Pd14  1  0.00000000  0.25000000  0.25000000  1
  Pd  Pd15  1  0.25000000  0.75000000  0.50000000  1
  Pd  Pd16  1  0.25000000  0.50000000  0.25000000  1
  Pd  Pd17  1  0.00000000  0.75000000  0.25000000  1
  Pd  Pd18  1  0.75000000  0.50000000  0.25000000  1
  Pd  Pd19  1  0.25000000  0.25000000  0.50000000  1
  Pd  Pd20  1  0.50000000  0.75000000  0.25000000  1
  Pd  Pd21  1  0.75000000  0.25000000  0.50000000  1
  Pd  Pd22  1  0.75000000  0.00000000  0.25000000  1
  Pd  Pd23  1  0.50000000  0.25000000  0.25000000  1
  Pd  Pd24  1  0.25000000  0.00000000  0.25000000  1
  Pd  Pd25  1  0.75000000  0.75000000  0.50000000  1
  Pd  Pd26  1  0.50000000  0.25000000  0.75000000  1
  Pd  Pd27  1  0.75000000  0.75000000  0.00000000  1
  Pd  Pd28  1  0.75000000  0.50000000  0.75000000  1
  Pd  Pd29  1  0.50000000  0.75000000  0.75000000  1
  Pd  Pd30  1  0.25000000  0.50000000  0.75000000  1
  Pd  Pd31  1  0.75000000  0.25000000  0.00000000  1
  O  O32  1  0.35831700  0.35831700  0.85831700  1
  O  O33  1  0.14168300  0.85831700  0.85831700  1
  O  O34  1  0.35831700  0.85831700  0.64168300  1
  O  O35  1  0.35831700  0.64168300  0.85831700  1
  O  O36  1  0.14168300  0.14168300  0.85831700  1
  O  O37  1  0.14168300  0.35831700  0.64168300  1
  O  O38  1  0.14168300  0.64168300  0.64168300  1
  O  O39  1  0.35831700  0.14168300  0.64168300  1
  O  O40  1  0.35831700  0.85831700  0.35831700  1
  O  O41  1  0.14168300  0.35831700  0.35831700  1
  O  O42  1  0.35831700  0.35831700  0.14168300  1
  O  O43  1  0.35831700  0.14168300  0.35831700  1
  O  O44  1  0.14168300  0.64168300  0.35831700  1
  O  O45  1  0.14168300  0.85831700  0.14168300  1
  O  O46  1  0.14168300  0.14168300  0.14168300  1
  O  O47  1  0.35831700  0.64168300  0.14168300  1
  O  O48  1  0.85831700  0.35831700  0.35831700  1
  O  O49  1  0.64168300  0.85831700  0.35831700  1
  O  O50  1  0.85831700  0.85831700  0.14168300  1
  O  O51  1  0.85831700  0.64168300  0.35831700  1
  O  O52  1  0.64168300  0.14168300  0.35831700  1
  O  O53  1  0.64168300  0.35831700  0.14168300  1
  O  O54  1  0.64168300  0.64168300  0.14168300  1
  O  O55  1  0.85831700  0.14168300  0.14168300  1
  O  O56  1  0.85831700  0.85831700  0.85831700  1
  O  O57  1  0.64168300  0.35831700  0.85831700  1
  O  O58  1  0.85831700  0.35831700  0.64168300  1
  O  O59  1  0.85831700  0.14168300  0.85831700  1
  O  O60  1  0.64168300  0.64168300  0.85831700  1
  O  O61  1  0.64168300  0.85831700  0.64168300  1
  O  O62  1  0.64168300  0.14168300  0.64168300  1
  O  O63  1  0.85831700  0.64168300  0.64168300  1
