# generated using pymatgen
data_In2(SO4)3
_symmetry_space_group_name_H-M   'P 1'
_cell_length_a   8.58078520
_cell_length_b   8.58078520
_cell_length_c   23.47958337
_cell_angle_alpha   90.00000000
_cell_angle_beta   90.00000000
_cell_angle_gamma   120.00000000
_symmetry_Int_Tables_number   1
_chemical_formula_structural   In2(SO4)3
_chemical_formula_sum   'In12 S18 O72'
_cell_volume   1497.18366190
_cell_formula_units_Z   6
loop_
 _symmetry_equiv_pos_site_id
 _symmetry_equiv_pos_as_xyz
  1  'x, y, z'
loop_
 _atom_site_type_symbol
 _atom_site_label
 _atom_site_symmetry_multiplicity
 _atom_site_fract_x
 _atom_site_fract_y
 _atom_site_fract_z
 _atom_site_occupancy
  In  In0  1  0.66666667  0.33333333  0.18877533  1
  In  In1  1  0.00000000  0.00000000  0.14455800  1
  In  In2  1  0.33333333  0.66666667  0.31797367  1
  In  In3  1  0.33333333  0.66666667  0.01535967  1
  In  In4  1  0.33333333  0.66666667  0.52210867  1
  In  In5  1  0.66666667  0.33333333  0.47789133  1
  In  In6  1  0.00000000  0.00000000  0.65130700  1
  In  In7  1  0.00000000  0.00000000  0.34869300  1
  In  In8  1  0.00000000  0.00000000  0.85544200  1
  In  In9  1  0.33333333  0.66666667  0.81122467  1
  In  In10  1  0.66666667  0.33333333  0.98464033  1
  In  In11  1  0.66666667  0.33333333  0.68202633  1
  S  S12  1  0.99846567  0.70664733  0.25033433  1
  S  S13  1  0.29335267  0.29181833  0.25033433  1
  S  S14  1  0.70818167  0.00153433  0.25033433  1
  S  S15  1  0.66820100  0.62668600  0.08299900  1
  S  S16  1  0.37331400  0.04151500  0.08299900  1
  S  S17  1  0.95848500  0.33179900  0.08299900  1
  S  S18  1  0.66513233  0.03998067  0.58366767  1
  S  S19  1  0.96001933  0.62515167  0.58366767  1
  S  S20  1  0.37484833  0.33486767  0.58366767  1
  S  S21  1  0.33486767  0.96001933  0.41633233  1
  S  S22  1  0.03998067  0.37484833  0.41633233  1
  S  S23  1  0.62515167  0.66513233  0.41633233  1
  S  S24  1  0.33179900  0.37331400  0.91700100  1
  S  S25  1  0.62668600  0.95848500  0.91700100  1
  S  S26  1  0.04151500  0.66820100  0.91700100  1
  S  S27  1  0.00153433  0.29335267  0.74966567  1
  S  S28  1  0.70664733  0.70818167  0.74966567  1
  S  S29  1  0.29181833  0.99846567  0.74966567  1
  O  O30  1  0.00740067  0.79306833  0.19489833  1
  O  O31  1  0.20693167  0.21433233  0.19489833  1
  O  O32  1  0.78566767  0.99259933  0.19489833  1
  O  O33  1  0.65926600  0.54026500  0.13843500  1
  O  O34  1  0.45973500  0.11900100  0.13843500  1
  O  O35  1  0.88099900  0.34073400  0.13843500  1
  O  O36  1  0.91554867  0.76578133  0.29479333  1
  O  O37  1  0.23421867  0.14976733  0.29479333  1
  O  O38  1  0.85023267  0.08445133  0.29479333  1
  O  O39  1  0.75111800  0.56755200  0.03854000  1
  O  O40  1  0.43244800  0.18356600  0.03854000  1
  O  O41  1  0.81643400  0.24888200  0.03854000  1
  O  O42  1  0.88579600  0.50817900  0.24459200  1
  O  O43  1  0.49182100  0.37761700  0.24459200  1
  O  O44  1  0.62238300  0.11420400  0.24459200  1
  O  O45  1  0.78087067  0.82515433  0.08874133  1
  O  O46  1  0.17484567  0.95571633  0.08874133  1
  O  O47  1  0.04428367  0.21912933  0.08874133  1
  O  O48  1  0.18490000  0.75498000  0.26621000  1
  O  O49  1  0.24502000  0.42992000  0.26621000  1
  O  O50  1  0.57008000  0.81510000  0.26621000  1
  O  O51  1  0.48176667  0.57835333  0.06712333  1
  O  O52  1  0.42164667  0.90341333  0.06712333  1
  O  O53  1  0.09658667  0.51823333  0.06712333  1
  O  O54  1  0.67406733  0.12640167  0.52823167  1
  O  O55  1  0.87359833  0.54766567  0.52823167  1
  O  O56  1  0.45233433  0.32593267  0.52823167  1
  O  O57  1  0.32593267  0.87359833  0.47176833  1
  O  O58  1  0.12640167  0.45233433  0.47176833  1
  O  O59  1  0.54766567  0.67406733  0.47176833  1
  O  O60  1  0.58221533  0.09911467  0.62812667  1
  O  O61  1  0.90088533  0.48310067  0.62812667  1
  O  O62  1  0.51689933  0.41778467  0.62812667  1
  O  O63  1  0.41778467  0.90088533  0.37187333  1
  O  O64  1  0.09911467  0.51689933  0.37187333  1
  O  O65  1  0.48310067  0.58221533  0.37187333  1
  O  O66  1  0.55246267  0.84151233  0.57792533  1
  O  O67  1  0.15848767  0.71095033  0.57792533  1
  O  O68  1  0.28904967  0.44753733  0.57792533  1
  O  O69  1  0.44753733  0.15848767  0.42207467  1
  O  O70  1  0.84151233  0.28904967  0.42207467  1
  O  O71  1  0.71095033  0.55246267  0.42207467  1
  O  O72  1  0.85156667  0.08831333  0.59954333  1
  O  O73  1  0.91168667  0.76325333  0.59954333  1
  O  O74  1  0.23674667  0.14843333  0.59954333  1
  O  O75  1  0.14843333  0.91168667  0.40045667  1
  O  O76  1  0.08831333  0.23674667  0.40045667  1
  O  O77  1  0.76325333  0.85156667  0.40045667  1
  O  O78  1  0.34073400  0.45973500  0.86156500  1
  O  O79  1  0.54026500  0.88099900  0.86156500  1
  O  O80  1  0.11900100  0.65926600  0.86156500  1
  O  O81  1  0.99259933  0.20693167  0.80510167  1
  O  O82  1  0.79306833  0.78566767  0.80510167  1
  O  O83  1  0.21433233  0.00740067  0.80510167  1
  O  O84  1  0.24888200  0.43244800  0.96146000  1
  O  O85  1  0.56755200  0.81643400  0.96146000  1
  O  O86  1  0.18356600  0.75111800  0.96146000  1
  O  O87  1  0.08445133  0.23421867  0.70520667  1
  O  O88  1  0.76578133  0.85023267  0.70520667  1
  O  O89  1  0.14976733  0.91554867  0.70520667  1
  O  O90  1  0.21912933  0.17484567  0.91125867  1
  O  O91  1  0.82515433  0.04428367  0.91125867  1
  O  O92  1  0.95571633  0.78087067  0.91125867  1
  O  O93  1  0.11420400  0.49182100  0.75540800  1
  O  O94  1  0.50817900  0.62238300  0.75540800  1
  O  O95  1  0.37761700  0.88579600  0.75540800  1
  O  O96  1  0.51823333  0.42164667  0.93287667  1
  O  O97  1  0.57835333  0.09658667  0.93287667  1
  O  O98  1  0.90341333  0.48176667  0.93287667  1
  O  O99  1  0.81510000  0.24502000  0.73379000  1
  O  O100  1  0.75498000  0.57008000  0.73379000  1
  O  O101  1  0.42992000  0.18490000  0.73379000  1
