# generated using pymatgen
data_DyP5O14
_symmetry_space_group_name_H-M   'P 1'
_cell_length_a   13.04380200
_cell_length_b   12.93316800
_cell_length_c   12.60306614
_cell_angle_alpha   90.00000000
_cell_angle_beta   91.55145911
_cell_angle_gamma   90.00000000
_symmetry_Int_Tables_number   1
_chemical_formula_structural   DyP5O14
_chemical_formula_sum   'Dy8 P40 O112'
_cell_volume   2125.32864487
_cell_formula_units_Z   8
loop_
 _symmetry_equiv_pos_site_id
 _symmetry_equiv_pos_as_xyz
  1  'x, y, z'
loop_
 _atom_site_type_symbol
 _atom_site_label
 _atom_site_symmetry_multiplicity
 _atom_site_fract_x
 _atom_site_fract_y
 _atom_site_fract_z
 _atom_site_occupancy
  Dy  Dy0  1  0.00000000  0.52143400  0.25000000  1
  Dy  Dy1  1  0.00000000  0.96801100  0.25000000  1
  Dy  Dy2  1  0.00000000  0.47856600  0.75000000  1
  Dy  Dy3  1  0.00000000  0.03198900  0.75000000  1
  Dy  Dy4  1  0.50000000  0.02143400  0.25000000  1
  Dy  Dy5  1  0.50000000  0.46801100  0.25000000  1
  Dy  Dy6  1  0.50000000  0.97856600  0.75000000  1
  Dy  Dy7  1  0.50000000  0.53198900  0.75000000  1
  P  P8  1  0.14587500  0.46754600  0.50012800  1
  P  P9  1  0.14587500  0.53245400  0.00012800  1
  P  P10  1  0.14811200  0.33186100  0.10486500  1
  P  P11  1  0.02391100  0.15086000  0.03314600  1
  P  P12  1  0.97608900  0.15086000  0.46685400  1
  P  P13  1  0.17827050  0.25073050  0.75825400  1
  P  P14  1  0.85188800  0.33186100  0.39513500  1
  P  P15  1  0.17827050  0.74926950  0.25825400  1
  P  P16  1  0.85412500  0.53245400  0.49987200  1
  P  P17  1  0.85188800  0.66813900  0.89513500  1
  P  P18  1  0.31804200  0.36350500  0.60935300  1
  P  P19  1  0.68195800  0.36350500  0.89064700  1
  P  P20  1  0.14811200  0.66813900  0.60486500  1
  P  P21  1  0.85412500  0.46754600  0.99987200  1
  P  P22  1  0.68195800  0.63649500  0.39064700  1
  P  P23  1  0.97608900  0.84914000  0.96685400  1
  P  P24  1  0.31804200  0.63649500  0.10935300  1
  P  P25  1  0.82172950  0.74926950  0.24174600  1
  P  P26  1  0.82172950  0.25073050  0.74174600  1
  P  P27  1  0.02391100  0.84914000  0.53314600  1
  P  P28  1  0.64587500  0.96754600  0.50012800  1
  P  P29  1  0.64587500  0.03245400  0.00012800  1
  P  P30  1  0.64811200  0.83186100  0.10486500  1
  P  P31  1  0.52391100  0.65086000  0.03314600  1
  P  P32  1  0.47608900  0.65086000  0.46685400  1
  P  P33  1  0.67827050  0.75073050  0.75825400  1
  P  P34  1  0.35188800  0.83186100  0.39513500  1
  P  P35  1  0.67827050  0.24926950  0.25825400  1
  P  P36  1  0.35412500  0.03245400  0.49987200  1
  P  P37  1  0.35188800  0.16813900  0.89513500  1
  P  P38  1  0.81804200  0.86350500  0.60935300  1
  P  P39  1  0.18195800  0.86350500  0.89064700  1
  P  P40  1  0.64811200  0.16813900  0.60486500  1
  P  P41  1  0.35412500  0.96754600  0.99987200  1
  P  P42  1  0.18195800  0.13649500  0.39064700  1
  P  P43  1  0.47608900  0.34914000  0.96685400  1
  P  P44  1  0.81804200  0.13649500  0.10935300  1
  P  P45  1  0.32172950  0.24926950  0.24174600  1
  P  P46  1  0.32172950  0.75073050  0.74174600  1
  P  P47  1  0.52391100  0.34914000  0.53314600  1
  O  O48  1  0.07632250  0.56425850  0.08635100  1
  O  O49  1  0.02485500  0.89606000  0.42603200  1
  O  O50  1  0.08534650  0.73968650  0.52447800  1
  O  O51  1  0.12998600  0.14985000  0.73103100  1
  O  O52  1  0.65145250  0.45019250  0.82061000  1
  O  O53  1  0.34854750  0.45019250  0.67939000  1
  O  O54  1  0.08894400  0.62718800  0.69353700  1
  O  O55  1  0.11623600  0.65624500  0.28147300  1
  O  O56  1  0.08534650  0.26031350  0.02447800  1
  O  O57  1  0.87001400  0.14985000  0.76896900  1
  O  O58  1  0.91465350  0.73968650  0.97552200  1
  O  O59  1  0.97514500  0.89606000  0.07396800  1
  O  O60  1  0.92367750  0.56425850  0.41364900  1
  O  O61  1  0.25848250  0.27241050  0.66320400  1
  O  O62  1  0.74151750  0.27241050  0.83679600  1
  O  O63  1  0.19375300  0.41655500  0.02873900  1
  O  O64  1  0.80624700  0.58344500  0.97126100  1
  O  O65  1  0.25848250  0.72758950  0.16320400  1
  O  O66  1  0.11437100  0.53508800  0.88654700  1
  O  O67  1  0.94082700  0.90522000  0.86889200  1
  O  O68  1  0.88562900  0.53508800  0.61345300  1
  O  O69  1  0.11623600  0.34375500  0.78147300  1
  O  O70  1  0.08894400  0.37281200  0.19353700  1
  O  O71  1  0.25046150  0.60161350  0.00916400  1
  O  O72  1  0.80624700  0.41655500  0.47126100  1
  O  O73  1  0.91105600  0.37281200  0.30646300  1
  O  O74  1  0.74953850  0.60161350  0.49083600  1
  O  O75  1  0.24296550  0.73744650  0.63870500  1
  O  O76  1  0.74953850  0.39838650  0.99083600  1
  O  O77  1  0.24296550  0.26255350  0.13870500  1
  O  O78  1  0.12998600  0.85015000  0.23103100  1
  O  O79  1  0.97514500  0.10394000  0.57396800  1
  O  O80  1  0.34854750  0.54980750  0.17939000  1
  O  O81  1  0.05917300  0.90522000  0.63110800  1
  O  O82  1  0.88562900  0.46491200  0.11345300  1
  O  O83  1  0.90788100  0.80258600  0.55510400  1
  O  O84  1  0.94082700  0.09478000  0.36889200  1
  O  O85  1  0.25046150  0.39838650  0.50916400  1
  O  O86  1  0.07632250  0.43574150  0.58635100  1
  O  O87  1  0.75703450  0.26255350  0.36129500  1
  O  O88  1  0.75703450  0.73744650  0.86129500  1
  O  O89  1  0.91105600  0.62718800  0.80646300  1
  O  O90  1  0.87001400  0.85015000  0.26896900  1
  O  O91  1  0.90788100  0.19741400  0.05510400  1
  O  O92  1  0.74151750  0.72758950  0.33679600  1
  O  O93  1  0.02485500  0.10394000  0.92603200  1
  O  O94  1  0.88376400  0.34375500  0.71852700  1
  O  O95  1  0.91465350  0.26031350  0.47552200  1
  O  O96  1  0.05917300  0.09478000  0.13110800  1
  O  O97  1  0.11437100  0.46491200  0.38654700  1
  O  O98  1  0.09211900  0.80258600  0.94489600  1
  O  O99  1  0.88376400  0.65624500  0.21852700  1
  O  O100  1  0.92367750  0.43574150  0.91364900  1
  O  O101  1  0.65145250  0.54980750  0.32061000  1
  O  O102  1  0.09211900  0.19741400  0.44489600  1
  O  O103  1  0.19375300  0.58344500  0.52873900  1
  O  O104  1  0.57632250  0.06425850  0.08635100  1
  O  O105  1  0.52485500  0.39606000  0.42603200  1
  O  O106  1  0.58534650  0.23968650  0.52447800  1
  O  O107  1  0.62998600  0.64985000  0.73103100  1
  O  O108  1  0.15145250  0.95019250  0.82061000  1
  O  O109  1  0.84854750  0.95019250  0.67939000  1
  O  O110  1  0.58894400  0.12718800  0.69353700  1
  O  O111  1  0.61623600  0.15624500  0.28147300  1
  O  O112  1  0.58534650  0.76031350  0.02447800  1
  O  O113  1  0.37001400  0.64985000  0.76896900  1
  O  O114  1  0.41465350  0.23968650  0.97552200  1
  O  O115  1  0.47514500  0.39606000  0.07396800  1
  O  O116  1  0.42367750  0.06425850  0.41364900  1
  O  O117  1  0.75848250  0.77241050  0.66320400  1
  O  O118  1  0.24151750  0.77241050  0.83679600  1
  O  O119  1  0.69375300  0.91655500  0.02873900  1
  O  O120  1  0.30624700  0.08344500  0.97126100  1
  O  O121  1  0.75848250  0.22758950  0.16320400  1
  O  O122  1  0.61437100  0.03508800  0.88654700  1
  O  O123  1  0.44082700  0.40522000  0.86889200  1
  O  O124  1  0.38562900  0.03508800  0.61345300  1
  O  O125  1  0.61623600  0.84375500  0.78147300  1
  O  O126  1  0.58894400  0.87281200  0.19353700  1
  O  O127  1  0.75046150  0.10161350  0.00916400  1
  O  O128  1  0.30624700  0.91655500  0.47126100  1
  O  O129  1  0.41105600  0.87281200  0.30646300  1
  O  O130  1  0.24953850  0.10161350  0.49083600  1
  O  O131  1  0.74296550  0.23744650  0.63870500  1
  O  O132  1  0.24953850  0.89838650  0.99083600  1
  O  O133  1  0.74296550  0.76255350  0.13870500  1
  O  O134  1  0.62998600  0.35015000  0.23103100  1
  O  O135  1  0.47514500  0.60394000  0.57396800  1
  O  O136  1  0.84854750  0.04980750  0.17939000  1
  O  O137  1  0.55917300  0.40522000  0.63110800  1
  O  O138  1  0.38562900  0.96491200  0.11345300  1
  O  O139  1  0.40788100  0.30258600  0.55510400  1
  O  O140  1  0.44082700  0.59478000  0.36889200  1
  O  O141  1  0.75046150  0.89838650  0.50916400  1
  O  O142  1  0.57632250  0.93574150  0.58635100  1
  O  O143  1  0.25703450  0.76255350  0.36129500  1
  O  O144  1  0.25703450  0.23744650  0.86129500  1
  O  O145  1  0.41105600  0.12718800  0.80646300  1
  O  O146  1  0.37001400  0.35015000  0.26896900  1
  O  O147  1  0.40788100  0.69741400  0.05510400  1
  O  O148  1  0.24151750  0.22758950  0.33679600  1
  O  O149  1  0.52485500  0.60394000  0.92603200  1
  O  O150  1  0.38376400  0.84375500  0.71852700  1
  O  O151  1  0.41465350  0.76031350  0.47552200  1
  O  O152  1  0.55917300  0.59478000  0.13110800  1
  O  O153  1  0.61437100  0.96491200  0.38654700  1
  O  O154  1  0.59211900  0.30258600  0.94489600  1
  O  O155  1  0.38376400  0.15624500  0.21852700  1
  O  O156  1  0.42367750  0.93574150  0.91364900  1
  O  O157  1  0.15145250  0.04980750  0.32061000  1
  O  O158  1  0.59211900  0.69741400  0.44489600  1
  O  O159  1  0.69375300  0.08344500  0.52873900  1
