# generated using pymatgen
data_CrCuO4
_symmetry_space_group_name_H-M   'P 1'
_cell_length_a   5.48315400
_cell_length_b   9.01418200
_cell_length_c   5.95754300
_cell_angle_alpha   90.00000000
_cell_angle_beta   90.00000000
_cell_angle_gamma   90.00000000
_symmetry_Int_Tables_number   1
_chemical_formula_structural   CrCuO4
_chemical_formula_sum   'Cr4 Cu4 O16'
_cell_volume   294.45840257
_cell_formula_units_Z   4
loop_
 _symmetry_equiv_pos_site_id
 _symmetry_equiv_pos_as_xyz
  1  'x, y, z'
loop_
 _atom_site_type_symbol
 _atom_site_label
 _atom_site_symmetry_multiplicity
 _atom_site_fract_x
 _atom_site_fract_y
 _atom_site_fract_z
 _atom_site_occupancy
  Cr  Cr0  1  0.50000000  0.86744800  0.25000000  1
  Cr  Cr1  1  0.50000000  0.13255200  0.75000000  1
  Cr  Cr2  1  0.00000000  0.36744800  0.25000000  1
  Cr  Cr3  1  0.00000000  0.63255200  0.75000000  1
  Cu  Cu4  1  0.00000000  0.00000000  0.50000000  1
  Cu  Cu5  1  0.00000000  0.00000000  0.00000000  1
  Cu  Cu6  1  0.50000000  0.50000000  0.50000000  1
  Cu  Cu7  1  0.50000000  0.50000000  0.00000000  1
  O  O8  1  0.76347200  0.02197400  0.75000000  1
  O  O9  1  0.23652800  0.97802600  0.25000000  1
  O  O10  1  0.76347200  0.97802600  0.25000000  1
  O  O11  1  0.23652800  0.02197400  0.75000000  1
  O  O12  1  0.50000000  0.23727000  0.96954600  1
  O  O13  1  0.50000000  0.76273000  0.46954600  1
  O  O14  1  0.50000000  0.23727000  0.53045400  1
  O  O15  1  0.50000000  0.76273000  0.03045400  1
  O  O16  1  0.26347200  0.52197400  0.75000000  1
  O  O17  1  0.73652800  0.47802600  0.25000000  1
  O  O18  1  0.26347200  0.47802600  0.25000000  1
  O  O19  1  0.73652800  0.52197400  0.75000000  1
  O  O20  1  0.00000000  0.73727000  0.96954600  1
  O  O21  1  0.00000000  0.26273000  0.46954600  1
  O  O22  1  0.00000000  0.73727000  0.53045400  1
  O  O23  1  0.00000000  0.26273000  0.03045400  1
