# generated using pymatgen
data_Cu7As6(PbO12)2
_symmetry_space_group_name_H-M   'P 1'
_cell_length_a   5.24531709
_cell_length_b   8.50495978
_cell_length_c   11.43103036
_cell_angle_alpha   90.56519182
_cell_angle_beta   90.85677980
_cell_angle_gamma   93.26224985
_symmetry_Int_Tables_number   1
_chemical_formula_structural   Cu7As6(PbO12)2
_chemical_formula_sum   'Cu7 As6 Pb2 O24'
_cell_volume   509.03949319
_cell_formula_units_Z   1
loop_
 _symmetry_equiv_pos_site_id
 _symmetry_equiv_pos_as_xyz
  1  'x, y, z'
loop_
 _atom_site_type_symbol
 _atom_site_label
 _atom_site_symmetry_multiplicity
 _atom_site_fract_x
 _atom_site_fract_y
 _atom_site_fract_z
 _atom_site_occupancy
  Cu  Cu0  1  0.98148900  0.28287000  0.16587400  1
  Cu  Cu1  1  0.96746000  0.92039200  0.31944100  1
  Cu  Cu2  1  0.03254000  0.07960800  0.68055900  1
  Cu  Cu3  1  0.00000000  0.00000000  0.00000000  1
  Cu  Cu4  1  0.01851100  0.71713000  0.83412600  1
  Cu  Cu5  1  0.50000000  0.50000000  0.00000000  1
  Cu  Cu6  1  0.50000000  0.00000000  0.50000000  1
  As  As7  1  0.02419400  0.65966700  0.11455500  1
  As  As8  1  0.96561400  0.27015600  0.44800200  1
  As  As9  1  0.97580600  0.34033300  0.88544500  1
  As  As10  1  0.48461200  0.07975400  0.22055100  1
  As  As11  1  0.51538800  0.92024600  0.77944900  1
  As  As12  1  0.03438600  0.72984400  0.55199800  1
  Pb  Pb13  1  0.50144400  0.46122300  0.66838300  1
  Pb  Pb14  1  0.49855600  0.53877700  0.33161700  1
  O  O15  1  0.88365300  0.21760000  0.00178900  1
  O  O16  1  0.76864900  0.90218900  0.87714500  1
  O  O17  1  0.37459400  0.72992800  0.77478700  1
  O  O18  1  0.81416900  0.08175700  0.41826600  1
  O  O19  1  0.67281000  0.98039900  0.64963100  1
  O  O20  1  0.70428600  0.60329500  0.12327500  1
  O  O21  1  0.26961500  0.60781200  0.51391500  1
  O  O22  1  0.73038500  0.39218800  0.48608500  1
  O  O23  1  0.19021600  0.24806500  0.55590900  1
  O  O24  1  0.18583100  0.91824300  0.58173400  1
  O  O25  1  0.32719000  0.01960100  0.35036900  1
  O  O26  1  0.88849100  0.66000300  0.67863800  1
  O  O27  1  0.11634700  0.78240000  0.99821100  1
  O  O28  1  0.87303700  0.25515000  0.75585900  1
  O  O29  1  0.11150900  0.33999700  0.32136200  1
  O  O30  1  0.62540600  0.27007200  0.22521300  1
  O  O31  1  0.29571400  0.39670500  0.87672500  1
  O  O32  1  0.19735200  0.49048000  0.10122400  1
  O  O33  1  0.80264800  0.50952000  0.89877600  1
  O  O34  1  0.28981400  0.04970200  0.81532400  1
  O  O35  1  0.71018600  0.95029800  0.18467600  1
  O  O36  1  0.23135100  0.09781100  0.12285500  1
  O  O37  1  0.80978400  0.75193500  0.44409100  1
  O  O38  1  0.12696300  0.74485000  0.24414100  1
