# generated using pymatgen
data_Ge4PbO9
_symmetry_space_group_name_H-M   'P 1'
_cell_length_a   7.48227400
_cell_length_b   11.63007000
_cell_length_c   4.71793793
_cell_angle_alpha   90.00000000
_cell_angle_beta   115.15095025
_cell_angle_gamma   90.00000000
_symmetry_Int_Tables_number   1
_chemical_formula_structural   Ge4PbO9
_chemical_formula_sum   'Ge8 Pb2 O18'
_cell_volume   371.62805584
_cell_formula_units_Z   2
loop_
 _symmetry_equiv_pos_site_id
 _symmetry_equiv_pos_as_xyz
  1  'x, y, z'
loop_
 _atom_site_type_symbol
 _atom_site_label
 _atom_site_symmetry_multiplicity
 _atom_site_fract_x
 _atom_site_fract_y
 _atom_site_fract_z
 _atom_site_occupancy
  Ge  Ge0  1  0.50000000  0.01288800  0.50000000  1
  Ge  Ge1  1  0.27902850  0.79186950  0.68305700  1
  Ge  Ge2  1  0.50000000  0.19183900  0.00000000  1
  Ge  Ge3  1  0.72097150  0.79186950  0.31694300  1
  Ge  Ge4  1  0.00000000  0.51288800  0.50000000  1
  Ge  Ge5  1  0.77902850  0.29186950  0.68305700  1
  Ge  Ge6  1  0.00000000  0.69183900  0.00000000  1
  Ge  Ge7  1  0.22097150  0.29186950  0.31694300  1
  Pb  Pb8  1  0.50000000  0.49994000  0.00000000  1
  Pb  Pb9  1  0.00000000  0.99994000  0.00000000  1
  O  O10  1  0.27839050  0.18400250  0.60265000  1
  O  O11  1  0.72160950  0.18400250  0.39735000  1
  O  O12  1  0.60772050  0.31874550  0.84549800  1
  O  O13  1  0.63295700  0.07867100  0.86639500  1
  O  O14  1  0.39227950  0.31874550  0.15450200  1
  O  O15  1  0.36704300  0.07867100  0.13360500  1
  O  O16  1  0.30424550  0.92556950  0.51440200  1
  O  O17  1  0.50000000  0.74421800  0.00000000  1
  O  O18  1  0.69575450  0.92556950  0.48559800  1
  O  O19  1  0.77839050  0.68400250  0.60265000  1
  O  O20  1  0.22160950  0.68400250  0.39735000  1
  O  O21  1  0.10772050  0.81874550  0.84549800  1
  O  O22  1  0.13295700  0.57867100  0.86639500  1
  O  O23  1  0.89227950  0.81874550  0.15450200  1
  O  O24  1  0.86704300  0.57867100  0.13360500  1
  O  O25  1  0.80424550  0.42556950  0.51440200  1
  O  O26  1  0.00000000  0.24421800  0.00000000  1
  O  O27  1  0.19575450  0.42556950  0.48559800  1
