# generated using pymatgen
data_AsHPbO4
_symmetry_space_group_name_H-M   'P 1'
_cell_length_a   4.97294500
_cell_length_b   6.79012200
_cell_length_c   5.93595298
_cell_angle_alpha   90.00000000
_cell_angle_beta   95.10183769
_cell_angle_gamma   90.00000000
_symmetry_Int_Tables_number   1
_chemical_formula_structural   AsHPbO4
_chemical_formula_sum   'As2 H2 Pb2 O8'
_cell_volume   199.64465438
_cell_formula_units_Z   2
loop_
 _symmetry_equiv_pos_site_id
 _symmetry_equiv_pos_as_xyz
  1  'x, y, z'
loop_
 _atom_site_type_symbol
 _atom_site_label
 _atom_site_symmetry_multiplicity
 _atom_site_fract_x
 _atom_site_fract_y
 _atom_site_fract_z
 _atom_site_occupancy
  As  As0  1  0.50000000  0.79193400  0.75000000  1
  As  As1  1  0.50000000  0.20806600  0.25000000  1
  H  H2  1  0.50000000  0.50000000  0.50000000  1
  H  H3  1  0.50000000  0.50000000  0.00000000  1
  Pb  Pb4  1  0.00000000  0.20309200  0.75000000  1
  Pb  Pb5  1  0.00000000  0.79690800  0.25000000  1
  O  O6  1  0.63972300  0.64184400  0.55406900  1
  O  O7  1  0.36027700  0.64184400  0.94593100  1
  O  O8  1  0.36027700  0.35815600  0.44593100  1
  O  O9  1  0.63972300  0.35815600  0.05406900  1
  O  O10  1  0.75182100  0.92971600  0.89041800  1
  O  O11  1  0.24817900  0.92971600  0.60958200  1
  O  O12  1  0.24817900  0.07028400  0.10958200  1
  O  O13  1  0.75182100  0.07028400  0.39041800  1
