# generated using pymatgen
data_KZr2(PO4)3
_symmetry_space_group_name_H-M   'P 1'
_cell_length_a   8.86620839
_cell_length_b   8.86620839
_cell_length_c   24.26182588
_cell_angle_alpha   90.00000000
_cell_angle_beta   90.00000000
_cell_angle_gamma   120.00000000
_symmetry_Int_Tables_number   1
_chemical_formula_structural   KZr2(PO4)3
_chemical_formula_sum   'K6 Zr12 P18 O72'
_cell_volume   1651.69548743
_cell_formula_units_Z   6
loop_
 _symmetry_equiv_pos_site_id
 _symmetry_equiv_pos_as_xyz
  1  'x, y, z'
loop_
 _atom_site_type_symbol
 _atom_site_label
 _atom_site_symmetry_multiplicity
 _atom_site_fract_x
 _atom_site_fract_y
 _atom_site_fract_z
 _atom_site_occupancy
  K  K0  1  0.33333333  0.66666667  0.16666667  1
  K  K1  1  0.00000000  0.00000000  0.00000000  1
  K  K2  1  1.00000000  0.00000000  0.50000000  1
  K  K3  1  0.66666667  0.33333333  0.33333333  1
  K  K4  1  0.66666667  0.33333333  0.83333333  1
  K  K5  1  0.33333333  0.66666667  0.66666667  1
  Zr  Zr6  1  0.33333333  0.66666667  0.01712167  1
  Zr  Zr7  1  0.00000000  0.00000000  0.14954500  1
  Zr  Zr8  1  0.33333333  0.66666667  0.31621167  1
  Zr  Zr9  1  0.66666667  0.33333333  0.18378833  1
  Zr  Zr10  1  0.00000000  0.00000000  0.35045500  1
  Zr  Zr11  1  0.66666667  0.33333333  0.48287833  1
  Zr  Zr12  1  0.00000000  0.00000000  0.64954500  1
  Zr  Zr13  1  0.33333333  0.66666667  0.51712167  1
  Zr  Zr14  1  0.66666667  0.33333333  0.68378833  1
  Zr  Zr15  1  0.33333333  0.66666667  0.81621167  1
  Zr  Zr16  1  0.66666667  0.33333333  0.98287833  1
  Zr  Zr17  1  0.00000000  0.00000000  0.85045500  1
  P  P18  1  0.00000000  0.28702400  0.25000000  1
  P  P19  1  0.71297600  0.71297600  0.25000000  1
  P  P20  1  0.28702400  0.00000000  0.25000000  1
  P  P21  1  0.66666667  0.04630933  0.08333333  1
  P  P22  1  0.95369067  0.62035733  0.08333333  1
  P  P23  1  0.37964267  0.33333333  0.08333333  1
  P  P24  1  0.66666667  0.62035733  0.58333333  1
  P  P25  1  0.37964267  0.04630933  0.58333333  1
  P  P26  1  0.95369067  0.33333333  0.58333333  1
  P  P27  1  0.33333333  0.37964267  0.41666667  1
  P  P28  1  0.62035733  0.95369067  0.41666667  1
  P  P29  1  0.04630933  0.66666667  0.41666667  1
  P  P30  1  0.33333333  0.95369067  0.91666667  1
  P  P31  1  0.04630933  0.37964267  0.91666667  1
  P  P32  1  0.62035733  0.66666667  0.91666667  1
  P  P33  1  0.00000000  0.71297600  0.75000000  1
  P  P34  1  0.28702400  0.28702400  0.75000000  1
  P  P35  1  0.71297600  0.00000000  0.75000000  1
  O  O36  1  0.46745300  0.15953400  0.23750400  1
  O  O37  1  0.84046600  0.30791900  0.23750400  1
  O  O38  1  0.69208100  0.53254700  0.23750400  1
  O  O39  1  0.53254700  0.69208100  0.26249600  1
  O  O40  1  0.30791900  0.84046600  0.26249600  1
  O  O41  1  0.15953400  0.46745300  0.26249600  1
  O  O42  1  0.19921367  0.17379933  0.09582933  1
  O  O43  1  0.82620067  0.02541433  0.09582933  1
  O  O44  1  0.97458567  0.80078633  0.09582933  1
  O  O45  1  0.13411967  0.64125233  0.07083733  1
  O  O46  1  0.35874767  0.49286733  0.07083733  1
  O  O47  1  0.50713267  0.86588033  0.07083733  1
  O  O48  1  0.21042667  0.04244033  0.30090533  1
  O  O49  1  0.95755967  0.16798633  0.30090533  1
  O  O50  1  0.83201367  0.78957333  0.30090533  1
  O  O51  1  0.78957333  0.83201367  0.19909467  1
  O  O52  1  0.16798633  0.95755967  0.19909467  1
  O  O53  1  0.04244033  0.21042667  0.19909467  1
  O  O54  1  0.45624000  0.29089300  0.03242800  1
  O  O55  1  0.70910700  0.16534700  0.03242800  1
  O  O56  1  0.83465300  0.54376000  0.03242800  1
  O  O57  1  0.87709333  0.50131967  0.13423867  1
  O  O58  1  0.49868033  0.37577367  0.13423867  1
  O  O59  1  0.62422633  0.12290667  0.13423867  1
  O  O60  1  0.13411967  0.49286733  0.57083733  1
  O  O61  1  0.50713267  0.64125233  0.57083733  1
  O  O62  1  0.35874767  0.86588033  0.57083733  1
  O  O63  1  0.19921367  0.02541433  0.59582933  1
  O  O64  1  0.97458567  0.17379933  0.59582933  1
  O  O65  1  0.82620067  0.80078633  0.59582933  1
  O  O66  1  0.86588033  0.50713267  0.42916267  1
  O  O67  1  0.49286733  0.35874767  0.42916267  1
  O  O68  1  0.64125233  0.13411967  0.42916267  1
  O  O69  1  0.80078633  0.97458567  0.40417067  1
  O  O70  1  0.02541433  0.82620067  0.40417067  1
  O  O71  1  0.17379933  0.19921367  0.40417067  1
  O  O72  1  0.87709333  0.37577367  0.63423867  1
  O  O73  1  0.62422633  0.50131967  0.63423867  1
  O  O74  1  0.49868033  0.12290667  0.63423867  1
  O  O75  1  0.45624000  0.16534700  0.53242800  1
  O  O76  1  0.83465300  0.29089300  0.53242800  1
  O  O77  1  0.70910700  0.54376000  0.53242800  1
  O  O78  1  0.12290667  0.62422633  0.36576133  1
  O  O79  1  0.37577367  0.49868033  0.36576133  1
  O  O80  1  0.50131967  0.87709333  0.36576133  1
  O  O81  1  0.54376000  0.83465300  0.46757200  1
  O  O82  1  0.16534700  0.70910700  0.46757200  1
  O  O83  1  0.29089300  0.45624000  0.46757200  1
  O  O84  1  0.80078633  0.82620067  0.90417067  1
  O  O85  1  0.17379933  0.97458567  0.90417067  1
  O  O86  1  0.02541433  0.19921367  0.90417067  1
  O  O87  1  0.86588033  0.35874767  0.92916267  1
  O  O88  1  0.64125233  0.50713267  0.92916267  1
  O  O89  1  0.49286733  0.13411967  0.92916267  1
  O  O90  1  0.53254700  0.84046600  0.76249600  1
  O  O91  1  0.15953400  0.69208100  0.76249600  1
  O  O92  1  0.30791900  0.46745300  0.76249600  1
  O  O93  1  0.46745300  0.30791900  0.73750400  1
  O  O94  1  0.69208100  0.15953400  0.73750400  1
  O  O95  1  0.84046600  0.53254700  0.73750400  1
  O  O96  1  0.54376000  0.70910700  0.96757200  1
  O  O97  1  0.29089300  0.83465300  0.96757200  1
  O  O98  1  0.16534700  0.45624000  0.96757200  1
  O  O99  1  0.12290667  0.49868033  0.86576133  1
  O  O100  1  0.50131967  0.62422633  0.86576133  1
  O  O101  1  0.37577367  0.87709333  0.86576133  1
  O  O102  1  0.78957333  0.95755967  0.69909467  1
  O  O103  1  0.04244033  0.83201367  0.69909467  1
  O  O104  1  0.16798633  0.21042667  0.69909467  1
  O  O105  1  0.21042667  0.16798633  0.80090533  1
  O  O106  1  0.83201367  0.04244033  0.80090533  1
  O  O107  1  0.95755967  0.78957333  0.80090533  1
