# generated using pymatgen
data_AgAsS2
_symmetry_space_group_name_H-M   'P 1'
_cell_length_a   15.39950400
_cell_length_b   7.92177000
_cell_length_c   17.58374710
_cell_angle_alpha   90.00000000
_cell_angle_beta   101.25279444
_cell_angle_gamma   90.00000000
_symmetry_Int_Tables_number   1
_chemical_formula_structural   AgAsS2
_chemical_formula_sum   'Ag24 As24 S48'
_cell_volume   2103.82744501
_cell_formula_units_Z   24
loop_
 _symmetry_equiv_pos_site_id
 _symmetry_equiv_pos_as_xyz
  1  'x, y, z'
loop_
 _atom_site_type_symbol
 _atom_site_label
 _atom_site_symmetry_multiplicity
 _atom_site_fract_x
 _atom_site_fract_y
 _atom_site_fract_z
 _atom_site_occupancy
  Ag  Ag0  1  0.00000000  0.87802600  0.75000000  1
  Ag  Ag1  1  0.00000000  0.12197400  0.25000000  1
  Ag  Ag2  1  0.00000000  0.36647200  0.75000000  1
  Ag  Ag3  1  0.00000000  0.63352800  0.25000000  1
  Ag  Ag4  1  0.64399350  0.11812450  0.91223800  1
  Ag  Ag5  1  0.85600650  0.61812450  0.58776200  1
  Ag  Ag6  1  0.85600650  0.38187550  0.08776200  1
  Ag  Ag7  1  0.64399350  0.88187550  0.41223800  1
  Ag  Ag8  1  0.56716100  0.61926900  0.58080300  1
  Ag  Ag9  1  0.93283900  0.11926900  0.91919700  1
  Ag  Ag10  1  0.93283900  0.88073100  0.41919700  1
  Ag  Ag11  1  0.56716100  0.38073100  0.08080300  1
  Ag  Ag12  1  0.50000000  0.37802600  0.75000000  1
  Ag  Ag13  1  0.50000000  0.62197400  0.25000000  1
  Ag  Ag14  1  0.50000000  0.86647200  0.75000000  1
  Ag  Ag15  1  0.50000000  0.13352800  0.25000000  1
  Ag  Ag16  1  0.14399350  0.61812450  0.91223800  1
  Ag  Ag17  1  0.35600650  0.11812450  0.58776200  1
  Ag  Ag18  1  0.35600650  0.88187550  0.08776200  1
  Ag  Ag19  1  0.14399350  0.38187550  0.41223800  1
  Ag  Ag20  1  0.06716100  0.11926900  0.58080300  1
  Ag  Ag21  1  0.43283900  0.61926900  0.91919700  1
  Ag  Ag22  1  0.43283900  0.38073100  0.41919700  1
  Ag  Ag23  1  0.06716100  0.88073100  0.08080300  1
  As  As24  1  0.74616650  0.36819950  0.73125700  1
  As  As25  1  0.75383350  0.86819950  0.76874300  1
  As  As26  1  0.75383350  0.13180050  0.26874300  1
  As  As27  1  0.74616650  0.63180050  0.23125700  1
  As  As28  1  0.82727300  0.11966400  0.58137500  1
  As  As29  1  0.67272700  0.61966400  0.91862500  1
  As  As30  1  0.67272700  0.38033600  0.41862500  1
  As  As31  1  0.82727300  0.88033600  0.08137500  1
  As  As32  1  0.59272350  0.12158750  0.58756000  1
  As  As33  1  0.90727650  0.62158750  0.91244000  1
  As  As34  1  0.90727650  0.37841250  0.41244000  1
  As  As35  1  0.59272350  0.87841250  0.08756000  1
  As  As36  1  0.24616650  0.86819950  0.73125700  1
  As  As37  1  0.25383350  0.36819950  0.76874300  1
  As  As38  1  0.25383350  0.63180050  0.26874300  1
  As  As39  1  0.24616650  0.13180050  0.23125700  1
  As  As40  1  0.32727300  0.61966400  0.58137500  1
  As  As41  1  0.17272700  0.11966400  0.91862500  1
  As  As42  1  0.17272700  0.88033600  0.41862500  1
  As  As43  1  0.32727300  0.38033600  0.08137500  1
  As  As44  1  0.09272350  0.62158750  0.58756000  1
  As  As45  1  0.40727650  0.12158750  0.91244000  1
  As  As46  1  0.40727650  0.87841250  0.41244000  1
  As  As47  1  0.09272350  0.37841250  0.08756000  1
  S  S48  1  0.50225500  0.90997400  0.89682600  1
  S  S49  1  0.99774500  0.40997400  0.60317400  1
  S  S50  1  0.99774500  0.59002600  0.10317400  1
  S  S51  1  0.50225500  0.09002600  0.39682600  1
  S  S52  1  0.56872550  0.41169150  0.90980500  1
  S  S53  1  0.93127450  0.91169150  0.59019500  1
  S  S54  1  0.93127450  0.08830850  0.09019500  1
  S  S55  1  0.56872550  0.58830850  0.40980500  1
  S  S56  1  0.87322550  0.67561350  0.77868500  1
  S  S57  1  0.62677450  0.17561350  0.72131500  1
  S  S58  1  0.62677450  0.82438650  0.22131500  1
  S  S59  1  0.87322550  0.32438650  0.27868500  1
  S  S60  1  0.85653550  0.16460750  0.71482900  1
  S  S61  1  0.64346450  0.66460750  0.78517100  1
  S  S62  1  0.64346450  0.33539250  0.28517100  1
  S  S63  1  0.85653550  0.83539250  0.21482900  1
  S  S64  1  0.71604950  0.46751450  0.60850200  1
  S  S65  1  0.78395050  0.96751450  0.89149800  1
  S  S66  1  0.78395050  0.03248550  0.39149800  1
  S  S67  1  0.71604950  0.53248550  0.10850200  1
  S  S68  1  0.79324250  0.43882850  0.92583700  1
  S  S69  1  0.70675750  0.93882850  0.57416300  1
  S  S70  1  0.70675750  0.06117150  0.07416300  1
  S  S71  1  0.79324250  0.56117150  0.42583700  1
  S  S72  1  0.00225500  0.40997400  0.89682600  1
  S  S73  1  0.49774500  0.90997400  0.60317400  1
  S  S74  1  0.49774500  0.09002600  0.10317400  1
  S  S75  1  0.00225500  0.59002600  0.39682600  1
  S  S76  1  0.06872550  0.91169150  0.90980500  1
  S  S77  1  0.43127450  0.41169150  0.59019500  1
  S  S78  1  0.43127450  0.58830850  0.09019500  1
  S  S79  1  0.06872550  0.08830850  0.40980500  1
  S  S80  1  0.37322550  0.17561350  0.77868500  1
  S  S81  1  0.12677450  0.67561350  0.72131500  1
  S  S82  1  0.12677450  0.32438650  0.22131500  1
  S  S83  1  0.37322550  0.82438650  0.27868500  1
  S  S84  1  0.35653550  0.66460750  0.71482900  1
  S  S85  1  0.14346450  0.16460750  0.78517100  1
  S  S86  1  0.14346450  0.83539250  0.28517100  1
  S  S87  1  0.35653550  0.33539250  0.21482900  1
  S  S88  1  0.21604950  0.96751450  0.60850200  1
  S  S89  1  0.28395050  0.46751450  0.89149800  1
  S  S90  1  0.28395050  0.53248550  0.39149800  1
  S  S91  1  0.21604950  0.03248550  0.10850200  1
  S  S92  1  0.29324250  0.93882850  0.92583700  1
  S  S93  1  0.20675750  0.43882850  0.57416300  1
  S  S94  1  0.20675750  0.56117150  0.07416300  1
  S  S95  1  0.29324250  0.06117150  0.42583700  1
