# generated using pymatgen
data_K2Be2(Si2O5)3
_symmetry_space_group_name_H-M   'P 1'
_cell_length_a   7.59193900
_cell_length_b   15.52764400
_cell_length_c   11.62144600
_cell_angle_alpha   90.00000000
_cell_angle_beta   90.00000000
_cell_angle_gamma   90.00000000
_symmetry_Int_Tables_number   1
_chemical_formula_structural   K2Be2(Si2O5)3
_chemical_formula_sum   'K8 Be8 Si24 O60'
_cell_volume   1369.99330244
_cell_formula_units_Z   4
loop_
 _symmetry_equiv_pos_site_id
 _symmetry_equiv_pos_as_xyz
  1  'x, y, z'
loop_
 _atom_site_type_symbol
 _atom_site_label
 _atom_site_symmetry_multiplicity
 _atom_site_fract_x
 _atom_site_fract_y
 _atom_site_fract_z
 _atom_site_occupancy
  K  K0  1  0.00000000  0.09731600  0.60153400  1
  K  K1  1  0.50000000  0.29267200  0.37720900  1
  K  K2  1  0.00000000  0.20732800  0.87720900  1
  K  K3  1  0.50000000  0.40268400  0.10153400  1
  K  K4  1  0.50000000  0.59731600  0.60153400  1
  K  K5  1  0.00000000  0.79267200  0.37720900  1
  K  K6  1  0.50000000  0.70732800  0.87720900  1
  K  K7  1  0.00000000  0.90268400  0.10153400  1
  Be  Be8  1  0.15154850  0.37956450  0.24520400  1
  Be  Be9  1  0.34845150  0.12043550  0.74520400  1
  Be  Be10  1  0.65154850  0.12043550  0.74520400  1
  Be  Be11  1  0.84845150  0.37956450  0.24520400  1
  Be  Be12  1  0.65154850  0.87956450  0.24520400  1
  Be  Be13  1  0.84845150  0.62043550  0.74520400  1
  Be  Be14  1  0.15154850  0.62043550  0.74520400  1
  Be  Be15  1  0.34845150  0.87956450  0.24520400  1
  Si  Si16  1  0.50000000  0.14811100  0.98093900  1
  Si  Si17  1  0.50000000  0.05131600  0.51814100  1
  Si  Si18  1  0.29513650  0.44625450  0.82970200  1
  Si  Si19  1  0.70486350  0.44625450  0.82970200  1
  Si  Si20  1  0.29095000  0.29207800  0.64909600  1
  Si  Si21  1  0.20486350  0.05374550  0.32970200  1
  Si  Si22  1  0.79095000  0.20792200  0.14909600  1
  Si  Si23  1  0.70905000  0.29207800  0.64909600  1
  Si  Si24  1  0.00000000  0.35188900  0.48093900  1
  Si  Si25  1  0.00000000  0.44868400  0.01814100  1
  Si  Si26  1  0.79513650  0.05374550  0.32970200  1
  Si  Si27  1  0.20905000  0.20792200  0.14909600  1
  Si  Si28  1  0.00000000  0.64811100  0.98093900  1
  Si  Si29  1  0.00000000  0.55131600  0.51814100  1
  Si  Si30  1  0.79513650  0.94625450  0.82970200  1
  Si  Si31  1  0.20486350  0.94625450  0.82970200  1
  Si  Si32  1  0.79095000  0.79207800  0.64909600  1
  Si  Si33  1  0.70486350  0.55374550  0.32970200  1
  Si  Si34  1  0.29095000  0.70792200  0.14909600  1
  Si  Si35  1  0.20905000  0.79207800  0.64909600  1
  Si  Si36  1  0.50000000  0.85188900  0.48093900  1
  Si  Si37  1  0.50000000  0.94868400  0.01814100  1
  Si  Si38  1  0.29513650  0.55374550  0.32970200  1
  Si  Si39  1  0.70905000  0.70792200  0.14909600  1
  O  O40  1  0.00000000  0.44795600  0.53504300  1
  O  O41  1  0.50000000  0.42887700  0.87262000  1
  O  O42  1  0.73516850  0.29748550  0.20697300  1
  O  O43  1  0.22635300  0.04290300  0.78487000  1
  O  O44  1  0.77364700  0.04290300  0.78487000  1
  O  O45  1  0.27364700  0.45709700  0.28487000  1
  O  O46  1  0.32027850  0.19641550  0.02723300  1
  O  O47  1  0.32257550  0.07933050  0.44526600  1
  O  O48  1  0.82027850  0.30358450  0.52723300  1
  O  O49  1  0.00000000  0.35188900  0.34204000  1
  O  O50  1  0.00000000  0.07112300  0.37262000  1
  O  O51  1  0.50000000  0.05204400  0.03504300  1
  O  O52  1  0.25376350  0.12565250  0.23167000  1
  O  O53  1  0.00000000  0.40349300  0.14340000  1
  O  O54  1  0.23516850  0.20251450  0.70697300  1
  O  O55  1  0.67742450  0.07933050  0.44526600  1
  O  O56  1  0.82257550  0.42066950  0.94526600  1
  O  O57  1  0.67972150  0.19641550  0.02723300  1
  O  O58  1  0.50000000  0.29775600  0.60964500  1
  O  O59  1  0.26483150  0.29748550  0.20697300  1
  O  O60  1  0.72635300  0.45709700  0.28487000  1
  O  O61  1  0.50000000  0.09650700  0.64340000  1
  O  O62  1  0.75376350  0.37434750  0.73167000  1
  O  O63  1  0.17742450  0.42066950  0.94526600  1
  O  O64  1  0.00000000  0.20224400  0.10964500  1
  O  O65  1  0.50000000  0.14811100  0.84204000  1
  O  O66  1  0.17972150  0.30358450  0.52723300  1
  O  O67  1  0.24623650  0.37434750  0.73167000  1
  O  O68  1  0.74623650  0.12565250  0.23167000  1
  O  O69  1  0.76483150  0.20251450  0.70697300  1
  O  O70  1  0.50000000  0.94795600  0.53504300  1
  O  O71  1  0.00000000  0.92887700  0.87262000  1
  O  O72  1  0.23516850  0.79748550  0.20697300  1
  O  O73  1  0.72635300  0.54290300  0.78487000  1
  O  O74  1  0.27364700  0.54290300  0.78487000  1
  O  O75  1  0.77364700  0.95709700  0.28487000  1
  O  O76  1  0.82027850  0.69641550  0.02723300  1
  O  O77  1  0.82257550  0.57933050  0.44526600  1
  O  O78  1  0.32027850  0.80358450  0.52723300  1
  O  O79  1  0.50000000  0.85188900  0.34204000  1
  O  O80  1  0.50000000  0.57112300  0.37262000  1
  O  O81  1  0.00000000  0.55204400  0.03504300  1
  O  O82  1  0.75376350  0.62565250  0.23167000  1
  O  O83  1  0.50000000  0.90349300  0.14340000  1
  O  O84  1  0.73516850  0.70251450  0.70697300  1
  O  O85  1  0.17742450  0.57933050  0.44526600  1
  O  O86  1  0.32257550  0.92066950  0.94526600  1
  O  O87  1  0.17972150  0.69641550  0.02723300  1
  O  O88  1  0.00000000  0.79775600  0.60964500  1
  O  O89  1  0.76483150  0.79748550  0.20697300  1
  O  O90  1  0.22635300  0.95709700  0.28487000  1
  O  O91  1  0.00000000  0.59650700  0.64340000  1
  O  O92  1  0.25376350  0.87434750  0.73167000  1
  O  O93  1  0.67742450  0.92066950  0.94526600  1
  O  O94  1  0.50000000  0.70224400  0.10964500  1
  O  O95  1  0.00000000  0.64811100  0.84204000  1
  O  O96  1  0.67972150  0.80358450  0.52723300  1
  O  O97  1  0.74623650  0.87434750  0.73167000  1
  O  O98  1  0.24623650  0.62565250  0.23167000  1
  O  O99  1  0.26483150  0.70251450  0.70697300  1
