# generated using pymatgen
data_Hg3(SeI)2
_symmetry_space_group_name_H-M   'P 1'
_cell_length_a   20.02134400
_cell_length_b   9.98087800
_cell_length_c   11.26294890
_cell_angle_alpha   90.00000000
_cell_angle_beta   116.49774237
_cell_angle_gamma   90.00000000
_symmetry_Int_Tables_number   1
_chemical_formula_structural   Hg3(SeI)2
_chemical_formula_sum   'Hg24 Se16 I16'
_cell_volume   2014.25200017
_cell_formula_units_Z   8
loop_
 _symmetry_equiv_pos_site_id
 _symmetry_equiv_pos_as_xyz
  1  'x, y, z'
loop_
 _atom_site_type_symbol
 _atom_site_label
 _atom_site_symmetry_multiplicity
 _atom_site_fract_x
 _atom_site_fract_y
 _atom_site_fract_z
 _atom_site_occupancy
  Hg  Hg0  1  0.07814750  0.25578850  0.29632100  1
  Hg  Hg1  1  0.43447400  0.50000000  0.27614800  1
  Hg  Hg2  1  0.12407350  0.73302650  0.99802600  1
  Hg  Hg3  1  0.22154800  0.00000000  0.26563400  1
  Hg  Hg4  1  0.12407350  0.26697350  0.99802600  1
  Hg  Hg5  1  0.42185250  0.24421150  0.70367900  1
  Hg  Hg6  1  0.37592650  0.23302650  0.00197400  1
  Hg  Hg7  1  0.07814750  0.74421150  0.29632100  1
  Hg  Hg8  1  0.27845200  0.50000000  0.73436600  1
  Hg  Hg9  1  0.06552600  0.00000000  0.72385200  1
  Hg  Hg10  1  0.37592650  0.76697350  0.00197400  1
  Hg  Hg11  1  0.42185250  0.75578850  0.70367900  1
  Hg  Hg12  1  0.57814750  0.75578850  0.29632100  1
  Hg  Hg13  1  0.93447400  0.00000000  0.27614800  1
  Hg  Hg14  1  0.62407350  0.23302650  0.99802600  1
  Hg  Hg15  1  0.72154800  0.50000000  0.26563400  1
  Hg  Hg16  1  0.62407350  0.76697350  0.99802600  1
  Hg  Hg17  1  0.92185250  0.74421150  0.70367900  1
  Hg  Hg18  1  0.87592650  0.73302650  0.00197400  1
  Hg  Hg19  1  0.57814750  0.24421150  0.29632100  1
  Hg  Hg20  1  0.77845200  0.00000000  0.73436600  1
  Hg  Hg21  1  0.56552600  0.50000000  0.72385200  1
  Hg  Hg22  1  0.87592650  0.26697350  0.00197400  1
  Hg  Hg23  1  0.92185250  0.25578850  0.70367900  1
  Se  Se24  1  0.30588750  0.75588950  0.74797900  1
  Se  Se25  1  0.19411250  0.25588950  0.25202100  1
  Se  Se26  1  0.19411250  0.74411050  0.25202100  1
  Se  Se27  1  0.43971050  0.24429350  0.25645400  1
  Se  Se28  1  0.30588750  0.24411050  0.74797900  1
  Se  Se29  1  0.43971050  0.75570650  0.25645400  1
  Se  Se30  1  0.06028950  0.25570650  0.74354600  1
  Se  Se31  1  0.06028950  0.74429350  0.74354600  1
  Se  Se32  1  0.80588750  0.25588950  0.74797900  1
  Se  Se33  1  0.69411250  0.75588950  0.25202100  1
  Se  Se34  1  0.69411250  0.24411050  0.25202100  1
  Se  Se35  1  0.93971050  0.74429350  0.25645400  1
  Se  Se36  1  0.80588750  0.74411050  0.74797900  1
  Se  Se37  1  0.93971050  0.25570650  0.25645400  1
  Se  Se38  1  0.56028950  0.75570650  0.74354600  1
  Se  Se39  1  0.56028950  0.24429350  0.74354600  1
  I  I40  1  0.37791000  0.50000000  0.50308200  1
  I  I41  1  0.37716500  0.00000000  0.50327600  1
  I  I42  1  0.24592200  0.50000000  0.99045000  1
  I  I43  1  0.25407800  0.00000000  0.00955000  1
  I  I44  1  0.12283500  0.50000000  0.49672400  1
  I  I45  1  0.00000000  0.50000000  0.00000000  1
  I  I46  1  0.00000000  0.00000000  0.00000000  1
  I  I47  1  0.12209000  0.00000000  0.49691800  1
  I  I48  1  0.87791000  0.00000000  0.50308200  1
  I  I49  1  0.87716500  0.50000000  0.50327600  1
  I  I50  1  0.74592200  0.00000000  0.99045000  1
  I  I51  1  0.75407800  0.50000000  0.00955000  1
  I  I52  1  0.62283500  0.00000000  0.49672400  1
  I  I53  1  0.50000000  0.00000000  0.00000000  1
  I  I54  1  0.50000000  0.50000000  0.00000000  1
  I  I55  1  0.62209000  0.50000000  0.49691800  1
