# generated using pymatgen
data_K3Nb3(BO6)2
_symmetry_space_group_name_H-M   'P 1'
_cell_length_a   4.05016000
_cell_length_b   15.43126900
_cell_length_c   17.80539900
_cell_angle_alpha   90.00000000
_cell_angle_beta   90.00000000
_cell_angle_gamma   90.00000000
_symmetry_Int_Tables_number   1
_chemical_formula_structural   K3Nb3(BO6)2
_chemical_formula_sum   'K12 Nb12 B8 O48'
_cell_volume   1112.82156315
_cell_formula_units_Z   4
loop_
 _symmetry_equiv_pos_site_id
 _symmetry_equiv_pos_as_xyz
  1  'x, y, z'
loop_
 _atom_site_type_symbol
 _atom_site_label
 _atom_site_symmetry_multiplicity
 _atom_site_fract_x
 _atom_site_fract_y
 _atom_site_fract_z
 _atom_site_occupancy
  K  K0  1  0.50861800  0.70150100  0.11616300  1
  K  K1  1  0.49686600  0.20165300  0.86635100  1
  K  K2  1  0.50313400  0.79834700  0.36635100  1
  K  K3  1  0.50313400  0.20165300  0.36635100  1
  K  K4  1  0.49317200  0.50000000  0.91892000  1
  K  K5  1  0.49138200  0.29849900  0.61616300  1
  K  K6  1  0.48526700  0.00000000  0.66894700  1
  K  K7  1  0.49138200  0.70150100  0.61616300  1
  K  K8  1  0.50861800  0.29849900  0.11616300  1
  K  K9  1  0.51473300  0.00000000  0.16894700  1
  K  K10  1  0.49686600  0.79834700  0.86635100  1
  K  K11  1  0.50682800  0.50000000  0.41892000  1
  Nb  Nb12  1  0.03546600  0.87646100  0.02899600  1
  Nb  Nb13  1  0.02431100  0.37644400  0.27899300  1
  Nb  Nb14  1  0.95729900  0.00000000  0.84364300  1
  Nb  Nb15  1  0.96453400  0.12353900  0.52899600  1
  Nb  Nb16  1  0.02431100  0.62355600  0.27899300  1
  Nb  Nb17  1  0.03546600  0.12353900  0.02899600  1
  Nb  Nb18  1  0.04270100  0.00000000  0.34364300  1
  Nb  Nb19  1  0.97568900  0.62355600  0.77899300  1
  Nb  Nb20  1  0.02160700  0.50000000  0.09344500  1
  Nb  Nb21  1  0.97568900  0.37644400  0.77899300  1
  Nb  Nb22  1  0.96453400  0.87646100  0.52899600  1
  Nb  Nb23  1  0.97839300  0.50000000  0.59344500  1
  B  B24  1  0.99662600  0.33333900  0.96711900  1
  B  B25  1  0.00910100  0.83326200  0.71722600  1
  B  B26  1  0.99089900  0.16673800  0.21722600  1
  B  B27  1  0.00337400  0.66666100  0.46711900  1
  B  B28  1  0.99662600  0.66666100  0.96711900  1
  B  B29  1  0.99089900  0.83326200  0.21722600  1
  B  B30  1  0.00910100  0.16673800  0.71722600  1
  B  B31  1  0.00337400  0.33333900  0.46711900  1
  O  O32  1  0.00021500  0.90598500  0.26195400  1
  O  O33  1  0.99591600  0.91042700  0.92240200  1
  O  O34  1  0.50035500  0.00000000  0.33627900  1
  O  O35  1  0.00867500  0.15841500  0.64021800  1
  O  O36  1  0.97596900  0.40603100  0.01174900  1
  O  O37  1  0.00867500  0.84158500  0.64021800  1
  O  O38  1  0.99978500  0.90598500  0.76195400  1
  O  O39  1  0.02001800  0.24780800  0.74944300  1
  O  O40  1  0.00034400  0.00000000  0.05711900  1
  O  O41  1  0.97998200  0.75219200  0.24944300  1
  O  O42  1  0.00679700  0.25220200  0.49927400  1
  O  O43  1  0.49314500  0.86918100  0.03245200  1
  O  O44  1  0.02078300  0.34179500  0.89031200  1
  O  O45  1  0.48183400  0.63079900  0.28251600  1
  O  O46  1  0.47926400  0.50000000  0.08605700  1
  O  O47  1  0.50685500  0.86918100  0.53245200  1
  O  O48  1  0.02078300  0.65820500  0.89031200  1
  O  O49  1  0.00408400  0.08957300  0.42240200  1
  O  O50  1  0.99320300  0.25220200  0.99927400  1
  O  O51  1  0.50685500  0.13081900  0.53245200  1
  O  O52  1  0.49314500  0.13081900  0.03245200  1
  O  O53  1  0.51816600  0.63079900  0.78251600  1
  O  O54  1  0.99965600  0.00000000  0.55711900  1
  O  O55  1  0.02001800  0.75219200  0.74944300  1
  O  O56  1  0.99591600  0.08957300  0.92240200  1
  O  O57  1  0.98737800  0.41035700  0.17227900  1
  O  O58  1  0.49964500  0.00000000  0.83627900  1
  O  O59  1  0.00408400  0.91042700  0.42240200  1
  O  O60  1  0.99978500  0.09401500  0.76195400  1
  O  O61  1  0.98737800  0.58964300  0.17227900  1
  O  O62  1  0.01262200  0.41035700  0.67227900  1
  O  O63  1  0.97596900  0.59396900  0.01174900  1
  O  O64  1  0.97921700  0.65820500  0.39031200  1
  O  O65  1  0.51816600  0.36920100  0.78251600  1
  O  O66  1  0.00021500  0.09401500  0.26195400  1
  O  O67  1  0.01105700  0.50000000  0.80696200  1
  O  O68  1  0.97998200  0.24780800  0.24944300  1
  O  O69  1  0.52073600  0.50000000  0.58605700  1
  O  O70  1  0.02403100  0.59396900  0.51174900  1
  O  O71  1  0.97921700  0.34179500  0.39031200  1
  O  O72  1  0.48183400  0.36920100  0.28251600  1
  O  O73  1  0.00679700  0.74779800  0.49927400  1
  O  O74  1  0.99132500  0.15841500  0.14021800  1
  O  O75  1  0.01262200  0.58964300  0.67227900  1
  O  O76  1  0.99132500  0.84158500  0.14021800  1
  O  O77  1  0.02403100  0.40603100  0.51174900  1
  O  O78  1  0.99320300  0.74779800  0.99927400  1
  O  O79  1  0.98894300  0.50000000  0.30696200  1
