# generated using pymatgen
data_Ag10Te4Br3
_symmetry_space_group_name_H-M   'P 1'
_cell_length_a   15.63694600
_cell_length_b   16.00050400
_cell_length_c   13.95531300
_cell_angle_alpha   90.00000000
_cell_angle_beta   90.00000000
_cell_angle_gamma   90.00000000
_symmetry_Int_Tables_number   1
_chemical_formula_structural   Ag10Te4Br3
_chemical_formula_sum   'Ag80 Te32 Br24'
_cell_volume   3491.60559482
_cell_formula_units_Z   8
loop_
 _symmetry_equiv_pos_site_id
 _symmetry_equiv_pos_as_xyz
  1  'x, y, z'
loop_
 _atom_site_type_symbol
 _atom_site_label
 _atom_site_symmetry_multiplicity
 _atom_site_fract_x
 _atom_site_fract_y
 _atom_site_fract_z
 _atom_site_occupancy
  Ag  Ag0  1  0.59637950  0.76426850  0.10018200  1
  Ag  Ag1  1  0.50000000  0.12557900  0.25000000  1
  Ag  Ag2  1  0.60972450  0.76110950  0.63455100  1
  Ag  Ag3  1  0.60972450  0.76110950  0.86544900  1
  Ag  Ag4  1  0.36187350  0.96334350  0.64488000  1
  Ag  Ag5  1  0.36187350  0.03665650  0.14488000  1
  Ag  Ag6  1  0.90757650  0.97022350  0.75000000  1
  Ag  Ag7  1  0.40362050  0.23573150  0.89981800  1
  Ag  Ag8  1  0.40362050  0.76426850  0.39981800  1
  Ag  Ag9  1  0.50000000  0.64123200  0.75000000  1
  Ag  Ag10  1  0.59637950  0.23573150  0.60018200  1
  Ag  Ag11  1  0.09897600  0.91919900  0.07382900  1
  Ag  Ag12  1  0.90102400  0.91919900  0.42617100  1
  Ag  Ag13  1  0.36187350  0.96334350  0.85512000  1
  Ag  Ag14  1  0.59637950  0.23573150  0.89981800  1
  Ag  Ag15  1  0.39027550  0.23889050  0.13455100  1
  Ag  Ag16  1  0.50000000  0.87442100  0.75000000  1
  Ag  Ag17  1  0.90102400  0.08080100  0.57382900  1
  Ag  Ag18  1  0.09242350  0.97022350  0.75000000  1
  Ag  Ag19  1  0.50000000  0.35876800  0.25000000  1
  Ag  Ag20  1  0.60972450  0.23889050  0.36544900  1
  Ag  Ag21  1  0.09897600  0.08080100  0.57382900  1
  Ag  Ag22  1  0.39027550  0.76110950  0.86544900  1
  Ag  Ag23  1  0.90102400  0.91919900  0.07382900  1
  Ag  Ag24  1  0.90757650  0.02977650  0.25000000  1
  Ag  Ag25  1  0.60972450  0.23889050  0.13455100  1
  Ag  Ag26  1  0.63812650  0.03665650  0.35512000  1
  Ag  Ag27  1  0.39027550  0.23889050  0.36544900  1
  Ag  Ag28  1  0.36187350  0.03665650  0.35512000  1
  Ag  Ag29  1  0.40362050  0.23573150  0.60018200  1
  Ag  Ag30  1  0.09897600  0.91919900  0.42617100  1
  Ag  Ag31  1  0.39027550  0.76110950  0.63455100  1
  Ag  Ag32  1  0.90102400  0.08080100  0.92617100  1
  Ag  Ag33  1  0.63812650  0.96334350  0.64488000  1
  Ag  Ag34  1  0.40362050  0.76426850  0.10018200  1
  Ag  Ag35  1  0.09242350  0.02977650  0.25000000  1
  Ag  Ag36  1  0.63812650  0.96334350  0.85512000  1
  Ag  Ag37  1  0.09897600  0.08080100  0.92617100  1
  Ag  Ag38  1  0.59637950  0.76426850  0.39981800  1
  Ag  Ag39  1  0.63812650  0.03665650  0.14488000  1
  Ag  Ag40  1  0.09637950  0.26426850  0.10018200  1
  Ag  Ag41  1  0.00000000  0.62557900  0.25000000  1
  Ag  Ag42  1  0.10972450  0.26110950  0.63455100  1
  Ag  Ag43  1  0.10972450  0.26110950  0.86544900  1
  Ag  Ag44  1  0.86187350  0.46334350  0.64488000  1
  Ag  Ag45  1  0.86187350  0.53665650  0.14488000  1
  Ag  Ag46  1  0.40757650  0.47022350  0.75000000  1
  Ag  Ag47  1  0.90362050  0.73573150  0.89981800  1
  Ag  Ag48  1  0.90362050  0.26426850  0.39981800  1
  Ag  Ag49  1  0.00000000  0.14123200  0.75000000  1
  Ag  Ag50  1  0.09637950  0.73573150  0.60018200  1
  Ag  Ag51  1  0.59897600  0.41919900  0.07382900  1
  Ag  Ag52  1  0.40102400  0.41919900  0.42617100  1
  Ag  Ag53  1  0.86187350  0.46334350  0.85512000  1
  Ag  Ag54  1  0.09637950  0.73573150  0.89981800  1
  Ag  Ag55  1  0.89027550  0.73889050  0.13455100  1
  Ag  Ag56  1  0.00000000  0.37442100  0.75000000  1
  Ag  Ag57  1  0.40102400  0.58080100  0.57382900  1
  Ag  Ag58  1  0.59242350  0.47022350  0.75000000  1
  Ag  Ag59  1  0.00000000  0.85876800  0.25000000  1
  Ag  Ag60  1  0.10972450  0.73889050  0.36544900  1
  Ag  Ag61  1  0.59897600  0.58080100  0.57382900  1
  Ag  Ag62  1  0.89027550  0.26110950  0.86544900  1
  Ag  Ag63  1  0.40102400  0.41919900  0.07382900  1
  Ag  Ag64  1  0.40757650  0.52977650  0.25000000  1
  Ag  Ag65  1  0.10972450  0.73889050  0.13455100  1
  Ag  Ag66  1  0.13812650  0.53665650  0.35512000  1
  Ag  Ag67  1  0.89027550  0.73889050  0.36544900  1
  Ag  Ag68  1  0.86187350  0.53665650  0.35512000  1
  Ag  Ag69  1  0.90362050  0.73573150  0.60018200  1
  Ag  Ag70  1  0.59897600  0.41919900  0.42617100  1
  Ag  Ag71  1  0.89027550  0.26110950  0.63455100  1
  Ag  Ag72  1  0.40102400  0.58080100  0.92617100  1
  Ag  Ag73  1  0.13812650  0.46334350  0.64488000  1
  Ag  Ag74  1  0.90362050  0.26426850  0.10018200  1
  Ag  Ag75  1  0.59242350  0.52977650  0.25000000  1
  Ag  Ag76  1  0.13812650  0.46334350  0.85512000  1
  Ag  Ag77  1  0.59897600  0.58080100  0.92617100  1
  Ag  Ag78  1  0.09637950  0.26426850  0.39981800  1
  Ag  Ag79  1  0.13812650  0.53665650  0.14488000  1
  Te  Te80  1  0.82115100  0.13059500  0.75000000  1
  Te  Te81  1  0.40808650  0.11635550  0.75000000  1
  Te  Te82  1  0.50000000  0.12037000  0.45060500  1
  Te  Te83  1  0.50000000  0.61351800  0.40985500  1
  Te  Te84  1  0.82115100  0.86940500  0.25000000  1
  Te  Te85  1  0.17884900  0.13059500  0.75000000  1
  Te  Te86  1  0.59191350  0.11635550  0.75000000  1
  Te  Te87  1  0.17884900  0.86940500  0.25000000  1
  Te  Te88  1  0.50000000  0.87963000  0.54939500  1
  Te  Te89  1  0.40808650  0.88364450  0.25000000  1
  Te  Te90  1  0.50000000  0.61351800  0.09014500  1
  Te  Te91  1  0.50000000  0.12037000  0.04939500  1
  Te  Te92  1  0.50000000  0.38648200  0.90985500  1
  Te  Te93  1  0.50000000  0.38648200  0.59014500  1
  Te  Te94  1  0.50000000  0.87963000  0.95060500  1
  Te  Te95  1  0.59191350  0.88364450  0.25000000  1
  Te  Te96  1  0.32115100  0.63059500  0.75000000  1
  Te  Te97  1  0.90808650  0.61635550  0.75000000  1
  Te  Te98  1  0.00000000  0.62037000  0.45060500  1
  Te  Te99  1  0.00000000  0.11351800  0.40985500  1
  Te  Te100  1  0.32115100  0.36940500  0.25000000  1
  Te  Te101  1  0.67884900  0.63059500  0.75000000  1
  Te  Te102  1  0.09191350  0.61635550  0.75000000  1
  Te  Te103  1  0.67884900  0.36940500  0.25000000  1
  Te  Te104  1  0.00000000  0.37963000  0.54939500  1
  Te  Te105  1  0.90808650  0.38364450  0.25000000  1
  Te  Te106  1  0.00000000  0.11351800  0.09014500  1
  Te  Te107  1  0.00000000  0.62037000  0.04939500  1
  Te  Te108  1  0.00000000  0.88648200  0.90985500  1
  Te  Te109  1  0.00000000  0.88648200  0.59014500  1
  Te  Te110  1  0.00000000  0.37963000  0.95060500  1
  Te  Te111  1  0.09191350  0.38364450  0.25000000  1
  Br  Br112  1  0.24958300  0.00000000  0.50000000  1
  Br  Br113  1  0.76341300  0.87241500  0.75000000  1
  Br  Br114  1  0.24958300  0.00000000  0.00000000  1
  Br  Br115  1  0.75041700  0.00000000  0.50000000  1
  Br  Br116  1  0.23658700  0.12758500  0.25000000  1
  Br  Br117  1  0.25000000  0.25000000  0.50000000  1
  Br  Br118  1  0.75041700  0.00000000  0.00000000  1
  Br  Br119  1  0.23658700  0.87241500  0.75000000  1
  Br  Br120  1  0.25000000  0.25000000  0.00000000  1
  Br  Br121  1  0.76341300  0.12758500  0.25000000  1
  Br  Br122  1  0.25000000  0.75000000  0.50000000  1
  Br  Br123  1  0.25000000  0.75000000  0.00000000  1
  Br  Br124  1  0.74958300  0.50000000  0.50000000  1
  Br  Br125  1  0.26341300  0.37241500  0.75000000  1
  Br  Br126  1  0.74958300  0.50000000  0.00000000  1
  Br  Br127  1  0.25041700  0.50000000  0.50000000  1
  Br  Br128  1  0.73658700  0.62758500  0.25000000  1
  Br  Br129  1  0.75000000  0.75000000  0.50000000  1
  Br  Br130  1  0.25041700  0.50000000  0.00000000  1
  Br  Br131  1  0.73658700  0.37241500  0.75000000  1
  Br  Br132  1  0.75000000  0.75000000  0.00000000  1
  Br  Br133  1  0.26341300  0.62758500  0.25000000  1
  Br  Br134  1  0.75000000  0.25000000  0.50000000  1
  Br  Br135  1  0.75000000  0.25000000  0.00000000  1
