# generated using pymatgen
data_RbPO3
_symmetry_space_group_name_H-M   'P 1'
_cell_length_a   6.07376400
_cell_length_b   13.38246800
_cell_length_c   4.86253100
_cell_angle_alpha   90.00000000
_cell_angle_beta   90.00000000
_cell_angle_gamma   90.00000000
_symmetry_Int_Tables_number   1
_chemical_formula_structural   RbPO3
_chemical_formula_sum   'Rb4 P4 O12'
_cell_volume   395.23601314
_cell_formula_units_Z   4
loop_
 _symmetry_equiv_pos_site_id
 _symmetry_equiv_pos_as_xyz
  1  'x, y, z'
loop_
 _atom_site_type_symbol
 _atom_site_label
 _atom_site_symmetry_multiplicity
 _atom_site_fract_x
 _atom_site_fract_y
 _atom_site_fract_z
 _atom_site_occupancy
  Rb  Rb0  1  0.50000000  0.15611600  0.75000000  1
  Rb  Rb1  1  0.00000000  0.34388400  0.25000000  1
  Rb  Rb2  1  0.00000000  0.65611600  0.75000000  1
  Rb  Rb3  1  0.50000000  0.84388400  0.25000000  1
  P  P4  1  0.50000000  0.42239700  0.75000000  1
  P  P5  1  0.00000000  0.07760300  0.25000000  1
  P  P6  1  0.00000000  0.92239700  0.75000000  1
  P  P7  1  0.50000000  0.57760300  0.25000000  1
  O  O8  1  0.21327750  0.13439350  0.25000000  1
  O  O9  1  0.78672250  0.13439350  0.25000000  1
  O  O10  1  0.28672250  0.36560650  0.75000000  1
  O  O11  1  0.71327750  0.36560650  0.75000000  1
  O  O12  1  0.00000000  0.00000000  0.00000000  1
  O  O13  1  0.00000000  0.00000000  0.50000000  1
  O  O14  1  0.71327750  0.63439350  0.25000000  1
  O  O15  1  0.28672250  0.63439350  0.25000000  1
  O  O16  1  0.78672250  0.86560650  0.75000000  1
  O  O17  1  0.21327750  0.86560650  0.75000000  1
  O  O18  1  0.50000000  0.50000000  0.00000000  1
  O  O19  1  0.50000000  0.50000000  0.50000000  1
