# generated using pymatgen
data_Pr2Ta2Cl2O7
_symmetry_space_group_name_H-M   'P 1'
_cell_length_a   15.63054200
_cell_length_b   3.96474600
_cell_length_c   6.97424416
_cell_angle_alpha   90.00000000
_cell_angle_beta   113.68526938
_cell_angle_gamma   90.00000000
_symmetry_Int_Tables_number   1
_chemical_formula_structural   Pr2Ta2Cl2O7
_chemical_formula_sum   'Pr4 Ta4 Cl4 O14'
_cell_volume   395.79565660
_cell_formula_units_Z   2
loop_
 _symmetry_equiv_pos_site_id
 _symmetry_equiv_pos_as_xyz
  1  'x, y, z'
loop_
 _atom_site_type_symbol
 _atom_site_label
 _atom_site_symmetry_multiplicity
 _atom_site_fract_x
 _atom_site_fract_y
 _atom_site_fract_z
 _atom_site_occupancy
  Pr  Pr0  1  0.19172600  0.50000000  0.16492400  1
  Pr  Pr1  1  0.30827400  0.00000000  0.83507600  1
  Pr  Pr2  1  0.69172600  0.00000000  0.16492400  1
  Pr  Pr3  1  0.80827400  0.50000000  0.83507600  1
  Ta  Ta4  1  0.03433400  0.00000000  0.79843800  1
  Ta  Ta5  1  0.46566600  0.50000000  0.20156200  1
  Ta  Ta6  1  0.53433400  0.50000000  0.79843800  1
  Ta  Ta7  1  0.96566600  0.00000000  0.20156200  1
  Cl  Cl8  1  0.32138100  0.00000000  0.43410100  1
  Cl  Cl9  1  0.17861900  0.50000000  0.56589900  1
  Cl  Cl10  1  0.82138100  0.50000000  0.43410100  1
  Cl  Cl11  1  0.67861900  0.00000000  0.56589900  1
  O  O12  1  0.04455500  0.50000000  0.83485400  1
  O  O13  1  0.45544500  0.00000000  0.16514600  1
  O  O14  1  0.08025800  0.00000000  0.15239300  1
  O  O15  1  0.00000000  0.00000000  0.50000000  1
  O  O16  1  0.17359600  0.00000000  0.92982900  1
  O  O17  1  0.41974200  0.50000000  0.84760700  1
  O  O18  1  0.32640400  0.50000000  0.07017100  1
  O  O19  1  0.54455500  0.00000000  0.83485400  1
  O  O20  1  0.95544500  0.50000000  0.16514600  1
  O  O21  1  0.58025800  0.50000000  0.15239300  1
  O  O22  1  0.50000000  0.50000000  0.50000000  1
  O  O23  1  0.67359600  0.50000000  0.92982900  1
  O  O24  1  0.91974200  0.00000000  0.84760700  1
  O  O25  1  0.82640400  0.00000000  0.07017100  1
