# generated using pymatgen
data_Si2Ag6O7
_symmetry_space_group_name_H-M   'P 1'
_cell_length_a   13.01148000
_cell_length_b   9.92468200
_cell_length_c   10.85646712
_cell_angle_alpha   90.00000000
_cell_angle_beta   106.51812492
_cell_angle_gamma   90.00000000
_symmetry_Int_Tables_number   1
_chemical_formula_structural   Si2Ag6O7
_chemical_formula_sum   'Si12 Ag36 O42'
_cell_volume   1344.08911993
_cell_formula_units_Z   6
loop_
 _symmetry_equiv_pos_site_id
 _symmetry_equiv_pos_as_xyz
  1  'x, y, z'
loop_
 _atom_site_type_symbol
 _atom_site_label
 _atom_site_symmetry_multiplicity
 _atom_site_fract_x
 _atom_site_fract_y
 _atom_site_fract_z
 _atom_site_occupancy
  Si  Si0  1  0.60516700  0.50000000  0.12670100  1
  Si  Si1  1  0.39483300  0.50000000  0.87329900  1
  Si  Si2  1  0.69721200  0.50000000  0.61737200  1
  Si  Si3  1  0.15607900  0.50000000  0.87245200  1
  Si  Si4  1  0.30278800  0.50000000  0.38262800  1
  Si  Si5  1  0.84392100  0.50000000  0.12754800  1
  Si  Si6  1  0.10516700  0.00000000  0.12670100  1
  Si  Si7  1  0.89483300  0.00000000  0.87329900  1
  Si  Si8  1  0.19721200  0.00000000  0.61737200  1
  Si  Si9  1  0.65607900  0.00000000  0.87245200  1
  Si  Si10  1  0.80278800  0.00000000  0.38262800  1
  Si  Si11  1  0.34392100  0.00000000  0.12754800  1
  Ag  Ag12  1  0.91748750  0.35750750  0.86139500  1
  Ag  Ag13  1  0.08251250  0.64249250  0.13860500  1
  Ag  Ag14  1  0.22340800  0.32742100  0.62059800  1
  Ag  Ag15  1  0.95885100  0.50000000  0.63565400  1
  Ag  Ag16  1  0.68307250  0.32052050  0.86526700  1
  Ag  Ag17  1  0.77659200  0.32742100  0.37940200  1
  Ag  Ag18  1  0.98914550  0.15096950  0.65699800  1
  Ag  Ag19  1  0.31692750  0.67947950  0.13473300  1
  Ag  Ag20  1  0.98914550  0.84903050  0.65699800  1
  Ag  Ag21  1  0.77659200  0.67257900  0.37940200  1
  Ag  Ag22  1  0.91748750  0.64249250  0.86139500  1
  Ag  Ag23  1  0.31692750  0.32052050  0.13473300  1
  Ag  Ag24  1  0.04114900  0.50000000  0.36434600  1
  Ag  Ag25  1  0.08251250  0.35750750  0.13860500  1
  Ag  Ag26  1  0.22340800  0.67257900  0.62059800  1
  Ag  Ag27  1  0.01085450  0.15096950  0.34300200  1
  Ag  Ag28  1  0.01085450  0.84903050  0.34300200  1
  Ag  Ag29  1  0.68307250  0.67947950  0.86526700  1
  Ag  Ag30  1  0.41748750  0.85750750  0.86139500  1
  Ag  Ag31  1  0.58251250  0.14249250  0.13860500  1
  Ag  Ag32  1  0.72340800  0.82742100  0.62059800  1
  Ag  Ag33  1  0.45885100  0.00000000  0.63565400  1
  Ag  Ag34  1  0.18307250  0.82052050  0.86526700  1
  Ag  Ag35  1  0.27659200  0.82742100  0.37940200  1
  Ag  Ag36  1  0.48914550  0.65096950  0.65699800  1
  Ag  Ag37  1  0.81692750  0.17947950  0.13473300  1
  Ag  Ag38  1  0.48914550  0.34903050  0.65699800  1
  Ag  Ag39  1  0.27659200  0.17257900  0.37940200  1
  Ag  Ag40  1  0.41748750  0.14249250  0.86139500  1
  Ag  Ag41  1  0.81692750  0.82052050  0.13473300  1
  Ag  Ag42  1  0.54114900  0.00000000  0.36434600  1
  Ag  Ag43  1  0.58251250  0.85750750  0.13860500  1
  Ag  Ag44  1  0.72340800  0.17257900  0.62059800  1
  Ag  Ag45  1  0.51085450  0.65096950  0.34300200  1
  Ag  Ag46  1  0.51085450  0.34903050  0.34300200  1
  Ag  Ag47  1  0.18307250  0.17947950  0.86526700  1
  O  O48  1  0.25363800  0.50000000  0.22176900  1
  O  O49  1  0.11285150  0.63794350  0.92670500  1
  O  O50  1  0.87402200  0.50000000  0.28589200  1
  O  O51  1  0.88714850  0.63794350  0.07329500  1
  O  O52  1  0.12327350  0.13686350  0.57062400  1
  O  O53  1  0.11084100  0.86367700  0.21336200  1
  O  O54  1  0.88714850  0.36205650  0.07329500  1
  O  O55  1  0.88915900  0.86367700  0.78663800  1
  O  O56  1  0.20557200  0.50000000  0.45355500  1
  O  O57  1  0.88915900  0.13632300  0.78663800  1
  O  O58  1  0.87672650  0.13686350  0.42937600  1
  O  O59  1  0.11285150  0.36205650  0.92670500  1
  O  O60  1  0.70974200  0.50000000  0.06757200  1
  O  O61  1  0.79442800  0.50000000  0.54644500  1
  O  O62  1  0.74636200  0.50000000  0.77823100  1
  O  O63  1  0.29025800  0.50000000  0.93242800  1
  O  O64  1  0.12597800  0.50000000  0.71410800  1
  O  O65  1  0.11084100  0.13632300  0.21336200  1
  O  O66  1  0.00000000  0.00000000  0.00000000  1
  O  O67  1  0.12327350  0.86313650  0.57062400  1
  O  O68  1  0.87672650  0.86313650  0.42937600  1
  O  O69  1  0.75363800  0.00000000  0.22176900  1
  O  O70  1  0.61285150  0.13794350  0.92670500  1
  O  O71  1  0.37402200  0.00000000  0.28589200  1
  O  O72  1  0.38714850  0.13794350  0.07329500  1
  O  O73  1  0.62327350  0.63686350  0.57062400  1
  O  O74  1  0.61084100  0.36367700  0.21336200  1
  O  O75  1  0.38714850  0.86205650  0.07329500  1
  O  O76  1  0.38915900  0.36367700  0.78663800  1
  O  O77  1  0.70557200  0.00000000  0.45355500  1
  O  O78  1  0.38915900  0.63632300  0.78663800  1
  O  O79  1  0.37672650  0.63686350  0.42937600  1
  O  O80  1  0.61285150  0.86205650  0.92670500  1
  O  O81  1  0.20974200  0.00000000  0.06757200  1
  O  O82  1  0.29442800  0.00000000  0.54644500  1
  O  O83  1  0.24636200  0.00000000  0.77823100  1
  O  O84  1  0.79025800  0.00000000  0.93242800  1
  O  O85  1  0.62597800  0.00000000  0.71410800  1
  O  O86  1  0.61084100  0.63632300  0.21336200  1
  O  O87  1  0.50000000  0.50000000  0.00000000  1
  O  O88  1  0.62327350  0.36313650  0.57062400  1
  O  O89  1  0.37672650  0.36313650  0.42937600  1
