# generated using pymatgen
data_P2Pb3O8
_symmetry_space_group_name_H-M   'P 1'
_cell_length_a   11.17927600
_cell_length_b   8.89390600
_cell_length_c   9.02647447
_cell_angle_alpha   90.00000000
_cell_angle_beta   113.30179428
_cell_angle_gamma   90.00000000
_symmetry_Int_Tables_number   1
_chemical_formula_structural   P2Pb3O8
_chemical_formula_sum   'P8 Pb12 O32'
_cell_volume   824.27536727
_cell_formula_units_Z   4
loop_
 _symmetry_equiv_pos_site_id
 _symmetry_equiv_pos_as_xyz
  1  'x, y, z'
loop_
 _atom_site_type_symbol
 _atom_site_label
 _atom_site_symmetry_multiplicity
 _atom_site_fract_x
 _atom_site_fract_y
 _atom_site_fract_z
 _atom_site_occupancy
  P  P0  1  0.21193100  0.70281900  0.19853800  1
  P  P1  1  0.78806900  0.70281900  0.30146200  1
  P  P2  1  0.78806900  0.29718100  0.80146200  1
  P  P3  1  0.21193100  0.29718100  0.69853800  1
  P  P4  1  0.71193100  0.20281900  0.19853800  1
  P  P5  1  0.28806900  0.20281900  0.30146200  1
  P  P6  1  0.28806900  0.79718100  0.80146200  1
  P  P7  1  0.71193100  0.79718100  0.69853800  1
  Pb  Pb8  1  0.00000000  0.41342300  0.25000000  1
  Pb  Pb9  1  0.00000000  0.58657700  0.75000000  1
  Pb  Pb10  1  0.35049900  0.54598000  0.56023200  1
  Pb  Pb11  1  0.64950100  0.54598000  0.93976800  1
  Pb  Pb12  1  0.64950100  0.45402000  0.43976800  1
  Pb  Pb13  1  0.35049900  0.45402000  0.06023200  1
  Pb  Pb14  1  0.50000000  0.91342300  0.25000000  1
  Pb  Pb15  1  0.50000000  0.08657700  0.75000000  1
  Pb  Pb16  1  0.85049900  0.04598000  0.56023200  1
  Pb  Pb17  1  0.14950100  0.04598000  0.93976800  1
  Pb  Pb18  1  0.14950100  0.95402000  0.43976800  1
  Pb  Pb19  1  0.85049900  0.95402000  0.06023200  1
  O  O20  1  0.15805250  0.58314950  0.06066500  1
  O  O21  1  0.84194750  0.58314950  0.43933500  1
  O  O22  1  0.84194750  0.41685050  0.93933500  1
  O  O23  1  0.15805250  0.41685050  0.56066500  1
  O  O24  1  0.82800050  0.65699250  0.15906700  1
  O  O25  1  0.17199950  0.65699250  0.34093300  1
  O  O26  1  0.17199950  0.34300750  0.84093300  1
  O  O27  1  0.82800050  0.34300750  0.65906700  1
  O  O28  1  0.65506150  0.36125350  0.14268300  1
  O  O29  1  0.34493850  0.36125350  0.35731700  1
  O  O30  1  0.34493850  0.63874650  0.85731700  1
  O  O31  1  0.65506150  0.63874650  0.64268300  1
  O  O32  1  0.13607100  0.20005600  0.23768800  1
  O  O33  1  0.86392900  0.20005600  0.26231200  1
  O  O34  1  0.86392900  0.79994400  0.76231200  1
  O  O35  1  0.13607100  0.79994400  0.73768800  1
  O  O36  1  0.65805250  0.08314950  0.06066500  1
  O  O37  1  0.34194750  0.08314950  0.43933500  1
  O  O38  1  0.34194750  0.91685050  0.93933500  1
  O  O39  1  0.65805250  0.91685050  0.56066500  1
  O  O40  1  0.32800050  0.15699250  0.15906700  1
  O  O41  1  0.67199950  0.15699250  0.34093300  1
  O  O42  1  0.67199950  0.84300750  0.84093300  1
  O  O43  1  0.32800050  0.84300750  0.65906700  1
  O  O44  1  0.15506150  0.86125350  0.14268300  1
  O  O45  1  0.84493850  0.86125350  0.35731700  1
  O  O46  1  0.84493850  0.13874650  0.85731700  1
  O  O47  1  0.15506150  0.13874650  0.64268300  1
  O  O48  1  0.63607100  0.70005600  0.23768800  1
  O  O49  1  0.36392900  0.70005600  0.26231200  1
  O  O50  1  0.36392900  0.29994400  0.76231200  1
  O  O51  1  0.63607100  0.29994400  0.73768800  1
