# generated using pymatgen
data_K2CO3
_symmetry_space_group_name_H-M   'P 1'
_cell_length_a   5.72226200
_cell_length_b   10.06630800
_cell_length_c   7.03845283
_cell_angle_alpha   90.00000000
_cell_angle_beta   97.87919194
_cell_angle_gamma   90.00000000
_symmetry_Int_Tables_number   1
_chemical_formula_structural   K2CO3
_chemical_formula_sum   'K8 C4 O12'
_cell_volume   401.60179280
_cell_formula_units_Z   4
loop_
 _symmetry_equiv_pos_site_id
 _symmetry_equiv_pos_as_xyz
  1  'x, y, z'
loop_
 _atom_site_type_symbol
 _atom_site_label
 _atom_site_symmetry_multiplicity
 _atom_site_fract_x
 _atom_site_fract_y
 _atom_site_fract_z
 _atom_site_occupancy
  K  K0  1  0.00000000  0.66645900  0.75000000  1
  K  K1  1  0.50000000  0.83354100  0.25000000  1
  K  K2  1  0.00000000  0.00000000  0.50000000  1
  K  K3  1  0.00000000  0.00000000  0.00000000  1
  K  K4  1  0.50000000  0.16645900  0.75000000  1
  K  K5  1  0.00000000  0.33354100  0.25000000  1
  K  K6  1  0.50000000  0.50000000  0.50000000  1
  K  K7  1  0.50000000  0.50000000  0.00000000  1
  C  C8  1  0.00000000  0.66822100  0.25000000  1
  C  C9  1  0.50000000  0.83177900  0.75000000  1
  C  C10  1  0.50000000  0.16822100  0.25000000  1
  C  C11  1  0.00000000  0.33177900  0.75000000  1
  O  O12  1  0.68232250  0.89644150  0.70484400  1
  O  O13  1  0.50000000  0.70213200  0.75000000  1
  O  O14  1  0.00000000  0.79786800  0.25000000  1
  O  O15  1  0.81767750  0.60355850  0.29515600  1
  O  O16  1  0.31767750  0.89644150  0.79515600  1
  O  O17  1  0.18232250  0.60355850  0.20484400  1
  O  O18  1  0.18232250  0.39644150  0.70484400  1
  O  O19  1  0.00000000  0.20213200  0.75000000  1
  O  O20  1  0.50000000  0.29786800  0.25000000  1
  O  O21  1  0.31767750  0.10355850  0.29515600  1
  O  O22  1  0.81767750  0.39644150  0.79515600  1
  O  O23  1  0.68232250  0.10355850  0.20484400  1
