# generated using pymatgen
data_Na3MoN3
_symmetry_space_group_name_H-M   'P 1'
_cell_length_a   13.96002400
_cell_length_b   10.97485600
_cell_length_c   6.42521981
_cell_angle_alpha   90.00000000
_cell_angle_beta   117.11766990
_cell_angle_gamma   90.00000000
_symmetry_Int_Tables_number   1
_chemical_formula_structural   Na3MoN3
_chemical_formula_sum   'Na24 Mo8 N24'
_cell_volume   876.18992997
_cell_formula_units_Z   8
loop_
 _symmetry_equiv_pos_site_id
 _symmetry_equiv_pos_as_xyz
  1  'x, y, z'
loop_
 _atom_site_type_symbol
 _atom_site_label
 _atom_site_symmetry_multiplicity
 _atom_site_fract_x
 _atom_site_fract_y
 _atom_site_fract_z
 _atom_site_occupancy
  Na  Na0  1  0.00921150  0.28285550  0.97857400  1
  Na  Na1  1  0.00921150  0.71714450  0.47857400  1
  Na  Na2  1  0.11911850  0.48155850  0.42417400  1
  Na  Na3  1  0.11911850  0.51844150  0.92417400  1
  Na  Na4  1  0.87587650  0.48009350  0.19149200  1
  Na  Na5  1  0.87587650  0.51990650  0.69149200  1
  Na  Na6  1  0.76621150  0.75858150  0.96099400  1
  Na  Na7  1  0.76621150  0.24141850  0.46099400  1
  Na  Na8  1  0.38407750  0.47449150  0.37679000  1
  Na  Na9  1  0.38407750  0.52550850  0.87679000  1
  Na  Na10  1  0.63499650  0.51058150  0.88265200  1
  Na  Na11  1  0.63499650  0.48941850  0.38265200  1
  Na  Na12  1  0.50921150  0.78285550  0.97857400  1
  Na  Na13  1  0.50921150  0.21714450  0.47857400  1
  Na  Na14  1  0.61911850  0.98155850  0.42417400  1
  Na  Na15  1  0.61911850  0.01844150  0.92417400  1
  Na  Na16  1  0.37587650  0.98009350  0.19149200  1
  Na  Na17  1  0.37587650  0.01990650  0.69149200  1
  Na  Na18  1  0.26621150  0.25858150  0.96099400  1
  Na  Na19  1  0.26621150  0.74141850  0.46099400  1
  Na  Na20  1  0.88407750  0.97449150  0.37679000  1
  Na  Na21  1  0.88407750  0.02550850  0.87679000  1
  Na  Na22  1  0.13499650  0.01058150  0.88265200  1
  Na  Na23  1  0.13499650  0.98941850  0.38265200  1
  Mo  Mo24  1  0.00143800  0.76076400  0.99632800  1
  Mo  Mo25  1  0.00143800  0.23923600  0.49632800  1
  Mo  Mo26  1  0.75037400  0.74491700  0.42183800  1
  Mo  Mo27  1  0.75037400  0.25508300  0.92183800  1
  Mo  Mo28  1  0.50143800  0.26076400  0.99632800  1
  Mo  Mo29  1  0.50143800  0.73923600  0.49632800  1
  Mo  Mo30  1  0.25037400  0.24491700  0.42183800  1
  Mo  Mo31  1  0.25037400  0.75508300  0.92183800  1
  N  N32  1  0.99270550  0.60625550  0.09134700  1
  N  N33  1  0.99270550  0.39374450  0.59134700  1
  N  N34  1  0.97160150  0.86858950  0.17626200  1
  N  N35  1  0.97160150  0.13141050  0.67626200  1
  N  N36  1  0.75727200  0.61053200  0.26166100  1
  N  N37  1  0.75727200  0.38946800  0.76166100  1
  N  N38  1  0.20666300  0.37329900  0.21995500  1
  N  N39  1  0.20666300  0.62670100  0.71995500  1
  N  N40  1  0.89422400  0.21826700  0.17381700  1
  N  N41  1  0.89422400  0.78173300  0.67381700  1
  N  N42  1  0.14828900  0.21008600  0.54091700  1
  N  N43  1  0.14828900  0.78991400  0.04091700  1
  N  N44  1  0.49270550  0.10625550  0.09134700  1
  N  N45  1  0.49270550  0.89374450  0.59134700  1
  N  N46  1  0.47160150  0.36858950  0.17626200  1
  N  N47  1  0.47160150  0.63141050  0.67626200  1
  N  N48  1  0.25727200  0.11053200  0.26166100  1
  N  N49  1  0.25727200  0.88946800  0.76166100  1
  N  N50  1  0.70666300  0.87329900  0.21995500  1
  N  N51  1  0.70666300  0.12670100  0.71995500  1
  N  N52  1  0.39422400  0.71826700  0.17381700  1
  N  N53  1  0.39422400  0.28173300  0.67381700  1
  N  N54  1  0.64828900  0.71008600  0.54091700  1
  N  N55  1  0.64828900  0.28991400  0.04091700  1
