# generated using pymatgen
data_LiNb3(Bi2O7)2
_symmetry_space_group_name_H-M   'P 1'
_cell_length_a   13.27019000
_cell_length_b   7.79316800
_cell_length_c   12.25300206
_cell_angle_alpha   90.00000000
_cell_angle_beta   101.55863930
_cell_angle_gamma   90.00000000
_symmetry_Int_Tables_number   1
_chemical_formula_structural   LiNb3(Bi2O7)2
_chemical_formula_sum   'Li4 Nb12 Bi16 O56'
_cell_volume   1241.46856085
_cell_formula_units_Z   4
loop_
 _symmetry_equiv_pos_site_id
 _symmetry_equiv_pos_as_xyz
  1  'x, y, z'
loop_
 _atom_site_type_symbol
 _atom_site_label
 _atom_site_symmetry_multiplicity
 _atom_site_fract_x
 _atom_site_fract_y
 _atom_site_fract_z
 _atom_site_occupancy
  Li  Li0  1  0.50000000  0.03302200  0.75000000  1
  Li  Li1  1  0.50000000  0.96697800  0.25000000  1
  Li  Li2  1  0.00000000  0.53302200  0.75000000  1
  Li  Li3  1  0.00000000  0.46697800  0.25000000  1
  Nb  Nb4  1  0.25243700  0.87341100  0.73960000  1
  Nb  Nb5  1  0.74756300  0.87341100  0.76040000  1
  Nb  Nb6  1  0.50000000  0.37124000  0.25000000  1
  Nb  Nb7  1  0.25243700  0.12658900  0.23960000  1
  Nb  Nb8  1  0.74756300  0.12658900  0.26040000  1
  Nb  Nb9  1  0.50000000  0.62876000  0.75000000  1
  Nb  Nb10  1  0.75243700  0.37341100  0.73960000  1
  Nb  Nb11  1  0.24756300  0.37341100  0.76040000  1
  Nb  Nb12  1  0.00000000  0.87124000  0.25000000  1
  Nb  Nb13  1  0.75243700  0.62658900  0.23960000  1
  Nb  Nb14  1  0.24756300  0.62658900  0.26040000  1
  Nb  Nb15  1  0.00000000  0.12876000  0.75000000  1
  Bi  Bi16  1  0.61594850  0.10845250  0.50567800  1
  Bi  Bi17  1  0.61714950  0.35886750  0.97673800  1
  Bi  Bi18  1  0.38285050  0.64113250  0.02326200  1
  Bi  Bi19  1  0.38405150  0.10845250  0.99432200  1
  Bi  Bi20  1  0.61714950  0.64113250  0.47673800  1
  Bi  Bi21  1  0.38405150  0.89154750  0.49432200  1
  Bi  Bi22  1  0.38285050  0.35886750  0.52326200  1
  Bi  Bi23  1  0.61594850  0.89154750  0.00567800  1
  Bi  Bi24  1  0.11594850  0.60845250  0.50567800  1
  Bi  Bi25  1  0.11714950  0.85886750  0.97673800  1
  Bi  Bi26  1  0.88285050  0.14113250  0.02326200  1
  Bi  Bi27  1  0.88405150  0.60845250  0.99432200  1
  Bi  Bi28  1  0.11714950  0.14113250  0.47673800  1
  Bi  Bi29  1  0.88405150  0.39154750  0.49432200  1
  Bi  Bi30  1  0.88285050  0.85886750  0.52326200  1
  Bi  Bi31  1  0.11594850  0.39154750  0.00567800  1
  O  O32  1  0.49585900  0.64416200  0.58416700  1
  O  O33  1  0.51891750  0.09621350  0.91085400  1
  O  O34  1  0.49585900  0.35583800  0.08416700  1
  O  O35  1  0.79043100  0.05805400  0.41405000  1
  O  O36  1  0.70338100  0.14714500  0.08652400  1
  O  O37  1  0.48108250  0.09621350  0.58914600  1
  O  O38  1  0.11132950  0.96482150  0.77129400  1
  O  O39  1  0.50414100  0.35583800  0.41583300  1
  O  O40  1  0.79043100  0.94194600  0.91405000  1
  O  O41  1  0.88867050  0.96482150  0.72870600  1
  O  O42  1  0.29661900  0.85285500  0.91347600  1
  O  O43  1  0.11132950  0.03517850  0.27129400  1
  O  O44  1  0.48108250  0.90378650  0.08914600  1
  O  O45  1  0.60712500  0.16613500  0.28135000  1
  O  O46  1  0.29661900  0.14714500  0.41347600  1
  O  O47  1  0.70338100  0.85285500  0.58652400  1
  O  O48  1  0.60712500  0.83386500  0.78135000  1
  O  O49  1  0.39287500  0.83386500  0.71865000  1
  O  O50  1  0.29613500  0.85534500  0.28327300  1
  O  O51  1  0.70386500  0.14465500  0.71672700  1
  O  O52  1  0.39287500  0.16613500  0.21865000  1
  O  O53  1  0.29613500  0.14465500  0.78327300  1
  O  O54  1  0.20956900  0.94194600  0.58595000  1
  O  O55  1  0.51891750  0.90378650  0.41085400  1
  O  O56  1  0.50414100  0.64416200  0.91583300  1
  O  O57  1  0.70386500  0.85534500  0.21672700  1
  O  O58  1  0.20956900  0.05805400  0.08595000  1
  O  O59  1  0.88867050  0.03517850  0.22870600  1
  O  O60  1  0.99585900  0.14416200  0.58416700  1
  O  O61  1  0.01891750  0.59621350  0.91085400  1
  O  O62  1  0.99585900  0.85583800  0.08416700  1
  O  O63  1  0.29043100  0.55805400  0.41405000  1
  O  O64  1  0.20338100  0.64714500  0.08652400  1
  O  O65  1  0.98108250  0.59621350  0.58914600  1
  O  O66  1  0.61132950  0.46482150  0.77129400  1
  O  O67  1  0.00414100  0.85583800  0.41583300  1
  O  O68  1  0.29043100  0.44194600  0.91405000  1
  O  O69  1  0.38867050  0.46482150  0.72870600  1
  O  O70  1  0.79661900  0.35285500  0.91347600  1
  O  O71  1  0.61132950  0.53517850  0.27129400  1
  O  O72  1  0.98108250  0.40378650  0.08914600  1
  O  O73  1  0.10712500  0.66613500  0.28135000  1
  O  O74  1  0.79661900  0.64714500  0.41347600  1
  O  O75  1  0.20338100  0.35285500  0.58652400  1
  O  O76  1  0.10712500  0.33386500  0.78135000  1
  O  O77  1  0.89287500  0.33386500  0.71865000  1
  O  O78  1  0.79613500  0.35534500  0.28327300  1
  O  O79  1  0.20386500  0.64465500  0.71672700  1
  O  O80  1  0.89287500  0.66613500  0.21865000  1
  O  O81  1  0.79613500  0.64465500  0.78327300  1
  O  O82  1  0.70956900  0.44194600  0.58595000  1
  O  O83  1  0.01891750  0.40378650  0.41085400  1
  O  O84  1  0.00414100  0.14416200  0.91583300  1
  O  O85  1  0.20386500  0.35534500  0.21672700  1
  O  O86  1  0.70956900  0.55805400  0.08595000  1
  O  O87  1  0.38867050  0.53517850  0.22870600  1
