# generated using pymatgen
data_Nb2AgPS10
_symmetry_space_group_name_H-M   'P 1'
_cell_length_a   25.31918400
_cell_length_b   8.23291400
_cell_length_c   13.05949112
_cell_angle_alpha   90.00000000
_cell_angle_beta   93.74528417
_cell_angle_gamma   90.00000000
_symmetry_Int_Tables_number   1
_chemical_formula_structural   Nb2AgPS10
_chemical_formula_sum   'Nb16 Ag8 P8 S80'
_cell_volume   2716.44567848
_cell_formula_units_Z   8
loop_
 _symmetry_equiv_pos_site_id
 _symmetry_equiv_pos_as_xyz
  1  'x, y, z'
loop_
 _atom_site_type_symbol
 _atom_site_label
 _atom_site_symmetry_multiplicity
 _atom_site_fract_x
 _atom_site_fract_y
 _atom_site_fract_z
 _atom_site_occupancy
  Nb  Nb0  1  0.86502900  0.93233700  0.28653500  1
  Nb  Nb1  1  0.63670100  0.44849900  0.50481200  1
  Nb  Nb2  1  0.86329900  0.05150100  0.49518800  1
  Nb  Nb3  1  0.63497100  0.43233700  0.21346500  1
  Nb  Nb4  1  0.63497100  0.56766300  0.71346500  1
  Nb  Nb5  1  0.86502900  0.06766300  0.78653500  1
  Nb  Nb6  1  0.86329900  0.94849900  0.99518800  1
  Nb  Nb7  1  0.63670100  0.55150100  0.00481200  1
  Nb  Nb8  1  0.36502900  0.43233700  0.28653500  1
  Nb  Nb9  1  0.13670100  0.94849900  0.50481200  1
  Nb  Nb10  1  0.36329900  0.55150100  0.49518800  1
  Nb  Nb11  1  0.13497100  0.93233700  0.21346500  1
  Nb  Nb12  1  0.13497100  0.06766300  0.71346500  1
  Nb  Nb13  1  0.36502900  0.56766300  0.78653500  1
  Nb  Nb14  1  0.36329900  0.44849900  0.99518800  1
  Nb  Nb15  1  0.13670100  0.05150100  0.00481200  1
  Ag  Ag16  1  0.94272000  0.47130100  0.90438700  1
  Ag  Ag17  1  0.55728000  0.97130100  0.59561300  1
  Ag  Ag18  1  0.55728000  0.02869900  0.09561300  1
  Ag  Ag19  1  0.94272000  0.52869900  0.40438700  1
  Ag  Ag20  1  0.44272000  0.97130100  0.90438700  1
  Ag  Ag21  1  0.05728000  0.47130100  0.59561300  1
  Ag  Ag22  1  0.05728000  0.52869900  0.09561300  1
  Ag  Ag23  1  0.44272000  0.02869900  0.40438700  1
  P  P24  1  0.59380500  0.87249900  0.86657700  1
  P  P25  1  0.59380500  0.12750100  0.36657700  1
  P  P26  1  0.90619500  0.37249900  0.63342300  1
  P  P27  1  0.90619500  0.62750100  0.13342300  1
  P  P28  1  0.09380500  0.37249900  0.86657700  1
  P  P29  1  0.09380500  0.62750100  0.36657700  1
  P  P30  1  0.40619500  0.87249900  0.63342300  1
  P  P31  1  0.40619500  0.12750100  0.13342300  1
  S  S32  1  0.93461100  0.86459800  0.14618100  1
  S  S33  1  0.79513700  0.05514300  0.63226400  1
  S  S34  1  0.85382400  0.63528000  0.00634400  1
  S  S35  1  0.86785150  0.39131450  0.76941000  1
  S  S36  1  0.93601800  0.11734700  0.93036100  1
  S  S37  1  0.70486300  0.55514300  0.86773600  1
  S  S38  1  0.85382400  0.36472000  0.50634400  1
  S  S39  1  0.95831650  0.44410650  0.11457400  1
  S  S40  1  0.70467900  0.36292900  0.09310300  1
  S  S41  1  0.54168350  0.94410650  0.38542600  1
  S  S42  1  0.70486300  0.44485700  0.36773600  1
  S  S43  1  0.79532100  0.86292900  0.40689700  1
  S  S44  1  0.54168350  0.05589350  0.88542600  1
  S  S45  1  0.70838450  0.40314450  0.64145000  1
  S  S46  1  0.56398200  0.38265300  0.06963900  1
  S  S47  1  0.64617600  0.86472000  0.99365600  1
  S  S48  1  0.93601800  0.88265300  0.43036100  1
  S  S49  1  0.65507950  0.35893550  0.85645600  1
  S  S50  1  0.84492050  0.85893550  0.64354400  1
  S  S51  1  0.93426200  0.88646600  0.87044900  1
  S  S52  1  0.56573800  0.38646600  0.62955100  1
  S  S53  1  0.70838450  0.59685550  0.14145000  1
  S  S54  1  0.56538900  0.63540200  0.85381900  1
  S  S55  1  0.56573800  0.61353400  0.12955100  1
  S  S56  1  0.79513700  0.94485700  0.13226400  1
  S  S57  1  0.95831650  0.55589350  0.61457400  1
  S  S58  1  0.79161550  0.90314450  0.85855000  1
  S  S59  1  0.86785150  0.60868550  0.26941000  1
  S  S60  1  0.79161550  0.09685550  0.35855000  1
  S  S61  1  0.63214850  0.89131450  0.73059000  1
  S  S62  1  0.56398200  0.61734700  0.56963900  1
  S  S63  1  0.63214850  0.10868550  0.23059000  1
  S  S64  1  0.65507950  0.64106450  0.35645600  1
  S  S65  1  0.93426200  0.11353400  0.37044900  1
  S  S66  1  0.56538900  0.36459800  0.35381900  1
  S  S67  1  0.93461100  0.13540200  0.64618100  1
  S  S68  1  0.79532100  0.13707100  0.90689700  1
  S  S69  1  0.64617600  0.13528000  0.49365600  1
  S  S70  1  0.70467900  0.63707100  0.59310300  1
  S  S71  1  0.84492050  0.14106450  0.14354400  1
  S  S72  1  0.43461100  0.36459800  0.14618100  1
  S  S73  1  0.29513700  0.55514300  0.63226400  1
  S  S74  1  0.35382400  0.13528000  0.00634400  1
  S  S75  1  0.36785150  0.89131450  0.76941000  1
  S  S76  1  0.43601800  0.61734700  0.93036100  1
  S  S77  1  0.20486300  0.05514300  0.86773600  1
  S  S78  1  0.35382400  0.86472000  0.50634400  1
  S  S79  1  0.45831650  0.94410650  0.11457400  1
  S  S80  1  0.20467900  0.86292900  0.09310300  1
  S  S81  1  0.04168350  0.44410650  0.38542600  1
  S  S82  1  0.20486300  0.94485700  0.36773600  1
  S  S83  1  0.29532100  0.36292900  0.40689700  1
  S  S84  1  0.04168350  0.55589350  0.88542600  1
  S  S85  1  0.20838450  0.90314450  0.64145000  1
  S  S86  1  0.06398200  0.88265300  0.06963900  1
  S  S87  1  0.14617600  0.36472000  0.99365600  1
  S  S88  1  0.43601800  0.38265300  0.43036100  1
  S  S89  1  0.15507950  0.85893550  0.85645600  1
  S  S90  1  0.34492050  0.35893550  0.64354400  1
  S  S91  1  0.43426200  0.38646600  0.87044900  1
  S  S92  1  0.06573800  0.88646600  0.62955100  1
  S  S93  1  0.20838450  0.09685550  0.14145000  1
  S  S94  1  0.06538900  0.13540200  0.85381900  1
  S  S95  1  0.06573800  0.11353400  0.12955100  1
  S  S96  1  0.29513700  0.44485700  0.13226400  1
  S  S97  1  0.45831650  0.05589350  0.61457400  1
  S  S98  1  0.29161550  0.40314450  0.85855000  1
  S  S99  1  0.36785150  0.10868550  0.26941000  1
  S  S100  1  0.29161550  0.59685550  0.35855000  1
  S  S101  1  0.13214850  0.39131450  0.73059000  1
  S  S102  1  0.06398200  0.11734700  0.56963900  1
  S  S103  1  0.13214850  0.60868550  0.23059000  1
  S  S104  1  0.15507950  0.14106450  0.35645600  1
  S  S105  1  0.43426200  0.61353400  0.37044900  1
  S  S106  1  0.06538900  0.86459800  0.35381900  1
  S  S107  1  0.43461100  0.63540200  0.64618100  1
  S  S108  1  0.29532100  0.63707100  0.90689700  1
  S  S109  1  0.14617600  0.63528000  0.49365600  1
  S  S110  1  0.20467900  0.13707100  0.59310300  1
  S  S111  1  0.34492050  0.64106450  0.14354400  1
