# generated using pymatgen
data_Al5C3N
_symmetry_space_group_name_H-M   'P 1'
_cell_length_a   3.34566188
_cell_length_b   3.34566188
_cell_length_c   20.97145600
_cell_angle_alpha   90.00000000
_cell_angle_beta   90.00000000
_cell_angle_gamma   120.00000000
_symmetry_Int_Tables_number   1
_chemical_formula_structural   Al5C3N
_chemical_formula_sum   'Al10 C6 N2'
_cell_volume   203.29341465
_cell_formula_units_Z   2
loop_
 _symmetry_equiv_pos_site_id
 _symmetry_equiv_pos_as_xyz
  1  'x, y, z'
loop_
 _atom_site_type_symbol
 _atom_site_label
 _atom_site_symmetry_multiplicity
 _atom_site_fract_x
 _atom_site_fract_y
 _atom_site_fract_z
 _atom_site_occupancy
  Al  Al0  1  0.66666667  0.33333333  0.75000000  1
  Al  Al1  1  0.33333333  0.66666667  0.25000000  1
  Al  Al2  1  0.00000000  0.00000000  0.34519000  1
  Al  Al3  1  0.00000000  0.00000000  0.84519000  1
  Al  Al4  1  0.33333333  0.66666667  0.45092100  1
  Al  Al5  1  0.66666667  0.33333333  0.95092100  1
  Al  Al6  1  0.33333333  0.66666667  0.04907900  1
  Al  Al7  1  0.66666667  0.33333333  0.54907900  1
  Al  Al8  1  0.00000000  0.00000000  0.15481000  1
  Al  Al9  1  0.00000000  0.00000000  0.65481000  1
  C  C10  1  0.66666667  0.33333333  0.63864900  1
  C  C11  1  0.33333333  0.66666667  0.13864900  1
  C  C12  1  0.33333333  0.66666667  0.36135100  1
  C  C13  1  0.66666667  0.33333333  0.86135100  1
  C  C14  1  0.00000000  0.00000000  0.00000000  1
  C  C15  1  0.00000000  0.00000000  0.50000000  1
  N  N16  1  0.00000000  0.00000000  0.75000000  1
  N  N17  1  0.00000000  0.00000000  0.25000000  1
