# generated using pymatgen
data_BaNaZr2F11
_symmetry_space_group_name_H-M   'P 1'
_cell_length_a   8.37980600
_cell_length_b   8.37980600
_cell_length_c   23.99891000
_cell_angle_alpha   90.00000000
_cell_angle_beta   90.00000000
_cell_angle_gamma   90.00000000
_symmetry_Int_Tables_number   1
_chemical_formula_structural   BaNaZr2F11
_chemical_formula_sum   'Ba8 Na8 Zr16 F88'
_cell_volume   1685.23102529
_cell_formula_units_Z   8
loop_
 _symmetry_equiv_pos_site_id
 _symmetry_equiv_pos_as_xyz
  1  'x, y, z'
loop_
 _atom_site_type_symbol
 _atom_site_label
 _atom_site_symmetry_multiplicity
 _atom_site_fract_x
 _atom_site_fract_y
 _atom_site_fract_z
 _atom_site_occupancy
  Ba  Ba0  1  0.50000000  0.00000000  0.16185300  1
  Ba  Ba1  1  0.50000000  0.50000000  0.08814700  1
  Ba  Ba2  1  0.00000000  0.00000000  0.41185300  1
  Ba  Ba3  1  0.50000000  0.00000000  0.33814700  1
  Ba  Ba4  1  0.00000000  0.50000000  0.66185300  1
  Ba  Ba5  1  0.00000000  0.00000000  0.58814700  1
  Ba  Ba6  1  0.50000000  0.50000000  0.91185300  1
  Ba  Ba7  1  0.00000000  0.50000000  0.83814700  1
  Na  Na8  1  0.50000000  0.50000000  0.38485800  1
  Na  Na9  1  0.00000000  0.50000000  0.13485800  1
  Na  Na10  1  0.00000000  0.50000000  0.36514200  1
  Na  Na11  1  0.00000000  0.00000000  0.11514200  1
  Na  Na12  1  0.00000000  0.00000000  0.88485800  1
  Na  Na13  1  0.50000000  0.00000000  0.63485800  1
  Na  Na14  1  0.50000000  0.00000000  0.86514200  1
  Na  Na15  1  0.50000000  0.50000000  0.61514200  1
  Zr  Zr16  1  0.63789500  0.21471300  0.49949500  1
  Zr  Zr17  1  0.13789500  0.21471300  0.25050500  1
  Zr  Zr18  1  0.71471300  0.86210500  0.00050500  1
  Zr  Zr19  1  0.28528700  0.13789500  0.00050500  1
  Zr  Zr20  1  0.86210500  0.78528700  0.25050500  1
  Zr  Zr21  1  0.28528700  0.63789500  0.24949500  1
  Zr  Zr22  1  0.71471300  0.36210500  0.24949500  1
  Zr  Zr23  1  0.36210500  0.78528700  0.49949500  1
  Zr  Zr24  1  0.13789500  0.71471300  0.99949500  1
  Zr  Zr25  1  0.63789500  0.71471300  0.75050500  1
  Zr  Zr26  1  0.21471300  0.36210500  0.50050500  1
  Zr  Zr27  1  0.78528700  0.63789500  0.50050500  1
  Zr  Zr28  1  0.36210500  0.28528700  0.75050500  1
  Zr  Zr29  1  0.78528700  0.13789500  0.74949500  1
  Zr  Zr30  1  0.21471300  0.86210500  0.74949500  1
  Zr  Zr31  1  0.86210500  0.28528700  0.99949500  1
  F  F32  1  0.78884600  0.07231900  0.05122100  1
  F  F33  1  0.68766800  0.11362400  0.42169400  1
  F  F34  1  0.81233200  0.88637600  0.32830600  1
  F  F35  1  0.81901100  0.88709900  0.17379300  1
  F  F36  1  0.18098900  0.11290100  0.17379300  1
  F  F37  1  0.70334800  0.43043900  0.45120800  1
  F  F38  1  0.61290100  0.31901100  0.32620700  1
  F  F39  1  0.38637600  0.68766800  0.17169400  1
  F  F40  1  0.20334800  0.43043900  0.29879200  1
  F  F41  1  0.93043900  0.29665200  0.20120800  1
  F  F42  1  0.07231900  0.71115400  0.30122100  1
  F  F43  1  0.61913900  0.81028800  0.25061700  1
  F  F44  1  0.78884600  0.57231900  0.19877900  1
  F  F45  1  0.61362400  0.81233200  0.07830600  1
  F  F46  1  0.06956100  0.70334800  0.20120800  1
  F  F47  1  0.88709900  0.68098900  0.42379300  1
  F  F48  1  0.31028800  0.88086100  0.24938300  1
  F  F49  1  0.29665200  0.56956100  0.45120800  1
  F  F50  1  0.88086100  0.18971200  0.49938300  1
  F  F51  1  0.50000000  0.00000000  0.00177800  1
  F  F52  1  0.11290100  0.31901100  0.42379300  1
  F  F53  1  0.61362400  0.31233200  0.17169400  1
  F  F54  1  0.11913900  0.81028800  0.49938300  1
  F  F55  1  0.68971200  0.11913900  0.24938300  1
  F  F56  1  0.18098900  0.61290100  0.07620700  1
  F  F57  1  0.31028800  0.38086100  0.00061700  1
  F  F58  1  0.21115400  0.92768100  0.05122100  1
  F  F59  1  0.79665200  0.56956100  0.29879200  1
  F  F60  1  0.93043900  0.79665200  0.04879200  1
  F  F61  1  0.00000000  0.00000000  0.25177800  1
  F  F62  1  0.50000000  0.50000000  0.24822200  1
  F  F63  1  0.38637600  0.18766800  0.07830600  1
  F  F64  1  0.57231900  0.71115400  0.44877900  1
  F  F65  1  0.38086100  0.18971200  0.25061700  1
  F  F66  1  0.42768100  0.28884600  0.44877900  1
  F  F67  1  0.50000000  0.00000000  0.49822200  1
  F  F68  1  0.68971200  0.61913900  0.00061700  1
  F  F69  1  0.18766800  0.11362400  0.32830600  1
  F  F70  1  0.21115400  0.42768100  0.19877900  1
  F  F71  1  0.81901100  0.38709900  0.07620700  1
  F  F72  1  0.31233200  0.88637600  0.42169400  1
  F  F73  1  0.92768100  0.28884600  0.30122100  1
  F  F74  1  0.38709900  0.68098900  0.32620700  1
  F  F75  1  0.06956100  0.20334800  0.04879200  1
  F  F76  1  0.28884600  0.57231900  0.55122100  1
  F  F77  1  0.18766800  0.61362400  0.92169400  1
  F  F78  1  0.31233200  0.38637600  0.82830600  1
  F  F79  1  0.31901100  0.38709900  0.67379300  1
  F  F80  1  0.68098900  0.61290100  0.67379300  1
  F  F81  1  0.20334800  0.93043900  0.95120800  1
  F  F82  1  0.11290100  0.81901100  0.82620700  1
  F  F83  1  0.88637600  0.18766800  0.67169400  1
  F  F84  1  0.70334800  0.93043900  0.79879200  1
  F  F85  1  0.43043900  0.79665200  0.70120800  1
  F  F86  1  0.57231900  0.21115400  0.80122100  1
  F  F87  1  0.11913900  0.31028800  0.75061700  1
  F  F88  1  0.28884600  0.07231900  0.69877900  1
  F  F89  1  0.11362400  0.31233200  0.57830600  1
  F  F90  1  0.56956100  0.20334800  0.70120800  1
  F  F91  1  0.38709900  0.18098900  0.92379300  1
  F  F92  1  0.81028800  0.38086100  0.74938300  1
  F  F93  1  0.79665200  0.06956100  0.95120800  1
  F  F94  1  0.38086100  0.68971200  0.99938300  1
  F  F95  1  0.00000000  0.50000000  0.50177800  1
  F  F96  1  0.61290100  0.81901100  0.92379300  1
  F  F97  1  0.11362400  0.81233200  0.67169400  1
  F  F98  1  0.61913900  0.31028800  0.99938300  1
  F  F99  1  0.18971200  0.61913900  0.74938300  1
  F  F100  1  0.68098900  0.11290100  0.57620700  1
  F  F101  1  0.81028800  0.88086100  0.50061700  1
  F  F102  1  0.71115400  0.42768100  0.55122100  1
  F  F103  1  0.29665200  0.06956100  0.79879200  1
  F  F104  1  0.43043900  0.29665200  0.54879200  1
  F  F105  1  0.50000000  0.50000000  0.75177800  1
  F  F106  1  0.00000000  0.00000000  0.74822200  1
  F  F107  1  0.88637600  0.68766800  0.57830600  1
  F  F108  1  0.07231900  0.21115400  0.94877900  1
  F  F109  1  0.88086100  0.68971200  0.75061700  1
  F  F110  1  0.92768100  0.78884600  0.94877900  1
  F  F111  1  0.00000000  0.50000000  0.99822200  1
  F  F112  1  0.18971200  0.11913900  0.50061700  1
  F  F113  1  0.68766800  0.61362400  0.82830600  1
  F  F114  1  0.71115400  0.92768100  0.69877900  1
  F  F115  1  0.31901100  0.88709900  0.57620700  1
  F  F116  1  0.81233200  0.38637600  0.92169400  1
  F  F117  1  0.42768100  0.78884600  0.80122100  1
  F  F118  1  0.88709900  0.18098900  0.82620700  1
  F  F119  1  0.56956100  0.70334800  0.54879200  1
