# generated using pymatgen
data_GdP2H9O10
_symmetry_space_group_name_H-M   'P 1'
_cell_length_a   7.29204200
_cell_length_b   10.00373200
_cell_length_c   11.72081100
_cell_angle_alpha   90.00000000
_cell_angle_beta   90.00000000
_cell_angle_gamma   90.00000000
_symmetry_Int_Tables_number   1
_chemical_formula_structural   GdP2H9O10
_chemical_formula_sum   'Gd4 P8 H36 O40'
_cell_volume   855.00542985
_cell_formula_units_Z   4
loop_
 _symmetry_equiv_pos_site_id
 _symmetry_equiv_pos_as_xyz
  1  'x, y, z'
loop_
 _atom_site_type_symbol
 _atom_site_label
 _atom_site_symmetry_multiplicity
 _atom_site_fract_x
 _atom_site_fract_y
 _atom_site_fract_z
 _atom_site_occupancy
  Gd  Gd0  1  0.25000000  0.74244400  0.25000000  1
  Gd  Gd1  1  0.25000000  0.75755600  0.75000000  1
  Gd  Gd2  1  0.75000000  0.25755600  0.75000000  1
  Gd  Gd3  1  0.75000000  0.24244400  0.25000000  1
  P  P4  1  0.41469100  0.03010300  0.07284900  1
  P  P5  1  0.41469100  0.46989700  0.92715100  1
  P  P6  1  0.08530900  0.03010300  0.42715100  1
  P  P7  1  0.08530900  0.46989700  0.57284900  1
  P  P8  1  0.58530900  0.96989700  0.92715100  1
  P  P9  1  0.58530900  0.53010300  0.07284900  1
  P  P10  1  0.91469100  0.96989700  0.57284900  1
  P  P11  1  0.91469100  0.53010300  0.42715100  1
  H  H12  1  0.05627600  0.44205200  0.24223600  1
  H  H13  1  0.05627600  0.05794800  0.75776400  1
  H  H14  1  0.44372400  0.44205200  0.25776400  1
  H  H15  1  0.44372400  0.05794800  0.74223600  1
  H  H16  1  0.94372400  0.55794800  0.75776400  1
  H  H17  1  0.94372400  0.94205200  0.24223600  1
  H  H18  1  0.55627600  0.55794800  0.74223600  1
  H  H19  1  0.55627600  0.94205200  0.25776400  1
  H  H20  1  0.29956300  0.25000000  0.00000000  1
  H  H21  1  0.20043700  0.25000000  0.50000000  1
  H  H22  1  0.70043700  0.75000000  0.00000000  1
  H  H23  1  0.79956300  0.75000000  0.50000000  1
  H  H24  1  0.03605300  0.12857800  0.07366700  1
  H  H25  1  0.03605300  0.37142200  0.92633300  1
  H  H26  1  0.46394700  0.12857800  0.42633300  1
  H  H27  1  0.46394700  0.37142200  0.57366700  1
  H  H28  1  0.96394700  0.87142200  0.92633300  1
  H  H29  1  0.96394700  0.62857800  0.07366700  1
  H  H30  1  0.53605300  0.87142200  0.57366700  1
  H  H31  1  0.53605300  0.62857800  0.42633300  1
  H  H32  1  0.16132800  0.87744300  0.98534600  1
  H  H33  1  0.16132800  0.62255700  0.01465400  1
  H  H34  1  0.33867200  0.87744300  0.51465400  1
  H  H35  1  0.33867200  0.62255700  0.48534600  1
  H  H36  1  0.83867200  0.12255700  0.01465400  1
  H  H37  1  0.83867200  0.37744300  0.98534600  1
  H  H38  1  0.66132800  0.12255700  0.48534600  1
  H  H39  1  0.66132800  0.37744300  0.51465400  1
  H  H40  1  0.11657000  0.35183200  0.13933400  1
  H  H41  1  0.11657000  0.14816800  0.86066600  1
  H  H42  1  0.38343000  0.35183200  0.36066600  1
  H  H43  1  0.38343000  0.14816800  0.63933400  1
  H  H44  1  0.88343000  0.64816800  0.86066600  1
  H  H45  1  0.88343000  0.85183200  0.13933400  1
  H  H46  1  0.61657000  0.64816800  0.63933400  1
  H  H47  1  0.61657000  0.85183200  0.36066600  1
  O  O48  1  0.96058500  0.08498600  0.33300100  1
  O  O49  1  0.96058500  0.41501400  0.66699900  1
  O  O50  1  0.53941500  0.08498600  0.16699900  1
  O  O51  1  0.53941500  0.41501400  0.83300100  1
  O  O52  1  0.03941500  0.91501400  0.66699900  1
  O  O53  1  0.03941500  0.58498600  0.33300100  1
  O  O54  1  0.46058500  0.91501400  0.83300100  1
  O  O55  1  0.46058500  0.58498600  0.16699900  1
  O  O56  1  0.22600300  0.13518300  0.47326100  1
  O  O57  1  0.22600300  0.36481700  0.52673900  1
  O  O58  1  0.27399700  0.13518300  0.02673900  1
  O  O59  1  0.27399700  0.36481700  0.97326100  1
  O  O60  1  0.77399700  0.86481700  0.52673900  1
  O  O61  1  0.77399700  0.63518300  0.47326100  1
  O  O62  1  0.72600300  0.86481700  0.97326100  1
  O  O63  1  0.72600300  0.63518300  0.02673900  1
  O  O64  1  0.04681700  0.35055600  0.21036400  1
  O  O65  1  0.04681700  0.14944400  0.78963600  1
  O  O66  1  0.45318300  0.35055600  0.28963600  1
  O  O67  1  0.45318300  0.14944400  0.71036400  1
  O  O68  1  0.95318300  0.64944400  0.78963600  1
  O  O69  1  0.95318300  0.85055600  0.21036400  1
  O  O70  1  0.54681700  0.64944400  0.71036400  1
  O  O71  1  0.54681700  0.85055600  0.28963600  1
  O  O72  1  0.69133600  0.40333300  0.10686600  1
  O  O73  1  0.69133600  0.09666700  0.89313400  1
  O  O74  1  0.80866400  0.40333300  0.39313400  1
  O  O75  1  0.80866400  0.09666700  0.60686600  1
  O  O76  1  0.30866400  0.59666700  0.89313400  1
  O  O77  1  0.30866400  0.90333300  0.10686600  1
  O  O78  1  0.19133600  0.59666700  0.60686600  1
  O  O79  1  0.19133600  0.90333300  0.39313400  1
  O  O80  1  0.90276700  0.13244100  0.08887800  1
  O  O81  1  0.90276700  0.36755900  0.91112200  1
  O  O82  1  0.59723300  0.13244100  0.41112200  1
  O  O83  1  0.59723300  0.36755900  0.58887800  1
  O  O84  1  0.09723300  0.86755900  0.91112200  1
  O  O85  1  0.09723300  0.63244100  0.08887800  1
  O  O86  1  0.40276700  0.86755900  0.58887800  1
  O  O87  1  0.40276700  0.63244100  0.41112200  1
