# generated using pymatgen
data_Rb2NaAl6F21
_symmetry_space_group_name_H-M   'P 1'
_cell_length_a   12.25146200
_cell_length_b   7.08192800
_cell_length_c   10.35445545
_cell_angle_alpha   90.00000000
_cell_angle_beta   113.19331194
_cell_angle_gamma   90.00000000
_symmetry_Int_Tables_number   1
_chemical_formula_structural   Rb2NaAl6F21
_chemical_formula_sum   'Rb4 Na2 Al12 F42'
_cell_volume   825.78668661
_cell_formula_units_Z   2
loop_
 _symmetry_equiv_pos_site_id
 _symmetry_equiv_pos_as_xyz
  1  'x, y, z'
loop_
 _atom_site_type_symbol
 _atom_site_label
 _atom_site_symmetry_multiplicity
 _atom_site_fract_x
 _atom_site_fract_y
 _atom_site_fract_z
 _atom_site_occupancy
  Rb  Rb0  1  0.86446950  0.00136750  0.59350800  1
  Rb  Rb1  1  0.13553050  0.00136750  0.40649200  1
  Rb  Rb2  1  0.36446950  0.50136750  0.59350800  1
  Rb  Rb3  1  0.63553050  0.50136750  0.40649200  1
  Na  Na4  1  0.50000000  0.98592300  0.50000000  1
  Na  Na5  1  0.00000000  0.48592300  0.50000000  1
  Al  Al6  1  0.31434550  0.22911550  0.19212400  1
  Al  Al7  1  0.68565450  0.22911550  0.80787600  1
  Al  Al8  1  0.31247450  0.72852550  0.18998600  1
  Al  Al9  1  0.56377900  0.97534200  0.19076600  1
  Al  Al10  1  0.43622100  0.97534200  0.80923400  1
  Al  Al11  1  0.68752550  0.72852550  0.81001400  1
  Al  Al12  1  0.81434550  0.72911550  0.19212400  1
  Al  Al13  1  0.18565450  0.72911550  0.80787600  1
  Al  Al14  1  0.81247450  0.22852550  0.18998600  1
  Al  Al15  1  0.06377900  0.47534200  0.19076600  1
  Al  Al16  1  0.93622100  0.47534200  0.80923400  1
  Al  Al17  1  0.18752550  0.22852550  0.81001400  1
  F  F18  1  0.37655900  0.94365900  0.62487700  1
  F  F19  1  0.62344100  0.94365900  0.37512300  1
  F  F20  1  0.67209650  0.16216750  0.20394200  1
  F  F21  1  0.32790350  0.16216750  0.79605800  1
  F  F22  1  0.33696150  0.79333450  0.82888500  1
  F  F23  1  0.26486100  0.22227400  0.00071400  1
  F  F24  1  0.45033000  0.79326300  0.16870000  1
  F  F25  1  0.63372150  0.22910550  0.62203600  1
  F  F26  1  0.14603150  0.97841450  0.81191700  1
  F  F27  1  0.27047800  0.97906600  0.18605100  1
  F  F28  1  0.54967000  0.79326300  0.83130000  1
  F  F29  1  0.50000000  0.00727900  0.00000000  1
  F  F30  1  0.38529650  0.73559150  0.37441300  1
  F  F31  1  0.53615300  0.16192300  0.79481300  1
  F  F32  1  0.36627850  0.22910550  0.37796400  1
  F  F33  1  0.72952200  0.97906600  0.81394900  1
  F  F34  1  0.66303850  0.79333450  0.17111500  1
  F  F35  1  0.46384700  0.16192300  0.20518700  1
  F  F36  1  0.85396850  0.97841450  0.18808300  1
  F  F37  1  0.73513900  0.22227400  0.99928600  1
  F  F38  1  0.61470350  0.73559150  0.62558700  1
  F  F39  1  0.87655900  0.44365900  0.62487700  1
  F  F40  1  0.12344100  0.44365900  0.37512300  1
  F  F41  1  0.17209650  0.66216750  0.20394200  1
  F  F42  1  0.82790350  0.66216750  0.79605800  1
  F  F43  1  0.83696150  0.29333450  0.82888500  1
  F  F44  1  0.76486100  0.72227400  0.00071400  1
  F  F45  1  0.95033000  0.29326300  0.16870000  1
  F  F46  1  0.13372150  0.72910550  0.62203600  1
  F  F47  1  0.64603150  0.47841450  0.81191700  1
  F  F48  1  0.77047800  0.47906600  0.18605100  1
  F  F49  1  0.04967000  0.29326300  0.83130000  1
  F  F50  1  0.00000000  0.50727900  0.00000000  1
  F  F51  1  0.88529650  0.23559150  0.37441300  1
  F  F52  1  0.03615300  0.66192300  0.79481300  1
  F  F53  1  0.86627850  0.72910550  0.37796400  1
  F  F54  1  0.22952200  0.47906600  0.81394900  1
  F  F55  1  0.16303850  0.29333450  0.17111500  1
  F  F56  1  0.96384700  0.66192300  0.20518700  1
  F  F57  1  0.35396850  0.47841450  0.18808300  1
  F  F58  1  0.23513900  0.72227400  0.99928600  1
  F  F59  1  0.11470350  0.23559150  0.62558700  1
