# generated using pymatgen
data_Ba5Ta4O15
_symmetry_space_group_name_H-M   'P 1'
_cell_length_a   5.86229887
_cell_length_b   5.86229887
_cell_length_c   11.98143000
_cell_angle_alpha   90.00000000
_cell_angle_beta   90.00000000
_cell_angle_gamma   120.00000000
_symmetry_Int_Tables_number   1
_chemical_formula_structural   Ba5Ta4O15
_chemical_formula_sum   'Ba5 Ta4 O15'
_cell_volume   356.59495805
_cell_formula_units_Z   1
loop_
 _symmetry_equiv_pos_site_id
 _symmetry_equiv_pos_as_xyz
  1  'x, y, z'
loop_
 _atom_site_type_symbol
 _atom_site_label
 _atom_site_symmetry_multiplicity
 _atom_site_fract_x
 _atom_site_fract_y
 _atom_site_fract_z
 _atom_site_occupancy
  Ba  Ba0  1  0.33333333  0.66666667  0.78800500  1
  Ba  Ba1  1  0.00000000  0.00000000  0.00000000  1
  Ba  Ba2  1  0.66666667  0.33333333  0.56891500  1
  Ba  Ba3  1  0.33333333  0.66666667  0.43108500  1
  Ba  Ba4  1  0.66666667  0.33333333  0.21199500  1
  Ta  Ta5  1  0.66666667  0.33333333  0.89643200  1
  Ta  Ta6  1  0.33333333  0.66666667  0.10356800  1
  Ta  Ta7  1  0.00000000  0.00000000  0.68639200  1
  Ta  Ta8  1  0.00000000  0.00000000  0.31360800  1
  O  O9  1  0.32576000  0.16288000  0.38628000  1
  O  O10  1  0.83064150  0.66128300  0.80921400  1
  O  O11  1  0.83712000  0.16288000  0.38628000  1
  O  O12  1  0.83064150  0.16935850  0.80921400  1
  O  O13  1  0.16288000  0.32576000  0.61372000  1
  O  O14  1  0.50000000  0.50000000  0.00000000  1
  O  O15  1  0.00000000  0.50000000  0.00000000  1
  O  O16  1  0.83712000  0.67424000  0.38628000  1
  O  O17  1  0.50000000  0.00000000  0.00000000  1
  O  O18  1  0.66128300  0.83064150  0.19078600  1
  O  O19  1  0.33871700  0.16935850  0.80921400  1
  O  O20  1  0.16935850  0.83064150  0.19078600  1
  O  O21  1  0.16935850  0.33871700  0.19078600  1
  O  O22  1  0.16288000  0.83712000  0.61372000  1
  O  O23  1  0.67424000  0.83712000  0.61372000  1
