# generated using pymatgen
data_Nd5As2ClO10
_symmetry_space_group_name_H-M   'P 1'
_cell_length_a   12.53444000
_cell_length_b   5.74219000
_cell_length_c   9.11672837
_cell_angle_alpha   90.00000000
_cell_angle_beta   116.25453487
_cell_angle_gamma   90.00000000
_symmetry_Int_Tables_number   1
_chemical_formula_structural   Nd5As2ClO10
_chemical_formula_sum   'Nd10 As4 Cl2 O20'
_cell_volume   588.48497851
_cell_formula_units_Z   2
loop_
 _symmetry_equiv_pos_site_id
 _symmetry_equiv_pos_as_xyz
  1  'x, y, z'
loop_
 _atom_site_type_symbol
 _atom_site_label
 _atom_site_symmetry_multiplicity
 _atom_site_fract_x
 _atom_site_fract_y
 _atom_site_fract_z
 _atom_site_occupancy
  Nd  Nd0  1  0.00033800  0.50000000  0.70802200  1
  Nd  Nd1  1  0.25358600  0.00000000  0.87241200  1
  Nd  Nd2  1  0.00000000  0.00000000  0.00000000  1
  Nd  Nd3  1  0.74641400  0.00000000  0.12758800  1
  Nd  Nd4  1  0.99966200  0.50000000  0.29197800  1
  Nd  Nd5  1  0.50033800  0.00000000  0.70802200  1
  Nd  Nd6  1  0.75358600  0.50000000  0.87241200  1
  Nd  Nd7  1  0.50000000  0.50000000  0.00000000  1
  Nd  Nd8  1  0.24641400  0.50000000  0.12758800  1
  Nd  Nd9  1  0.49966200  0.00000000  0.29197800  1
  As  As10  1  0.71494700  0.50000000  0.39260400  1
  As  As11  1  0.28505300  0.50000000  0.60739600  1
  As  As12  1  0.21494700  0.00000000  0.39260400  1
  As  As13  1  0.78505300  0.00000000  0.60739600  1
  Cl  Cl14  1  0.00000000  0.00000000  0.50000000  1
  Cl  Cl15  1  0.50000000  0.50000000  0.50000000  1
  O  O16  1  0.12046050  0.25355650  0.91584300  1
  O  O17  1  0.64125900  0.73559200  0.24672000  1
  O  O18  1  0.86019400  0.50000000  0.39927900  1
  O  O19  1  0.13980600  0.50000000  0.60072100  1
  O  O20  1  0.12046050  0.74644350  0.91584300  1
  O  O21  1  0.87953950  0.25355650  0.08415700  1
  O  O22  1  0.64125900  0.26440800  0.24672000  1
  O  O23  1  0.87953950  0.74644350  0.08415700  1
  O  O24  1  0.35874100  0.73559200  0.75328000  1
  O  O25  1  0.35874100  0.26440800  0.75328000  1
  O  O26  1  0.62046050  0.75355650  0.91584300  1
  O  O27  1  0.14125900  0.23559200  0.24672000  1
  O  O28  1  0.36019400  0.00000000  0.39927900  1
  O  O29  1  0.63980600  0.00000000  0.60072100  1
  O  O30  1  0.62046050  0.24644350  0.91584300  1
  O  O31  1  0.37953950  0.75355650  0.08415700  1
  O  O32  1  0.14125900  0.76440800  0.24672000  1
  O  O33  1  0.37953950  0.24644350  0.08415700  1
  O  O34  1  0.85874100  0.23559200  0.75328000  1
  O  O35  1  0.85874100  0.76440800  0.75328000  1
