# generated using pymatgen
data_TiSO5
_symmetry_space_group_name_H-M   'P 1'
_cell_length_a   5.20218800
_cell_length_b   13.94560800
_cell_length_c   9.60813408
_cell_angle_alpha   90.00000000
_cell_angle_beta   90.22950851
_cell_angle_gamma   90.00000000
_symmetry_Int_Tables_number   1
_chemical_formula_structural   TiSO5
_chemical_formula_sum   'Ti8 S8 O40'
_cell_volume   697.04219268
_cell_formula_units_Z   8
loop_
 _symmetry_equiv_pos_site_id
 _symmetry_equiv_pos_as_xyz
  1  'x, y, z'
loop_
 _atom_site_type_symbol
 _atom_site_label
 _atom_site_symmetry_multiplicity
 _atom_site_fract_x
 _atom_site_fract_y
 _atom_site_fract_z
 _atom_site_occupancy
  Ti  Ti0  1  0.50000000  0.91139200  0.75000000  1
  Ti  Ti1  1  0.00000000  0.58860800  0.25000000  1
  Ti  Ti2  1  0.75000000  0.75000000  0.00000000  1
  Ti  Ti3  1  0.25000000  0.75000000  0.50000000  1
  Ti  Ti4  1  0.00000000  0.41139200  0.75000000  1
  Ti  Ti5  1  0.50000000  0.08860800  0.25000000  1
  Ti  Ti6  1  0.25000000  0.25000000  0.00000000  1
  Ti  Ti7  1  0.75000000  0.25000000  0.50000000  1
  S  S8  1  0.24819850  0.60828550  0.93433800  1
  S  S9  1  0.75180150  0.60828550  0.56566200  1
  S  S10  1  0.25180150  0.89171450  0.06566200  1
  S  S11  1  0.74819850  0.89171450  0.43433800  1
  S  S12  1  0.74819850  0.10828550  0.93433800  1
  S  S13  1  0.25180150  0.10828550  0.56566200  1
  S  S14  1  0.75180150  0.39171450  0.06566200  1
  S  S15  1  0.24819850  0.39171450  0.43433800  1
  O  O16  1  0.49426000  0.65237400  0.58301600  1
  O  O17  1  0.50574000  0.65237400  0.91698400  1
  O  O18  1  0.00574000  0.84762600  0.41698400  1
  O  O19  1  0.99426000  0.84762600  0.08301600  1
  O  O20  1  0.27501650  0.92979550  0.92115300  1
  O  O21  1  0.72498350  0.92979550  0.57884700  1
  O  O22  1  0.22498350  0.57020450  0.07884700  1
  O  O23  1  0.77501650  0.57020450  0.42115300  1
  O  O24  1  0.22138150  0.53208850  0.83176100  1
  O  O25  1  0.77861850  0.53208850  0.66823900  1
  O  O26  1  0.27861850  0.96791150  0.16823900  1
  O  O27  1  0.72138150  0.96791150  0.33176100  1
  O  O28  1  0.30144150  0.82902950  0.65619600  1
  O  O29  1  0.69855850  0.82902950  0.84380400  1
  O  O30  1  0.19855850  0.67097050  0.34380400  1
  O  O31  1  0.80144150  0.67097050  0.15619600  1
  O  O32  1  0.04926750  0.68470650  0.90962900  1
  O  O33  1  0.95073250  0.68470650  0.59037100  1
  O  O34  1  0.45073250  0.81529350  0.09037100  1
  O  O35  1  0.54926750  0.81529350  0.40962900  1
  O  O36  1  0.99426000  0.15237400  0.58301600  1
  O  O37  1  0.00574000  0.15237400  0.91698400  1
  O  O38  1  0.50574000  0.34762600  0.41698400  1
  O  O39  1  0.49426000  0.34762600  0.08301600  1
  O  O40  1  0.77501650  0.42979550  0.92115300  1
  O  O41  1  0.22498350  0.42979550  0.57884700  1
  O  O42  1  0.72498350  0.07020450  0.07884700  1
  O  O43  1  0.27501650  0.07020450  0.42115300  1
  O  O44  1  0.72138150  0.03208850  0.83176100  1
  O  O45  1  0.27861850  0.03208850  0.66823900  1
  O  O46  1  0.77861850  0.46791150  0.16823900  1
  O  O47  1  0.22138150  0.46791150  0.33176100  1
  O  O48  1  0.80144150  0.32902950  0.65619600  1
  O  O49  1  0.19855850  0.32902950  0.84380400  1
  O  O50  1  0.69855850  0.17097050  0.34380400  1
  O  O51  1  0.30144150  0.17097050  0.15619600  1
  O  O52  1  0.54926750  0.18470650  0.90962900  1
  O  O53  1  0.45073250  0.18470650  0.59037100  1
  O  O54  1  0.95073250  0.31529350  0.09037100  1
  O  O55  1  0.04926750  0.31529350  0.40962900  1
