# generated using pymatgen
data_ZnTe6O13
_symmetry_space_group_name_H-M   'P 1'
_cell_length_a   10.32390383
_cell_length_b   10.32390383
_cell_length_c   19.41720899
_cell_angle_alpha   90.00000000
_cell_angle_beta   90.00000000
_cell_angle_gamma   120.00000000
_symmetry_Int_Tables_number   1
_chemical_formula_structural   ZnTe6O13
_chemical_formula_sum   'Zn6 Te36 O78'
_cell_volume   1792.27784904
_cell_formula_units_Z   6
loop_
 _symmetry_equiv_pos_site_id
 _symmetry_equiv_pos_as_xyz
  1  'x, y, z'
loop_
 _atom_site_type_symbol
 _atom_site_label
 _atom_site_symmetry_multiplicity
 _atom_site_fract_x
 _atom_site_fract_y
 _atom_site_fract_z
 _atom_site_occupancy
  Zn  Zn0  1  0.33333333  0.66666667  0.40930967  1
  Zn  Zn1  1  0.33333333  0.66666667  0.92402367  1
  Zn  Zn2  1  0.00000000  0.00000000  0.74264300  1
  Zn  Zn3  1  0.00000000  0.00000000  0.25735700  1
  Zn  Zn4  1  0.66666667  0.33333333  0.07597633  1
  Zn  Zn5  1  0.66666667  0.33333333  0.59069033  1
  Te  Te6  1  0.91648433  0.15462467  0.09562067  1
  Te  Te7  1  0.23814033  0.08351567  0.09562067  1
  Te  Te8  1  0.75018233  0.17870867  0.23771267  1
  Te  Te9  1  0.39472333  0.49577467  0.07446767  1
  Te  Te10  1  0.82129133  0.57147367  0.23771267  1
  Te  Te11  1  0.84537533  0.76185967  0.09562067  1
  Te  Te12  1  0.42852633  0.24981767  0.23771267  1
  Te  Te13  1  0.56561533  0.72805667  0.25886567  1
  Te  Te14  1  0.16244133  0.43438467  0.25886567  1
  Te  Te15  1  0.50422533  0.89894867  0.07446767  1
  Te  Te16  1  0.27194333  0.83755867  0.25886567  1
  Te  Te17  1  0.10105133  0.60527667  0.07446767  1
  Te  Te18  1  0.58315100  0.48795800  0.42895400  1
  Te  Te19  1  0.90480700  0.41684900  0.42895400  1
  Te  Te20  1  0.41684900  0.51204200  0.57104600  1
  Te  Te21  1  0.06139000  0.82910800  0.40780100  1
  Te  Te22  1  0.48795800  0.90480700  0.57104600  1
  Te  Te23  1  0.51204200  0.09519300  0.42895400  1
  Te  Te24  1  0.09519300  0.58315100  0.57104600  1
  Te  Te25  1  0.23228200  0.06139000  0.59219900  1
  Te  Te26  1  0.82910800  0.76771800  0.59219900  1
  Te  Te27  1  0.17089200  0.23228200  0.40780100  1
  Te  Te28  1  0.93861000  0.17089200  0.59219900  1
  Te  Te29  1  0.76771800  0.93861000  0.40780100  1
  Te  Te30  1  0.24981767  0.82129133  0.76228733  1
  Te  Te31  1  0.57147367  0.75018233  0.76228733  1
  Te  Te32  1  0.08351567  0.84537533  0.90437933  1
  Te  Te33  1  0.72805667  0.16244133  0.74113433  1
  Te  Te34  1  0.15462467  0.23814033  0.90437933  1
  Te  Te35  1  0.17870867  0.42852633  0.76228733  1
  Te  Te36  1  0.76185967  0.91648433  0.90437933  1
  Te  Te37  1  0.89894867  0.39472333  0.92553233  1
  Te  Te38  1  0.49577467  0.10105133  0.92553233  1
  Te  Te39  1  0.83755867  0.56561533  0.74113433  1
  Te  Te40  1  0.60527667  0.50422533  0.92553233  1
  Te  Te41  1  0.43438467  0.27194333  0.74113433  1
  O  O42  1  0.46385867  0.85170833  0.23744633  1
  O  O43  1  0.51837500  0.72118300  0.09588700  1
  O  O44  1  0.33333333  0.66666667  0.75417067  1
  O  O45  1  0.38784967  0.53614133  0.23744633  1
  O  O46  1  0.41523967  0.08062533  0.28162033  1
  O  O47  1  0.47727300  0.86248900  0.97847800  1
  O  O48  1  0.42327467  0.87118733  0.47384333  1
  O  O49  1  0.53785400  0.78124600  0.85949000  1
  O  O50  1  0.28145067  0.81060633  0.35485533  1
  O  O51  1  0.13751100  0.61478400  0.97847800  1
  O  O52  1  0.44791267  0.57672533  0.47384333  1
  O  O53  1  0.14829167  0.61215033  0.23744633  1
  O  O54  1  0.25142700  0.25270800  0.05171300  1
  O  O55  1  0.18939367  0.47084433  0.35485533  1
  O  O56  1  0.52915567  0.71854933  0.35485533  1
  O  O57  1  0.33333333  0.66666667  0.57916267  1
  O  O58  1  0.27881700  0.79719200  0.09588700  1
  O  O59  1  0.20280800  0.48162500  0.09588700  1
  O  O60  1  0.91937467  0.33461433  0.28162033  1
  O  O61  1  0.38521600  0.52272700  0.97847800  1
  O  O62  1  0.21875400  0.75660800  0.85949000  1
  O  O63  1  0.00128100  0.74857300  0.05171300  1
  O  O64  1  0.12881267  0.55208733  0.47384333  1
  O  O65  1  0.66538567  0.58476033  0.28162033  1
  O  O66  1  0.74729200  0.99871900  0.05171300  1
  O  O67  1  0.24339200  0.46214600  0.85949000  1
  O  O68  1  0.13052533  0.18504167  0.57077967  1
  O  O69  1  0.18504167  0.05451633  0.42922033  1
  O  O70  1  0.00000000  0.00000000  0.08750400  1
  O  O71  1  0.05451633  0.86947467  0.57077967  1
  O  O72  1  0.08190633  0.41395867  0.61495367  1
  O  O73  1  0.14393967  0.19582233  0.31181133  1
  O  O74  1  0.08994133  0.20452067  0.80717667  1
  O  O75  1  0.20452067  0.11457933  0.19282333  1
  O  O76  1  0.94811733  0.14393967  0.68818867  1
  O  O77  1  0.80417767  0.94811733  0.31181133  1
  O  O78  1  0.11457933  0.91005867  0.80717667  1
  O  O79  1  0.81495833  0.94548367  0.57077967  1
  O  O80  1  0.91809367  0.58604133  0.38504633  1
  O  O81  1  0.85606033  0.80417767  0.68818867  1
  O  O82  1  0.19582233  0.05188267  0.68818867  1
  O  O83  1  0.00000000  0.00000000  0.91249600  1
  O  O84  1  0.94548367  0.13052533  0.42922033  1
  O  O85  1  0.86947467  0.81495833  0.42922033  1
  O  O86  1  0.58604133  0.66794767  0.61495367  1
  O  O87  1  0.05188267  0.85606033  0.31181133  1
  O  O88  1  0.88542067  0.08994133  0.19282333  1
  O  O89  1  0.66794767  0.08190633  0.38504633  1
  O  O90  1  0.79547933  0.88542067  0.80717667  1
  O  O91  1  0.33205233  0.91809367  0.61495367  1
  O  O92  1  0.41395867  0.33205233  0.38504633  1
  O  O93  1  0.91005867  0.79547933  0.19282333  1
  O  O94  1  0.79719200  0.51837500  0.90411300  1
  O  O95  1  0.85170833  0.38784967  0.76255367  1
  O  O96  1  0.66666667  0.33333333  0.42083733  1
  O  O97  1  0.72118300  0.20280800  0.90411300  1
  O  O98  1  0.74857300  0.74729200  0.94828700  1
  O  O99  1  0.81060633  0.52915567  0.64514467  1
  O  O100  1  0.75660800  0.53785400  0.14051000  1
  O  O101  1  0.87118733  0.44791267  0.52615667  1
  O  O102  1  0.61478400  0.47727300  0.02152200  1
  O  O103  1  0.47084433  0.28145067  0.64514467  1
  O  O104  1  0.78124600  0.24339200  0.14051000  1
  O  O105  1  0.48162500  0.27881700  0.90411300  1
  O  O106  1  0.58476033  0.91937467  0.71837967  1
  O  O107  1  0.52272700  0.13751100  0.02152200  1
  O  O108  1  0.86248900  0.38521600  0.02152200  1
  O  O109  1  0.66666667  0.33333333  0.24582933  1
  O  O110  1  0.61215033  0.46385867  0.76255367  1
  O  O111  1  0.53614133  0.14829167  0.76255367  1
  O  O112  1  0.25270800  0.00128100  0.94828700  1
  O  O113  1  0.71854933  0.18939367  0.64514467  1
  O  O114  1  0.55208733  0.42327467  0.52615667  1
  O  O115  1  0.33461433  0.41523967  0.71837967  1
  O  O116  1  0.46214600  0.21875400  0.14051000  1
  O  O117  1  0.99871900  0.25142700  0.94828700  1
  O  O118  1  0.08062533  0.66538567  0.71837967  1
  O  O119  1  0.57672533  0.12881267  0.52615667  1
