# generated using pymatgen
data_K2SeO4
_symmetry_space_group_name_H-M   'P 1'
_cell_length_a   6.16893000
_cell_length_b   7.82292500
_cell_length_c   10.62672700
_cell_angle_alpha   90.00000000
_cell_angle_beta   90.00000000
_cell_angle_gamma   90.00000000
_symmetry_Int_Tables_number   1
_chemical_formula_structural   K2SeO4
_chemical_formula_sum   'K8 Se4 O16'
_cell_volume   512.83603358
_cell_formula_units_Z   4
loop_
 _symmetry_equiv_pos_site_id
 _symmetry_equiv_pos_as_xyz
  1  'x, y, z'
loop_
 _atom_site_type_symbol
 _atom_site_label
 _atom_site_symmetry_multiplicity
 _atom_site_fract_x
 _atom_site_fract_y
 _atom_site_fract_z
 _atom_site_occupancy
  K  K0  1  0.25000000  0.49214300  0.79313600  1
  K  K1  1  0.75000000  0.50785700  0.20686400  1
  K  K2  1  0.25000000  0.99214300  0.70686400  1
  K  K3  1  0.75000000  0.00785700  0.29313600  1
  K  K4  1  0.25000000  0.32768100  0.42643100  1
  K  K5  1  0.75000000  0.67231900  0.57356900  1
  K  K6  1  0.25000000  0.82768100  0.07356900  1
  K  K7  1  0.75000000  0.17231900  0.92643100  1
  Se  Se8  1  0.25000000  0.28082100  0.08698500  1
  Se  Se9  1  0.75000000  0.71917900  0.91301500  1
  Se  Se10  1  0.25000000  0.78082100  0.41301500  1
  Se  Se11  1  0.75000000  0.21917900  0.58698500  1
  O  O12  1  0.25000000  0.49066500  0.06068700  1
  O  O13  1  0.75000000  0.50933500  0.93931300  1
  O  O14  1  0.25000000  0.99066500  0.43931300  1
  O  O15  1  0.75000000  0.00933500  0.56068700  1
  O  O16  1  0.25000000  0.17306200  0.94953100  1
  O  O17  1  0.75000000  0.82693800  0.05046900  1
  O  O18  1  0.25000000  0.67306200  0.55046900  1
  O  O19  1  0.75000000  0.32693800  0.44953100  1
  O  O20  1  0.97218000  0.77469300  0.83140300  1
  O  O21  1  0.47218000  0.22530700  0.16859700  1
  O  O22  1  0.52782000  0.27469300  0.66859700  1
  O  O23  1  0.02782000  0.72530700  0.33140300  1
  O  O24  1  0.97218000  0.27469300  0.66859700  1
  O  O25  1  0.47218000  0.72530700  0.33140300  1
  O  O26  1  0.52782000  0.77469300  0.83140300  1
  O  O27  1  0.02782000  0.22530700  0.16859700  1
