# generated using pymatgen
data_Zr(PO3)4
_symmetry_space_group_name_H-M   'P 1'
_cell_length_a   13.69200400
_cell_length_b   29.31371000
_cell_length_c   8.81719659
_cell_angle_alpha   90.00000000
_cell_angle_beta   90.03438190
_cell_angle_gamma   90.00000000
_symmetry_Int_Tables_number   1
_chemical_formula_structural   Zr(PO3)4
_chemical_formula_sum   'Zr16 P64 O192'
_cell_volume   3538.89966852
_cell_formula_units_Z   16
loop_
 _symmetry_equiv_pos_site_id
 _symmetry_equiv_pos_as_xyz
  1  'x, y, z'
loop_
 _atom_site_type_symbol
 _atom_site_label
 _atom_site_symmetry_multiplicity
 _atom_site_fract_x
 _atom_site_fract_y
 _atom_site_fract_z
 _atom_site_occupancy
  Zr  Zr0  1  0.23303150  0.31814050  0.24938400  1
  Zr  Zr1  1  0.76696850  0.31814050  0.25061600  1
  Zr  Zr2  1  0.00000000  0.06777500  0.25000000  1
  Zr  Zr3  1  0.50000000  0.06923200  0.25000000  1
  Zr  Zr4  1  0.50000000  0.43222500  0.75000000  1
  Zr  Zr5  1  0.73303150  0.18185950  0.74938400  1
  Zr  Zr6  1  0.00000000  0.43076800  0.75000000  1
  Zr  Zr7  1  0.26696850  0.18185950  0.75061600  1
  Zr  Zr8  1  0.73303150  0.81814050  0.24938400  1
  Zr  Zr9  1  0.26696850  0.81814050  0.25061600  1
  Zr  Zr10  1  0.50000000  0.56777500  0.25000000  1
  Zr  Zr11  1  0.00000000  0.56923200  0.25000000  1
  Zr  Zr12  1  0.00000000  0.93222500  0.75000000  1
  Zr  Zr13  1  0.23303150  0.68185950  0.74938400  1
  Zr  Zr14  1  0.50000000  0.93076800  0.75000000  1
  Zr  Zr15  1  0.76696850  0.68185950  0.75061600  1
  P  P16  1  0.10740250  0.23926250  0.49581400  1
  P  P17  1  0.58265500  0.39939800  0.36588100  1
  P  P18  1  0.63957150  0.48805350  0.47489600  1
  P  P19  1  0.61016200  0.24289500  0.47293300  1
  P  P20  1  0.67313250  0.34765050  0.87175600  1
  P  P21  1  0.35651750  0.00689350  0.51079600  1
  P  P22  1  0.11016200  0.25710500  0.97293300  1
  P  P23  1  0.82686750  0.15234950  0.12824400  1
  P  P24  1  0.33093000  0.15450200  0.13620800  1
  P  P25  1  0.32686750  0.34765050  0.62824400  1
  P  P26  1  0.17313250  0.15234950  0.37175600  1
  P  P27  1  0.89259750  0.23926250  0.00418600  1
  P  P28  1  0.08265500  0.10060200  0.86588100  1
  P  P29  1  0.41734500  0.39939800  0.13411900  1
  P  P30  1  0.39259750  0.26073750  0.50418600  1
  P  P31  1  0.36042850  0.48805350  0.02510400  1
  P  P32  1  0.91734500  0.10060200  0.63411900  1
  P  P33  1  0.14348250  0.49310650  0.48920400  1
  P  P34  1  0.38983800  0.24289500  0.02706700  1
  P  P35  1  0.42496050  0.09268550  0.63139900  1
  P  P36  1  0.66907000  0.15450200  0.36379200  1
  P  P37  1  0.64348250  0.00689350  0.98920400  1
  P  P38  1  0.60740250  0.26073750  0.99581400  1
  P  P39  1  0.13957150  0.01194650  0.97489600  1
  P  P40  1  0.88983800  0.25710500  0.52706700  1
  P  P41  1  0.85651750  0.49310650  0.01079600  1
  P  P42  1  0.92496050  0.40731450  0.13139900  1
  P  P43  1  0.07503950  0.40731450  0.36860100  1
  P  P44  1  0.86042850  0.01194650  0.52510400  1
  P  P45  1  0.16907000  0.34549800  0.86379200  1
  P  P46  1  0.57503950  0.09268550  0.86860100  1
  P  P47  1  0.83093000  0.34549800  0.63620800  1
  P  P48  1  0.60740250  0.73926250  0.49581400  1
  P  P49  1  0.08265500  0.89939800  0.36588100  1
  P  P50  1  0.13957150  0.98805350  0.47489600  1
  P  P51  1  0.11016200  0.74289500  0.47293300  1
  P  P52  1  0.17313250  0.84765050  0.87175600  1
  P  P53  1  0.85651750  0.50689350  0.51079600  1
  P  P54  1  0.61016200  0.75710500  0.97293300  1
  P  P55  1  0.32686750  0.65234950  0.12824400  1
  P  P56  1  0.83093000  0.65450200  0.13620800  1
  P  P57  1  0.82686750  0.84765050  0.62824400  1
  P  P58  1  0.67313250  0.65234950  0.37175600  1
  P  P59  1  0.39259750  0.73926250  0.00418600  1
  P  P60  1  0.58265500  0.60060200  0.86588100  1
  P  P61  1  0.91734500  0.89939800  0.13411900  1
  P  P62  1  0.89259750  0.76073750  0.50418600  1
  P  P63  1  0.86042850  0.98805350  0.02510400  1
  P  P64  1  0.41734500  0.60060200  0.63411900  1
  P  P65  1  0.64348250  0.99310650  0.48920400  1
  P  P66  1  0.88983800  0.74289500  0.02706700  1
  P  P67  1  0.92496050  0.59268550  0.63139900  1
  P  P68  1  0.16907000  0.65450200  0.36379200  1
  P  P69  1  0.14348250  0.50689350  0.98920400  1
  P  P70  1  0.10740250  0.76073750  0.99581400  1
  P  P71  1  0.63957150  0.51194650  0.97489600  1
  P  P72  1  0.38983800  0.75710500  0.52706700  1
  P  P73  1  0.35651750  0.99310650  0.01079600  1
  P  P74  1  0.42496050  0.90731450  0.13139900  1
  P  P75  1  0.57503950  0.90731450  0.36860100  1
  P  P76  1  0.36042850  0.51194650  0.52510400  1
  P  P77  1  0.66907000  0.84549800  0.86379200  1
  P  P78  1  0.07503950  0.59268550  0.86860100  1
  P  P79  1  0.33093000  0.84549800  0.63620800  1
  O  O80  1  0.50000000  0.41431000  0.25000000  1
  O  O81  1  0.87707900  0.02902000  0.36843400  1
  O  O82  1  0.62081300  0.03569200  0.40677700  1
  O  O83  1  0.35038500  0.05070100  0.62130500  1
  O  O84  1  0.75789550  0.17125750  0.26283300  1
  O  O85  1  0.22909150  0.14660650  0.51563600  1
  O  O86  1  0.50342650  0.26301150  0.44700200  1
  O  O87  1  0.62480200  0.22530400  0.63208300  1
  O  O88  1  0.85131050  0.05515450  0.64085300  1
  O  O89  1  0.87339950  0.36880150  0.20752700  1
  O  O90  1  0.87918700  0.46430800  0.59322300  1
  O  O91  1  0.54084900  0.39277400  0.52091300  1
  O  O92  1  0.64263550  0.36251150  0.29215100  1
  O  O93  1  0.42862800  0.47674500  0.58726200  1
  O  O94  1  0.18054500  0.22203200  0.91933000  1
  O  O95  1  0.92862800  0.02325500  0.08726200  1
  O  O96  1  0.04084900  0.10722600  0.02091300  1
  O  O97  1  0.45915100  0.39277400  0.97908700  1
  O  O98  1  0.60242050  0.30383750  0.88162700  1
  O  O99  1  0.37707900  0.47098000  0.86843400  1
  O  O100  1  0.10242050  0.19616250  0.38162700  1
  O  O101  1  0.74677500  0.49284000  0.95139700  1
  O  O102  1  0.67099300  0.27312200  0.12957500  1
  O  O103  1  0.68054500  0.27796800  0.41933000  1
  O  O104  1  0.17099300  0.22687800  0.62957500  1
  O  O105  1  0.81945500  0.22203200  0.58067000  1
  O  O106  1  0.07920250  0.48112450  0.62442100  1
  O  O107  1  0.39757950  0.30383750  0.61837300  1
  O  O108  1  0.89757950  0.19616250  0.11837300  1
  O  O109  1  0.77090850  0.14660650  0.98436400  1
  O  O110  1  0.37339950  0.13119850  0.70752700  1
  O  O111  1  0.12292100  0.02902000  0.13156600  1
  O  O112  1  0.07137200  0.02325500  0.41273800  1
  O  O113  1  0.24210450  0.17125750  0.23716700  1
  O  O114  1  0.62292100  0.47098000  0.63156600  1
  O  O115  1  0.87519800  0.27469600  0.36791700  1
  O  O116  1  0.60282300  0.20006400  0.35901900  1
  O  O117  1  0.82900700  0.22687800  0.87042500  1
  O  O118  1  0.57920250  0.01887550  0.12442100  1
  O  O119  1  0.13077750  0.28296050  0.41732000  1
  O  O120  1  0.39717700  0.20006400  0.14098100  1
  O  O121  1  0.70299650  0.14589250  0.52309200  1
  O  O122  1  0.88318050  0.11329650  0.19002500  1
  O  O123  1  0.37918700  0.03569200  0.09322300  1
  O  O124  1  0.12480200  0.27469600  0.13208300  1
  O  O125  1  0.85736450  0.13748850  0.70784900  1
  O  O126  1  0.62660050  0.13119850  0.79247300  1
  O  O127  1  0.14868950  0.05515450  0.85914700  1
  O  O128  1  0.25322500  0.49284000  0.54860300  1
  O  O129  1  0.24677500  0.00716000  0.45139700  1
  O  O130  1  0.64868950  0.44484550  0.35914700  1
  O  O131  1  0.47450650  0.10063850  0.48279600  1
  O  O132  1  0.88577000  0.38161800  0.72441100  1
  O  O133  1  0.00000000  0.42877400  0.25000000  1
  O  O134  1  0.35736450  0.36251150  0.20784900  1
  O  O135  1  0.14263550  0.13748850  0.79215100  1
  O  O136  1  0.61681950  0.38670350  0.80997500  1
  O  O137  1  0.25789550  0.32874250  0.76283300  1
  O  O138  1  0.11681950  0.11329650  0.30997500  1
  O  O139  1  0.72909150  0.35339350  0.01563600  1
  O  O140  1  0.31945500  0.27796800  0.08067000  1
  O  O141  1  0.10282300  0.29993600  0.85901900  1
  O  O142  1  0.49657350  0.26301150  0.05299800  1
  O  O143  1  0.79700350  0.35410750  0.47690800  1
  O  O144  1  0.97450650  0.39936150  0.98279600  1
  O  O145  1  0.36922250  0.21703950  0.58268000  1
  O  O146  1  0.64961500  0.05070100  0.87869500  1
  O  O147  1  0.99657350  0.23698850  0.55299800  1
  O  O148  1  0.38318050  0.38670350  0.69002500  1
  O  O149  1  0.50000000  0.07122600  0.75000000  1
  O  O150  1  0.32900700  0.27312200  0.37042500  1
  O  O151  1  0.95915100  0.10722600  0.47908700  1
  O  O152  1  0.00342650  0.23698850  0.94700200  1
  O  O153  1  0.11423000  0.38161800  0.77558900  1
  O  O154  1  0.12081300  0.46430800  0.90677700  1
  O  O155  1  0.02549350  0.39936150  0.51720400  1
  O  O156  1  0.52549350  0.10063850  0.01720400  1
  O  O157  1  0.61423000  0.11838200  0.27558900  1
  O  O158  1  0.63077750  0.21703950  0.91732000  1
  O  O159  1  0.29700350  0.14589250  0.97690800  1
  O  O160  1  0.75322500  0.00716000  0.04860300  1
  O  O161  1  0.86922250  0.28296050  0.08268000  1
  O  O162  1  0.74210450  0.32874250  0.73716700  1
  O  O163  1  0.14961500  0.44929900  0.37869500  1
  O  O164  1  0.38577000  0.11838200  0.22441100  1
  O  O165  1  0.37519800  0.22530400  0.86791700  1
  O  O166  1  0.42079750  0.01887550  0.37557900  1
  O  O167  1  0.89717700  0.29993600  0.64098100  1
  O  O168  1  0.57137200  0.47674500  0.91273800  1
  O  O169  1  0.35131050  0.44484550  0.14085300  1
  O  O170  1  0.12660050  0.36880150  0.29247300  1
  O  O171  1  0.85038500  0.44929900  0.12130500  1
  O  O172  1  0.00000000  0.08569000  0.75000000  1
  O  O173  1  0.92079750  0.48112450  0.87557900  1
  O  O174  1  0.20299650  0.35410750  0.02309200  1
  O  O175  1  0.27090850  0.35339350  0.48436400  1
  O  O176  1  0.00000000  0.91431000  0.25000000  1
  O  O177  1  0.37707900  0.52902000  0.36843400  1
  O  O178  1  0.12081300  0.53569200  0.40677700  1
  O  O179  1  0.85038500  0.55070100  0.62130500  1
  O  O180  1  0.25789550  0.67125750  0.26283300  1
  O  O181  1  0.72909150  0.64660650  0.51563600  1
  O  O182  1  0.00342650  0.76301150  0.44700200  1
  O  O183  1  0.12480200  0.72530400  0.63208300  1
  O  O184  1  0.35131050  0.55515450  0.64085300  1
  O  O185  1  0.37339950  0.86880150  0.20752700  1
  O  O186  1  0.37918700  0.96430800  0.59322300  1
  O  O187  1  0.04084900  0.89277400  0.52091300  1
  O  O188  1  0.14263550  0.86251150  0.29215100  1
  O  O189  1  0.92862800  0.97674500  0.58726200  1
  O  O190  1  0.68054500  0.72203200  0.91933000  1
  O  O191  1  0.42862800  0.52325500  0.08726200  1
  O  O192  1  0.54084900  0.60722600  0.02091300  1
  O  O193  1  0.95915100  0.89277400  0.97908700  1
  O  O194  1  0.10242050  0.80383750  0.88162700  1
  O  O195  1  0.87707900  0.97098000  0.86843400  1
  O  O196  1  0.60242050  0.69616250  0.38162700  1
  O  O197  1  0.24677500  0.99284000  0.95139700  1
  O  O198  1  0.17099300  0.77312200  0.12957500  1
  O  O199  1  0.18054500  0.77796800  0.41933000  1
  O  O200  1  0.67099300  0.72687800  0.62957500  1
  O  O201  1  0.31945500  0.72203200  0.58067000  1
  O  O202  1  0.57920250  0.98112450  0.62442100  1
  O  O203  1  0.89757950  0.80383750  0.61837300  1
  O  O204  1  0.39757950  0.69616250  0.11837300  1
  O  O205  1  0.27090850  0.64660650  0.98436400  1
  O  O206  1  0.87339950  0.63119850  0.70752700  1
  O  O207  1  0.62292100  0.52902000  0.13156600  1
  O  O208  1  0.57137200  0.52325500  0.41273800  1
  O  O209  1  0.74210450  0.67125750  0.23716700  1
  O  O210  1  0.12292100  0.97098000  0.63156600  1
  O  O211  1  0.37519800  0.77469600  0.36791700  1
  O  O212  1  0.10282300  0.70006400  0.35901900  1
  O  O213  1  0.32900700  0.72687800  0.87042500  1
  O  O214  1  0.07920250  0.51887550  0.12442100  1
  O  O215  1  0.63077750  0.78296050  0.41732000  1
  O  O216  1  0.89717700  0.70006400  0.14098100  1
  O  O217  1  0.20299650  0.64589250  0.52309200  1
  O  O218  1  0.38318050  0.61329650  0.19002500  1
  O  O219  1  0.87918700  0.53569200  0.09322300  1
  O  O220  1  0.62480200  0.77469600  0.13208300  1
  O  O221  1  0.35736450  0.63748850  0.70784900  1
  O  O222  1  0.12660050  0.63119850  0.79247300  1
  O  O223  1  0.64868950  0.55515450  0.85914700  1
  O  O224  1  0.75322500  0.99284000  0.54860300  1
  O  O225  1  0.74677500  0.50716000  0.45139700  1
  O  O226  1  0.14868950  0.94484550  0.35914700  1
  O  O227  1  0.97450650  0.60063850  0.48279600  1
  O  O228  1  0.38577000  0.88161800  0.72441100  1
  O  O229  1  0.50000000  0.92877400  0.25000000  1
  O  O230  1  0.85736450  0.86251150  0.20784900  1
  O  O231  1  0.64263550  0.63748850  0.79215100  1
  O  O232  1  0.11681950  0.88670350  0.80997500  1
  O  O233  1  0.75789550  0.82874250  0.76283300  1
  O  O234  1  0.61681950  0.61329650  0.30997500  1
  O  O235  1  0.22909150  0.85339350  0.01563600  1
  O  O236  1  0.81945500  0.77796800  0.08067000  1
  O  O237  1  0.60282300  0.79993600  0.85901900  1
  O  O238  1  0.99657350  0.76301150  0.05299800  1
  O  O239  1  0.29700350  0.85410750  0.47690800  1
  O  O240  1  0.47450650  0.89936150  0.98279600  1
  O  O241  1  0.86922250  0.71703950  0.58268000  1
  O  O242  1  0.14961500  0.55070100  0.87869500  1
  O  O243  1  0.49657350  0.73698850  0.55299800  1
  O  O244  1  0.88318050  0.88670350  0.69002500  1
  O  O245  1  0.00000000  0.57122600  0.75000000  1
  O  O246  1  0.82900700  0.77312200  0.37042500  1
  O  O247  1  0.45915100  0.60722600  0.47908700  1
  O  O248  1  0.50342650  0.73698850  0.94700200  1
  O  O249  1  0.61423000  0.88161800  0.77558900  1
  O  O250  1  0.62081300  0.96430800  0.90677700  1
  O  O251  1  0.52549350  0.89936150  0.51720400  1
  O  O252  1  0.02549350  0.60063850  0.01720400  1
  O  O253  1  0.11423000  0.61838200  0.27558900  1
  O  O254  1  0.13077750  0.71703950  0.91732000  1
  O  O255  1  0.79700350  0.64589250  0.97690800  1
  O  O256  1  0.25322500  0.50716000  0.04860300  1
  O  O257  1  0.36922250  0.78296050  0.08268000  1
  O  O258  1  0.24210450  0.82874250  0.73716700  1
  O  O259  1  0.64961500  0.94929900  0.37869500  1
  O  O260  1  0.88577000  0.61838200  0.22441100  1
  O  O261  1  0.87519800  0.72530400  0.86791700  1
  O  O262  1  0.92079750  0.51887550  0.37557900  1
  O  O263  1  0.39717700  0.79993600  0.64098100  1
  O  O264  1  0.07137200  0.97674500  0.91273800  1
  O  O265  1  0.85131050  0.94484550  0.14085300  1
  O  O266  1  0.62660050  0.86880150  0.29247300  1
  O  O267  1  0.35038500  0.94929900  0.12130500  1
  O  O268  1  0.50000000  0.58569000  0.75000000  1
  O  O269  1  0.42079750  0.98112450  0.87557900  1
  O  O270  1  0.70299650  0.85410750  0.02309200  1
  O  O271  1  0.77090850  0.85339350  0.48436400  1
