# generated using pymatgen
data_Ba2Ca(BO3)2
_symmetry_space_group_name_H-M   'P 1'
_cell_length_a   9.77684200
_cell_length_b   5.49259000
_cell_length_c   6.76427066
_cell_angle_alpha   90.00000000
_cell_angle_beta   119.49646496
_cell_angle_gamma   90.00000000
_symmetry_Int_Tables_number   1
_chemical_formula_structural   Ba2Ca(BO3)2
_chemical_formula_sum   'Ba4 Ca2 B4 O12'
_cell_volume   316.16128674
_cell_formula_units_Z   2
loop_
 _symmetry_equiv_pos_site_id
 _symmetry_equiv_pos_as_xyz
  1  'x, y, z'
loop_
 _atom_site_type_symbol
 _atom_site_label
 _atom_site_symmetry_multiplicity
 _atom_site_fract_x
 _atom_site_fract_y
 _atom_site_fract_z
 _atom_site_occupancy
  Ba  Ba0  1  0.78864100  0.00000000  0.31540900  1
  Ba  Ba1  1  0.21135900  0.00000000  0.68459100  1
  Ba  Ba2  1  0.28864100  0.50000000  0.31540900  1
  Ba  Ba3  1  0.71135900  0.50000000  0.68459100  1
  Ca  Ca4  1  0.00000000  0.00000000  0.00000000  1
  Ca  Ca5  1  0.50000000  0.50000000  0.00000000  1
  B  B6  1  0.93699100  0.50000000  0.24379500  1
  B  B7  1  0.06300900  0.50000000  0.75620500  1
  B  B8  1  0.43699100  0.00000000  0.24379500  1
  B  B9  1  0.56300900  0.00000000  0.75620500  1
  O  O10  1  0.77753900  0.50000000  0.17606400  1
  O  O11  1  0.98264500  0.28045600  0.72798200  1
  O  O12  1  0.01735500  0.28045600  0.27201800  1
  O  O13  1  0.22246100  0.50000000  0.82393600  1
  O  O14  1  0.98264500  0.71954400  0.72798200  1
  O  O15  1  0.01735500  0.71954400  0.27201800  1
  O  O16  1  0.27753900  0.00000000  0.17606400  1
  O  O17  1  0.48264500  0.78045600  0.72798200  1
  O  O18  1  0.51735500  0.78045600  0.27201800  1
  O  O19  1  0.72246100  0.00000000  0.82393600  1
  O  O20  1  0.48264500  0.21954400  0.72798200  1
  O  O21  1  0.51735500  0.21954400  0.27201800  1
