# generated using pymatgen
data_LiCdCoF6
_symmetry_space_group_name_H-M   'P 1'
_cell_length_a   5.10026830
_cell_length_b   5.10026830
_cell_length_c   9.63709400
_cell_angle_alpha   90.00000000
_cell_angle_beta   90.00000000
_cell_angle_gamma   120.00000000
_symmetry_Int_Tables_number   1
_chemical_formula_structural   LiCdCoF6
_chemical_formula_sum   'Li2 Cd2 Co2 F12'
_cell_volume   217.10147411
_cell_formula_units_Z   2
loop_
 _symmetry_equiv_pos_site_id
 _symmetry_equiv_pos_as_xyz
  1  'x, y, z'
loop_
 _atom_site_type_symbol
 _atom_site_label
 _atom_site_symmetry_multiplicity
 _atom_site_fract_x
 _atom_site_fract_y
 _atom_site_fract_z
 _atom_site_occupancy
  Li  Li0  1  0.33333333  0.66666667  0.25000000  1
  Li  Li1  1  0.66666667  0.33333333  0.75000000  1
  Cd  Cd2  1  0.00000000  0.00000000  0.00000000  1
  Cd  Cd3  1  0.00000000  0.00000000  0.50000000  1
  Co  Co4  1  0.66666667  0.33333333  0.25000000  1
  Co  Co5  1  0.33333333  0.66666667  0.75000000  1
  F  F6  1  0.97607433  0.62825067  0.35971400  1
  F  F7  1  0.65217633  0.02392567  0.35971400  1
  F  F8  1  0.02392567  0.37174933  0.64028600  1
  F  F9  1  0.62825067  0.97607433  0.85971400  1
  F  F10  1  0.34782367  0.37174933  0.85971400  1
  F  F11  1  0.62825067  0.65217633  0.64028600  1
  F  F12  1  0.37174933  0.02392567  0.14028600  1
  F  F13  1  0.97607433  0.34782367  0.14028600  1
  F  F14  1  0.02392567  0.65217633  0.85971400  1
  F  F15  1  0.34782367  0.97607433  0.64028600  1
  F  F16  1  0.37174933  0.34782367  0.35971400  1
  F  F17  1  0.65217633  0.62825067  0.14028600  1
