# generated using pymatgen
data_Sm2(CN2)3
_symmetry_space_group_name_H-M   'P 1'
_cell_length_a   14.71634000
_cell_length_b   3.92772800
_cell_length_c   5.31056741
_cell_angle_alpha   90.00000000
_cell_angle_beta   96.32283355
_cell_angle_gamma   90.00000000
_symmetry_Int_Tables_number   1
_chemical_formula_structural   Sm2(CN2)3
_chemical_formula_sum   'Sm4 C6 N12'
_cell_volume   305.09305808
_cell_formula_units_Z   2
loop_
 _symmetry_equiv_pos_site_id
 _symmetry_equiv_pos_as_xyz
  1  'x, y, z'
loop_
 _atom_site_type_symbol
 _atom_site_label
 _atom_site_symmetry_multiplicity
 _atom_site_fract_x
 _atom_site_fract_y
 _atom_site_fract_z
 _atom_site_occupancy
  Sm  Sm0  1  0.63452700  0.50000000  0.07114200  1
  Sm  Sm1  1  0.86547300  0.00000000  0.92885800  1
  Sm  Sm2  1  0.13452700  0.00000000  0.07114200  1
  Sm  Sm3  1  0.36547300  0.50000000  0.92885800  1
  C  C4  1  0.67205400  0.00000000  0.59386500  1
  C  C5  1  0.82794600  0.50000000  0.40613500  1
  C  C6  1  0.00000000  0.00000000  0.50000000  1
  C  C7  1  0.17205400  0.50000000  0.59386500  1
  C  C8  1  0.32794600  0.00000000  0.40613500  1
  C  C9  1  0.50000000  0.50000000  0.50000000  1
  N  N10  1  0.51091300  0.50000000  0.73350500  1
  N  N11  1  0.81047200  0.50000000  0.17048700  1
  N  N12  1  0.84243500  0.50000000  0.63673100  1
  N  N13  1  0.98908700  0.00000000  0.26649500  1
  N  N14  1  0.68952800  0.00000000  0.82951300  1
  N  N15  1  0.65756500  0.00000000  0.36326900  1
  N  N16  1  0.01091300  0.00000000  0.73350500  1
  N  N17  1  0.31047200  0.00000000  0.17048700  1
  N  N18  1  0.34243500  0.00000000  0.63673100  1
  N  N19  1  0.48908700  0.50000000  0.26649500  1
  N  N20  1  0.18952800  0.50000000  0.82951300  1
  N  N21  1  0.15756500  0.50000000  0.36326900  1
