# generated using pymatgen
data_BaTiO3
_symmetry_space_group_name_H-M   'P 1'
_cell_length_a   5.75467227
_cell_length_b   5.75467227
_cell_length_c   7.10998697
_cell_angle_alpha   90.00000000
_cell_angle_beta   90.00000000
_cell_angle_gamma   120.00000000
_symmetry_Int_Tables_number   1
_chemical_formula_structural   BaTiO3
_chemical_formula_sum   'Ba3 Ti3 O9'
_cell_volume   203.91098751
_cell_formula_units_Z   3
loop_
 _symmetry_equiv_pos_site_id
 _symmetry_equiv_pos_as_xyz
  1  'x, y, z'
loop_
 _atom_site_type_symbol
 _atom_site_label
 _atom_site_symmetry_multiplicity
 _atom_site_fract_x
 _atom_site_fract_y
 _atom_site_fract_z
 _atom_site_occupancy
  Ba  Ba0  1  0.00000000  0.00000000  0.00206900  1
  Ba  Ba1  1  0.66666667  0.33333333  0.33540233  1
  Ba  Ba2  1  0.33333333  0.66666667  0.66873567  1
  Ti  Ti3  1  0.00000000  0.00000000  0.51644000  1
  Ti  Ti4  1  0.66666667  0.33333333  0.84977333  1
  Ti  Ti5  1  0.33333333  0.66666667  0.18310667  1
  O  O6  1  0.83695533  0.67391067  0.64766367  1
  O  O7  1  0.32608933  0.16304467  0.64766367  1
  O  O8  1  0.83695533  0.16304467  0.64766367  1
  O  O9  1  0.50362200  0.00724400  0.98099700  1
  O  O10  1  0.99275600  0.49637800  0.98099700  1
  O  O11  1  0.50362200  0.49637800  0.98099700  1
  O  O12  1  0.17028867  0.34057733  0.31433033  1
  O  O13  1  0.65942267  0.82971133  0.31433033  1
  O  O14  1  0.17028867  0.82971133  0.31433033  1
