# generated using pymatgen
data_Pr3Si2S8Cl
_symmetry_space_group_name_H-M   'P 1'
_cell_length_a   15.82086800
_cell_length_b   7.73864400
_cell_length_c   11.05109666
_cell_angle_alpha   90.00000000
_cell_angle_beta   97.66587809
_cell_angle_gamma   90.00000000
_symmetry_Int_Tables_number   1
_chemical_formula_structural   Pr3Si2S8Cl
_chemical_formula_sum   'Pr12 Si8 S32 Cl4'
_cell_volume   1340.91650334
_cell_formula_units_Z   4
loop_
 _symmetry_equiv_pos_site_id
 _symmetry_equiv_pos_as_xyz
  1  'x, y, z'
loop_
 _atom_site_type_symbol
 _atom_site_label
 _atom_site_symmetry_multiplicity
 _atom_site_fract_x
 _atom_site_fract_y
 _atom_site_fract_z
 _atom_site_occupancy
  Pr  Pr0  1  0.80441400  0.87745800  0.81449600  1
  Pr  Pr1  1  0.00000000  0.37803000  0.75000000  1
  Pr  Pr2  1  0.80441400  0.12254200  0.31449600  1
  Pr  Pr3  1  0.69558600  0.37745800  0.68550400  1
  Pr  Pr4  1  0.00000000  0.62197000  0.25000000  1
  Pr  Pr5  1  0.69558600  0.62254200  0.18550400  1
  Pr  Pr6  1  0.30441400  0.37745800  0.81449600  1
  Pr  Pr7  1  0.50000000  0.87803000  0.75000000  1
  Pr  Pr8  1  0.30441400  0.62254200  0.31449600  1
  Pr  Pr9  1  0.19558600  0.87745800  0.68550400  1
  Pr  Pr10  1  0.50000000  0.12197000  0.25000000  1
  Pr  Pr11  1  0.19558600  0.12254200  0.18550400  1
  Si  Si12  1  0.65978750  0.03233650  0.02923300  1
  Si  Si13  1  0.84021250  0.53233650  0.47076700  1
  Si  Si14  1  0.84021250  0.46766350  0.97076700  1
  Si  Si15  1  0.65978750  0.96766350  0.52923300  1
  Si  Si16  1  0.15978750  0.53233650  0.02923300  1
  Si  Si17  1  0.34021250  0.03233650  0.47076700  1
  Si  Si18  1  0.34021250  0.96766350  0.97076700  1
  Si  Si19  1  0.15978750  0.46766350  0.52923300  1
  S  S20  1  0.93411550  0.34253750  0.45103500  1
  S  S21  1  0.85375150  0.74996250  0.35791900  1
  S  S22  1  0.71616950  0.57277750  0.91458100  1
  S  S23  1  0.64741700  0.08955800  0.83944200  1
  S  S24  1  0.64624850  0.24996250  0.14208100  1
  S  S25  1  0.78383050  0.92722250  0.08541900  1
  S  S26  1  0.56588450  0.84253750  0.04896500  1
  S  S27  1  0.85258300  0.41044200  0.16055800  1
  S  S28  1  0.71616950  0.42722250  0.41458100  1
  S  S29  1  0.85258300  0.58955800  0.66055800  1
  S  S30  1  0.85375150  0.25003750  0.85791900  1
  S  S31  1  0.78383050  0.07277750  0.58541900  1
  S  S32  1  0.64624850  0.75003750  0.64208100  1
  S  S33  1  0.64741700  0.91044200  0.33944200  1
  S  S34  1  0.93411550  0.65746250  0.95103500  1
  S  S35  1  0.56588450  0.15746250  0.54896500  1
  S  S36  1  0.43411550  0.84253750  0.45103500  1
  S  S37  1  0.35375150  0.24996250  0.35791900  1
  S  S38  1  0.21616950  0.07277750  0.91458100  1
  S  S39  1  0.14741700  0.58955800  0.83944200  1
  S  S40  1  0.14624850  0.74996250  0.14208100  1
  S  S41  1  0.28383050  0.42722250  0.08541900  1
  S  S42  1  0.06588450  0.34253750  0.04896500  1
  S  S43  1  0.35258300  0.91044200  0.16055800  1
  S  S44  1  0.21616950  0.92722250  0.41458100  1
  S  S45  1  0.35258300  0.08955800  0.66055800  1
  S  S46  1  0.35375150  0.75003750  0.85791900  1
  S  S47  1  0.28383050  0.57277750  0.58541900  1
  S  S48  1  0.14624850  0.25003750  0.64208100  1
  S  S49  1  0.14741700  0.41044200  0.33944200  1
  S  S50  1  0.43411550  0.15746250  0.95103500  1
  S  S51  1  0.06588450  0.65746250  0.54896500  1
  Cl  Cl52  1  0.00000000  0.00675300  0.75000000  1
  Cl  Cl53  1  0.00000000  0.99324700  0.25000000  1
  Cl  Cl54  1  0.50000000  0.50675300  0.75000000  1
  Cl  Cl55  1  0.50000000  0.49324700  0.25000000  1
