# generated using pymatgen
data_K2PaF7
_symmetry_space_group_name_H-M   'P 1'
_cell_length_a   13.98988800
_cell_length_b   6.82731200
_cell_length_c   8.25749294
_cell_angle_alpha   90.00000000
_cell_angle_beta   125.55955845
_cell_angle_gamma   90.00000000
_symmetry_Int_Tables_number   1
_chemical_formula_structural   K2PaF7
_chemical_formula_sum   'K8 Pa4 F28'
_cell_volume   641.61700413
_cell_formula_units_Z   4
loop_
 _symmetry_equiv_pos_site_id
 _symmetry_equiv_pos_as_xyz
  1  'x, y, z'
loop_
 _atom_site_type_symbol
 _atom_site_label
 _atom_site_symmetry_multiplicity
 _atom_site_fract_x
 _atom_site_fract_y
 _atom_site_fract_z
 _atom_site_occupancy
  K  K0  1  0.32542800  0.99265900  0.75558500  1
  K  K1  1  0.17457200  0.49265900  0.74441500  1
  K  K2  1  0.67457200  0.00734100  0.24441500  1
  K  K3  1  0.82542800  0.50734100  0.25558500  1
  K  K4  1  0.82542800  0.49265900  0.75558500  1
  K  K5  1  0.67457200  0.99265900  0.74441500  1
  K  K6  1  0.17457200  0.50734100  0.24441500  1
  K  K7  1  0.32542800  0.00734100  0.25558500  1
  Pa  Pa8  1  0.00000000  0.97577000  0.75000000  1
  Pa  Pa9  1  0.00000000  0.02423000  0.25000000  1
  Pa  Pa10  1  0.50000000  0.47577000  0.75000000  1
  Pa  Pa11  1  0.50000000  0.52423000  0.25000000  1
  F  F12  1  0.57501700  0.36574600  0.06461100  1
  F  F13  1  0.92498300  0.86574600  0.43538900  1
  F  F14  1  0.42498300  0.63425400  0.93538900  1
  F  F15  1  0.07501700  0.13425400  0.56461100  1
  F  F16  1  0.88785150  0.22220250  0.56884300  1
  F  F17  1  0.11214850  0.22220250  0.93115700  1
  F  F18  1  0.11214850  0.77779750  0.43115700  1
  F  F19  1  0.88785150  0.77779750  0.06884300  1
  F  F20  1  0.17640950  0.88577850  0.85414600  1
  F  F21  1  0.82359050  0.88577850  0.64585400  1
  F  F22  1  0.82359050  0.11422150  0.14585400  1
  F  F23  1  0.17640950  0.11422150  0.35414600  1
  F  F24  1  0.00000000  0.65145500  0.75000000  1
  F  F25  1  0.00000000  0.34854500  0.25000000  1
  F  F26  1  0.07501700  0.86574600  0.06461100  1
  F  F27  1  0.42498300  0.36574600  0.43538900  1
  F  F28  1  0.92498300  0.13425400  0.93538900  1
  F  F29  1  0.57501700  0.63425400  0.56461100  1
  F  F30  1  0.38785150  0.72220250  0.56884300  1
  F  F31  1  0.61214850  0.72220250  0.93115700  1
  F  F32  1  0.61214850  0.27779750  0.43115700  1
  F  F33  1  0.38785150  0.27779750  0.06884300  1
  F  F34  1  0.67640950  0.38577850  0.85414600  1
  F  F35  1  0.32359050  0.38577850  0.64585400  1
  F  F36  1  0.32359050  0.61422150  0.14585400  1
  F  F37  1  0.67640950  0.61422150  0.35414600  1
  F  F38  1  0.50000000  0.15145500  0.75000000  1
  F  F39  1  0.50000000  0.84854500  0.25000000  1
