# generated using pymatgen
data_LaH6(ClO3)3
_symmetry_space_group_name_H-M   'P 1'
_cell_length_a   8.13910775
_cell_length_b   8.13910775
_cell_length_c   8.41197600
_cell_angle_alpha   90.00000000
_cell_angle_beta   90.00000000
_cell_angle_gamma   120.00000000
_symmetry_Int_Tables_number   1
_chemical_formula_structural   LaH6(ClO3)3
_chemical_formula_sum   'La2 H12 Cl6 O18'
_cell_volume   482.59437127
_cell_formula_units_Z   2
loop_
 _symmetry_equiv_pos_site_id
 _symmetry_equiv_pos_as_xyz
  1  'x, y, z'
loop_
 _atom_site_type_symbol
 _atom_site_label
 _atom_site_symmetry_multiplicity
 _atom_site_fract_x
 _atom_site_fract_y
 _atom_site_fract_z
 _atom_site_occupancy
  La  La0  1  0.66666667  0.33333333  0.25000000  1
  La  La1  1  0.33333333  0.66666667  0.75000000  1
  H  H2  1  0.65077767  0.54863633  0.65607000  1
  H  H3  1  0.54863633  0.65077767  0.15607000  1
  H  H4  1  0.10214133  0.45136367  0.15607000  1
  H  H5  1  0.65077767  0.54863633  0.84393000  1
  H  H6  1  0.34922233  0.89785867  0.15607000  1
  H  H7  1  0.89785867  0.34922233  0.65607000  1
  H  H8  1  0.45136367  0.10214133  0.84393000  1
  H  H9  1  0.34922233  0.89785867  0.34393000  1
  H  H10  1  0.45136367  0.10214133  0.65607000  1
  H  H11  1  0.89785867  0.34922233  0.84393000  1
  H  H12  1  0.10214133  0.45136367  0.34393000  1
  H  H13  1  0.54863633  0.65077767  0.34393000  1
  Cl  Cl14  1  0.76215150  0.00000000  0.00000000  1
  Cl  Cl15  1  0.23784850  0.23784850  0.50000000  1
  Cl  Cl16  1  0.00000000  0.76215150  0.00000000  1
  Cl  Cl17  1  0.76215150  0.00000000  0.50000000  1
  Cl  Cl18  1  0.00000000  0.76215150  0.50000000  1
  Cl  Cl19  1  0.23784850  0.23784850  0.00000000  1
  O  O20  1  0.97829167  0.41130833  0.75000000  1
  O  O21  1  0.18715267  0.74879533  0.51052900  1
  O  O22  1  0.56164267  0.81284733  0.98947100  1
  O  O23  1  0.74879533  0.18715267  0.01052900  1
  O  O24  1  0.58869167  0.56698333  0.75000000  1
  O  O25  1  0.43835733  0.25120467  0.01052900  1
  O  O26  1  0.56698333  0.58869167  0.25000000  1
  O  O27  1  0.25120467  0.43835733  0.51052900  1
  O  O28  1  0.81284733  0.56164267  0.01052900  1
  O  O29  1  0.81284733  0.56164267  0.48947100  1
  O  O30  1  0.25120467  0.43835733  0.98947100  1
  O  O31  1  0.74879533  0.18715267  0.48947100  1
  O  O32  1  0.41130833  0.97829167  0.25000000  1
  O  O33  1  0.02170833  0.43301667  0.25000000  1
  O  O34  1  0.43835733  0.25120467  0.48947100  1
  O  O35  1  0.56164267  0.81284733  0.51052900  1
  O  O36  1  0.18715267  0.74879533  0.98947100  1
  O  O37  1  0.43301667  0.02170833  0.75000000  1
