# generated using pymatgen
data_KFeF4
_symmetry_space_group_name_H-M   'P 1'
_cell_length_a   3.99711600
_cell_length_b   12.37725000
_cell_length_c   7.75559600
_cell_angle_alpha   90.00000000
_cell_angle_beta   90.00000000
_cell_angle_gamma   90.00000000
_symmetry_Int_Tables_number   1
_chemical_formula_structural   KFeF4
_chemical_formula_sum   'K4 Fe4 F16'
_cell_volume   383.69495869
_cell_formula_units_Z   4
loop_
 _symmetry_equiv_pos_site_id
 _symmetry_equiv_pos_as_xyz
  1  'x, y, z'
loop_
 _atom_site_type_symbol
 _atom_site_label
 _atom_site_symmetry_multiplicity
 _atom_site_fract_x
 _atom_site_fract_y
 _atom_site_fract_z
 _atom_site_occupancy
  K  K0  1  0.50000000  0.22900700  0.25000000  1
  K  K1  1  0.00000000  0.27099300  0.75000000  1
  K  K2  1  0.00000000  0.72900700  0.25000000  1
  K  K3  1  0.50000000  0.77099300  0.75000000  1
  Fe  Fe4  1  0.00000000  0.00000000  0.50000000  1
  Fe  Fe5  1  0.00000000  0.00000000  0.00000000  1
  Fe  Fe6  1  0.50000000  0.50000000  0.50000000  1
  Fe  Fe7  1  0.50000000  0.50000000  0.00000000  1
  F  F8  1  0.00000000  0.15029300  0.05252000  1
  F  F9  1  0.50000000  0.34970700  0.94748000  1
  F  F10  1  0.50000000  0.34970700  0.55252000  1
  F  F11  1  0.00000000  0.15029300  0.44748000  1
  F  F12  1  0.50000000  0.00000000  0.50000000  1
  F  F13  1  0.50000000  0.00000000  0.00000000  1
  F  F14  1  0.50000000  0.45966400  0.25000000  1
  F  F15  1  0.00000000  0.04033600  0.75000000  1
  F  F16  1  0.50000000  0.65029300  0.05252000  1
  F  F17  1  0.00000000  0.84970700  0.94748000  1
  F  F18  1  0.00000000  0.84970700  0.55252000  1
  F  F19  1  0.50000000  0.65029300  0.44748000  1
  F  F20  1  0.00000000  0.50000000  0.50000000  1
  F  F21  1  0.00000000  0.50000000  0.00000000  1
  F  F22  1  0.00000000  0.95966400  0.25000000  1
  F  F23  1  0.50000000  0.54033600  0.75000000  1
