# generated using pymatgen
data_Na2Ca3Si3O10
_symmetry_space_group_name_H-M   'P 1'
_cell_length_a   16.46133200
_cell_length_b   5.19805200
_cell_length_c   11.45370162
_cell_angle_alpha   90.00000000
_cell_angle_beta   93.35612037
_cell_angle_gamma   90.00000000
_symmetry_Int_Tables_number   1
_chemical_formula_structural   Na2Ca3Si3O10
_chemical_formula_sum   'Na8 Ca12 Si12 O40'
_cell_volume   978.37643698
_cell_formula_units_Z   4
loop_
 _symmetry_equiv_pos_site_id
 _symmetry_equiv_pos_as_xyz
  1  'x, y, z'
loop_
 _atom_site_type_symbol
 _atom_site_label
 _atom_site_symmetry_multiplicity
 _atom_site_fract_x
 _atom_site_fract_y
 _atom_site_fract_z
 _atom_site_occupancy
  Na  Na0  1  0.54400400  0.73119800  0.96562600  1
  Na  Na1  1  0.54400400  0.26880200  0.46562600  1
  Na  Na2  1  0.95599600  0.23119800  0.53437400  1
  Na  Na3  1  0.95599600  0.76880200  0.03437400  1
  Na  Na4  1  0.04400400  0.23119800  0.96562600  1
  Na  Na5  1  0.04400400  0.76880200  0.46562600  1
  Na  Na6  1  0.45599600  0.73119800  0.53437400  1
  Na  Na7  1  0.45599600  0.26880200  0.03437400  1
  Ca  Ca8  1  0.65229650  0.26468350  0.20687100  1
  Ca  Ca9  1  0.65229650  0.73531650  0.70687100  1
  Ca  Ca10  1  0.75000000  0.25000000  0.50000000  1
  Ca  Ca11  1  0.84770350  0.76468350  0.29312900  1
  Ca  Ca12  1  0.84770350  0.23531650  0.79312900  1
  Ca  Ca13  1  0.75000000  0.75000000  0.00000000  1
  Ca  Ca14  1  0.15229650  0.76468350  0.20687100  1
  Ca  Ca15  1  0.15229650  0.23531650  0.70687100  1
  Ca  Ca16  1  0.25000000  0.75000000  0.50000000  1
  Ca  Ca17  1  0.34770350  0.26468350  0.29312900  1
  Ca  Ca18  1  0.34770350  0.73531650  0.79312900  1
  Ca  Ca19  1  0.25000000  0.25000000  0.00000000  1
  Si  Si20  1  0.00000000  0.79741400  0.75000000  1
  Si  Si21  1  0.00000000  0.20258600  0.25000000  1
  Si  Si22  1  0.65138400  0.18822000  0.89635000  1
  Si  Si23  1  0.65138400  0.81178000  0.39635000  1
  Si  Si24  1  0.84861600  0.31178000  0.10365000  1
  Si  Si25  1  0.84861600  0.68822000  0.60365000  1
  Si  Si26  1  0.50000000  0.29741400  0.75000000  1
  Si  Si27  1  0.50000000  0.70258600  0.25000000  1
  Si  Si28  1  0.15138400  0.68822000  0.89635000  1
  Si  Si29  1  0.15138400  0.31178000  0.39635000  1
  Si  Si30  1  0.34861600  0.81178000  0.10365000  1
  Si  Si31  1  0.34861600  0.18822000  0.60365000  1
  O  O32  1  0.84367100  0.00013900  0.10948100  1
  O  O33  1  0.85895550  0.56203350  0.47416500  1
  O  O34  1  0.54306250  0.53574350  0.15104700  1
  O  O35  1  0.95693750  0.03574350  0.34895300  1
  O  O36  1  0.93211100  0.58677600  0.68658100  1
  O  O37  1  0.64104450  0.93796650  0.52583500  1
  O  O38  1  0.56788900  0.91322400  0.31341900  1
  O  O39  1  0.85895550  0.43796650  0.97416500  1
  O  O40  1  0.64104450  0.06203350  0.02583500  1
  O  O41  1  0.65632900  0.50013900  0.39051900  1
  O  O42  1  0.54306250  0.46425650  0.65104700  1
  O  O43  1  0.72700250  0.96490550  0.33815500  1
  O  O44  1  0.65632900  0.49986100  0.89051900  1
  O  O45  1  0.84367100  0.99986100  0.60948100  1
  O  O46  1  0.56788900  0.08677600  0.81341900  1
  O  O47  1  0.77299750  0.46490550  0.16184500  1
  O  O48  1  0.72700250  0.03509450  0.83815500  1
  O  O49  1  0.95693750  0.96425650  0.84895300  1
  O  O50  1  0.93211100  0.41322400  0.18658100  1
  O  O51  1  0.77299750  0.53509450  0.66184500  1
  O  O52  1  0.34367100  0.50013900  0.10948100  1
  O  O53  1  0.35895550  0.06203350  0.47416500  1
  O  O54  1  0.04306250  0.03574350  0.15104700  1
  O  O55  1  0.45693750  0.53574350  0.34895300  1
  O  O56  1  0.43211100  0.08677600  0.68658100  1
  O  O57  1  0.14104450  0.43796650  0.52583500  1
  O  O58  1  0.06788900  0.41322400  0.31341900  1
  O  O59  1  0.35895550  0.93796650  0.97416500  1
  O  O60  1  0.14104450  0.56203350  0.02583500  1
  O  O61  1  0.15632900  0.00013900  0.39051900  1
  O  O62  1  0.04306250  0.96425650  0.65104700  1
  O  O63  1  0.22700250  0.46490550  0.33815500  1
  O  O64  1  0.15632900  0.99986100  0.89051900  1
  O  O65  1  0.34367100  0.49986100  0.60948100  1
  O  O66  1  0.06788900  0.58677600  0.81341900  1
  O  O67  1  0.27299750  0.96490550  0.16184500  1
  O  O68  1  0.22700250  0.53509450  0.83815500  1
  O  O69  1  0.45693750  0.46425650  0.84895300  1
  O  O70  1  0.43211100  0.91322400  0.18658100  1
  O  O71  1  0.27299750  0.03509450  0.66184500  1
