# generated using pymatgen
data_YbSeO3F
_symmetry_space_group_name_H-M   'P 1'
_cell_length_a   6.90153400
_cell_length_b   6.96499500
_cell_length_c   7.13997695
_cell_angle_alpha   90.00000000
_cell_angle_beta   96.07699987
_cell_angle_gamma   90.00000000
_symmetry_Int_Tables_number   1
_chemical_formula_structural   YbSeO3F
_chemical_formula_sum   'Yb4 Se4 O12 F4'
_cell_volume   341.28394550
_cell_formula_units_Z   4
loop_
 _symmetry_equiv_pos_site_id
 _symmetry_equiv_pos_as_xyz
  1  'x, y, z'
loop_
 _atom_site_type_symbol
 _atom_site_label
 _atom_site_symmetry_multiplicity
 _atom_site_fract_x
 _atom_site_fract_y
 _atom_site_fract_z
 _atom_site_occupancy
  Yb  Yb0  1  0.85203000  0.15065500  0.18797900  1
  Yb  Yb1  1  0.85203000  0.34934500  0.68797900  1
  Yb  Yb2  1  0.14797000  0.84934500  0.81202100  1
  Yb  Yb3  1  0.14797000  0.65065500  0.31202100  1
  Se  Se4  1  0.32340700  0.38310100  0.77265000  1
  Se  Se5  1  0.67659300  0.88310100  0.72735000  1
  Se  Se6  1  0.67659300  0.61689900  0.22735000  1
  Se  Se7  1  0.32340700  0.11689900  0.27265000  1
  O  O8  1  0.49386100  0.69074100  0.35097700  1
  O  O9  1  0.82637700  0.03341900  0.86338700  1
  O  O10  1  0.82961600  0.80198200  0.19909700  1
  O  O11  1  0.82961600  0.69801800  0.69909700  1
  O  O12  1  0.17362300  0.53341900  0.63661300  1
  O  O13  1  0.50613900  0.19074100  0.14902300  1
  O  O14  1  0.17038400  0.19801800  0.80090300  1
  O  O15  1  0.82637700  0.46658100  0.36338700  1
  O  O16  1  0.50613900  0.30925900  0.64902300  1
  O  O17  1  0.49386100  0.80925900  0.85097700  1
  O  O18  1  0.17038400  0.30198200  0.30090300  1
  O  O19  1  0.17362300  0.96658100  0.13661300  1
  F  F20  1  0.80487300  0.10214300  0.48644000  1
  F  F21  1  0.19512700  0.60214300  0.01356000  1
  F  F22  1  0.19512700  0.89785700  0.51356000  1
  F  F23  1  0.80487300  0.39785700  0.98644000  1
