# generated using pymatgen
data_Mg2SiO4
_symmetry_space_group_name_H-M   'P 1'
_cell_length_a   5.76357600
_cell_length_b   8.35630400
_cell_length_c   11.56094200
_cell_angle_alpha   90.00000000
_cell_angle_beta   90.00000000
_cell_angle_gamma   90.00000000
_symmetry_Int_Tables_number   1
_chemical_formula_structural   Mg2SiO4
_chemical_formula_sum   'Mg16 Si8 O32'
_cell_volume   556.80032198
_cell_formula_units_Z   8
loop_
 _symmetry_equiv_pos_site_id
 _symmetry_equiv_pos_as_xyz
  1  'x, y, z'
loop_
 _atom_site_type_symbol
 _atom_site_label
 _atom_site_symmetry_multiplicity
 _atom_site_fract_x
 _atom_site_fract_y
 _atom_site_fract_z
 _atom_site_occupancy
  Mg  Mg0  1  0.00000000  0.50000000  0.00000000  1
  Mg  Mg1  1  0.50000000  0.00000000  0.00000000  1
  Mg  Mg2  1  0.00000000  0.46978950  0.25000000  1
  Mg  Mg3  1  0.00000000  0.53021050  0.75000000  1
  Mg  Mg4  1  0.25000000  0.75000000  0.12756050  1
  Mg  Mg5  1  0.25000000  0.25000000  0.87243950  1
  Mg  Mg6  1  0.75000000  0.25000000  0.87243950  1
  Mg  Mg7  1  0.75000000  0.75000000  0.12756050  1
  Mg  Mg8  1  0.50000000  0.00000000  0.50000000  1
  Mg  Mg9  1  0.00000000  0.50000000  0.50000000  1
  Mg  Mg10  1  0.50000000  0.96978950  0.75000000  1
  Mg  Mg11  1  0.50000000  0.03021050  0.25000000  1
  Mg  Mg12  1  0.75000000  0.25000000  0.62756050  1
  Mg  Mg13  1  0.75000000  0.75000000  0.37243950  1
  Mg  Mg14  1  0.25000000  0.75000000  0.37243950  1
  Mg  Mg15  1  0.25000000  0.25000000  0.62756050  1
  Si  Si16  1  0.50000000  0.61647950  0.61966150  1
  Si  Si17  1  0.50000000  0.38352050  0.38033850  1
  Si  Si18  1  0.50000000  0.61647950  0.88033850  1
  Si  Si19  1  0.50000000  0.38352050  0.11966150  1
  Si  Si20  1  0.00000000  0.11647950  0.11966150  1
  Si  Si21  1  0.00000000  0.88352050  0.88033850  1
  Si  Si22  1  0.00000000  0.11647950  0.38033850  1
  Si  Si23  1  0.00000000  0.88352050  0.61966150  1
  O  O24  1  0.73877850  0.49269500  0.37734600  1
  O  O25  1  0.73877850  0.50730500  0.62265400  1
  O  O26  1  0.26122150  0.49269500  0.12265400  1
  O  O27  1  0.26122150  0.50730500  0.87734600  1
  O  O28  1  0.26122150  0.50730500  0.62265400  1
  O  O29  1  0.26122150  0.49269500  0.37734600  1
  O  O30  1  0.73877850  0.50730500  0.87734600  1
  O  O31  1  0.73877850  0.49269500  0.12265400  1
  O  O32  1  0.50000000  0.74448650  0.98992850  1
  O  O33  1  0.50000000  0.25551350  0.01007150  1
  O  O34  1  0.00000000  0.24448650  0.01007150  1
  O  O35  1  0.00000000  0.75551350  0.98992850  1
  O  O36  1  0.00000000  0.71602250  0.25000000  1
  O  O37  1  0.00000000  0.28397750  0.75000000  1
  O  O38  1  0.50000000  0.71628850  0.75000000  1
  O  O39  1  0.50000000  0.28371150  0.25000000  1
  O  O40  1  0.23877850  0.99269500  0.87734600  1
  O  O41  1  0.23877850  0.00730500  0.12265400  1
  O  O42  1  0.76122150  0.99269500  0.62265400  1
  O  O43  1  0.76122150  0.00730500  0.37734600  1
  O  O44  1  0.76122150  0.00730500  0.12265400  1
  O  O45  1  0.76122150  0.99269500  0.87734600  1
  O  O46  1  0.23877850  0.00730500  0.37734600  1
  O  O47  1  0.23877850  0.99269500  0.62265400  1
  O  O48  1  0.00000000  0.24448650  0.48992850  1
  O  O49  1  0.00000000  0.75551350  0.51007150  1
  O  O50  1  0.50000000  0.74448650  0.51007150  1
  O  O51  1  0.50000000  0.25551350  0.48992850  1
  O  O52  1  0.50000000  0.21602250  0.75000000  1
  O  O53  1  0.50000000  0.78397750  0.25000000  1
  O  O54  1  0.00000000  0.21628850  0.25000000  1
  O  O55  1  0.00000000  0.78371150  0.75000000  1
