# generated using pymatgen
data_GaP(H2O3)2
_symmetry_space_group_name_H-M   'P 1'
_cell_length_a   8.68908600
_cell_length_b   9.83454700
_cell_length_c   10.13449000
_cell_angle_alpha   90.00000000
_cell_angle_beta   90.00000000
_cell_angle_gamma   90.00000000
_symmetry_Int_Tables_number   1
_chemical_formula_structural   GaP(H2O3)2
_chemical_formula_sum   'Ga8 P8 H32 O48'
_cell_volume   866.02485072
_cell_formula_units_Z   8
loop_
 _symmetry_equiv_pos_site_id
 _symmetry_equiv_pos_as_xyz
  1  'x, y, z'
loop_
 _atom_site_type_symbol
 _atom_site_label
 _atom_site_symmetry_multiplicity
 _atom_site_fract_x
 _atom_site_fract_y
 _atom_site_fract_z
 _atom_site_occupancy
  Ga  Ga0  1  0.15197500  0.17134800  0.13237600  1
  Ga  Ga1  1  0.65197500  0.32865200  0.86762400  1
  Ga  Ga2  1  0.84802500  0.67134800  0.36762400  1
  Ga  Ga3  1  0.34802500  0.82865200  0.63237600  1
  Ga  Ga4  1  0.84802500  0.82865200  0.86762400  1
  Ga  Ga5  1  0.34802500  0.67134800  0.13237600  1
  Ga  Ga6  1  0.15197500  0.32865200  0.63237600  1
  Ga  Ga7  1  0.65197500  0.17134800  0.36762400  1
  P  P8  1  0.47006300  0.35585600  0.14876700  1
  P  P9  1  0.97006300  0.14414400  0.85123300  1
  P  P10  1  0.52993700  0.85585600  0.35123300  1
  P  P11  1  0.02993700  0.64414400  0.64876700  1
  P  P12  1  0.52993700  0.64414400  0.85123300  1
  P  P13  1  0.02993700  0.85585600  0.14876700  1
  P  P14  1  0.47006300  0.14414400  0.64876700  1
  P  P15  1  0.97006300  0.35585600  0.35123300  1
  H  H16  1  0.29345300  0.95857500  0.07014500  1
  H  H17  1  0.79345300  0.54142500  0.92985500  1
  H  H18  1  0.70654700  0.45857500  0.42985500  1
  H  H19  1  0.20654700  0.04142500  0.57014500  1
  H  H20  1  0.70654700  0.04142500  0.92985500  1
  H  H21  1  0.20654700  0.45857500  0.07014500  1
  H  H22  1  0.29345300  0.54142500  0.57014500  1
  H  H23  1  0.79345300  0.95857500  0.42985500  1
  H  H24  1  0.35452300  0.07282600  0.96702500  1
  H  H25  1  0.85452300  0.42717400  0.03297500  1
  H  H26  1  0.64547700  0.57282600  0.53297500  1
  H  H27  1  0.14547700  0.92717400  0.46702500  1
  H  H28  1  0.64547700  0.92717400  0.03297500  1
  H  H29  1  0.14547700  0.57282600  0.96702500  1
  H  H30  1  0.35452300  0.42717400  0.46702500  1
  H  H31  1  0.85452300  0.07282600  0.53297500  1
  H  H32  1  0.33720400  0.08171400  0.32255100  1
  H  H33  1  0.83720400  0.41828600  0.67744900  1
  H  H34  1  0.66279600  0.58171400  0.17744900  1
  H  H35  1  0.16279600  0.91828600  0.82255100  1
  H  H36  1  0.66279600  0.91828600  0.67744900  1
  H  H37  1  0.16279600  0.58171400  0.32255100  1
  H  H38  1  0.33720400  0.41828600  0.82255100  1
  H  H39  1  0.83720400  0.08171400  0.17744900  1
  H  H40  1  0.19021400  0.17484400  0.37690900  1
  H  H41  1  0.69021400  0.32515600  0.62309100  1
  H  H42  1  0.80978600  0.67484400  0.12309100  1
  H  H43  1  0.30978600  0.82515600  0.87690900  1
  H  H44  1  0.80978600  0.82515600  0.62309100  1
  H  H45  1  0.30978600  0.67484400  0.37690900  1
  H  H46  1  0.19021400  0.32515600  0.87690900  1
  H  H47  1  0.69021400  0.17484400  0.12309100  1
  O  O48  1  0.29893300  0.32759100  0.11123300  1
  O  O49  1  0.79893300  0.17240900  0.88876700  1
  O  O50  1  0.70106700  0.82759100  0.38876700  1
  O  O51  1  0.20106700  0.67240900  0.61123300  1
  O  O52  1  0.70106700  0.67240900  0.88876700  1
  O  O53  1  0.20106700  0.82759100  0.11123300  1
  O  O54  1  0.29893300  0.17240900  0.61123300  1
  O  O55  1  0.79893300  0.32759100  0.38876700  1
  O  O56  1  0.58253600  0.28773700  0.04807700  1
  O  O57  1  0.08253600  0.21226300  0.95192300  1
  O  O58  1  0.41746400  0.78773700  0.45192300  1
  O  O59  1  0.91746400  0.71226300  0.54807700  1
  O  O60  1  0.41746400  0.71226300  0.95192300  1
  O  O61  1  0.91746400  0.78773700  0.04807700  1
  O  O62  1  0.58253600  0.21226300  0.54807700  1
  O  O63  1  0.08253600  0.28773700  0.45192300  1
  O  O64  1  0.50380200  0.29632800  0.28671100  1
  O  O65  1  0.00380200  0.20367200  0.71328900  1
  O  O66  1  0.49619800  0.79632800  0.21328900  1
  O  O67  1  0.99619800  0.70367200  0.78671100  1
  O  O68  1  0.49619800  0.70367200  0.71328900  1
  O  O69  1  0.99619800  0.79632800  0.28671100  1
  O  O70  1  0.50380200  0.20367200  0.78671100  1
  O  O71  1  0.00380200  0.29632800  0.21328900  1
  O  O72  1  0.49370200  0.51258000  0.14488800  1
  O  O73  1  0.99370200  0.98742000  0.85511200  1
  O  O74  1  0.50629800  0.01258000  0.35511200  1
  O  O75  1  0.00629800  0.48742000  0.64488800  1
  O  O76  1  0.50629800  0.48742000  0.85511200  1
  O  O77  1  0.00629800  0.01258000  0.14488800  1
  O  O78  1  0.49370200  0.98742000  0.64488800  1
  O  O79  1  0.99370200  0.51258000  0.35511200  1
  O  O80  1  0.32876000  0.05634600  0.05967800  1
  O  O81  1  0.82876000  0.44365400  0.94032200  1
  O  O82  1  0.67124000  0.55634600  0.44032200  1
  O  O83  1  0.17124000  0.94365400  0.55967800  1
  O  O84  1  0.67124000  0.94365400  0.94032200  1
  O  O85  1  0.17124000  0.55634600  0.05967800  1
  O  O86  1  0.32876000  0.44365400  0.55967800  1
  O  O87  1  0.82876000  0.05634600  0.44032200  1
  O  O88  1  0.22641000  0.10760500  0.30891800  1
  O  O89  1  0.72641000  0.39239500  0.69108200  1
  O  O90  1  0.77359000  0.60760500  0.19108200  1
  O  O91  1  0.27359000  0.89239500  0.80891800  1
  O  O92  1  0.77359000  0.89239500  0.69108200  1
  O  O93  1  0.27359000  0.60760500  0.30891800  1
  O  O94  1  0.22641000  0.39239500  0.80891800  1
  O  O95  1  0.72641000  0.10760500  0.19108200  1
