# generated using pymatgen
data_CsGaSe3
_symmetry_space_group_name_H-M   'P 1'
_cell_length_a   6.91203500
_cell_length_b   13.29842600
_cell_length_c   7.96936651
_cell_angle_alpha   90.00000000
_cell_angle_beta   106.52630295
_cell_angle_gamma   90.00000000
_symmetry_Int_Tables_number   1
_chemical_formula_structural   CsGaSe3
_chemical_formula_sum   'Cs4 Ga4 Se12'
_cell_volume   702.27600091
_cell_formula_units_Z   4
loop_
 _symmetry_equiv_pos_site_id
 _symmetry_equiv_pos_as_xyz
  1  'x, y, z'
loop_
 _atom_site_type_symbol
 _atom_site_label
 _atom_site_symmetry_multiplicity
 _atom_site_fract_x
 _atom_site_fract_y
 _atom_site_fract_z
 _atom_site_occupancy
  Cs  Cs0  1  0.21432100  0.58089100  0.74682500  1
  Cs  Cs1  1  0.28567900  0.08089100  0.25317500  1
  Cs  Cs2  1  0.78567900  0.41910900  0.25317500  1
  Cs  Cs3  1  0.71432100  0.91910900  0.74682500  1
  Ga  Ga4  1  0.14287800  0.72799400  0.18248700  1
  Ga  Ga5  1  0.35712200  0.22799400  0.81751300  1
  Ga  Ga6  1  0.85712200  0.27200600  0.81751300  1
  Ga  Ga7  1  0.64287800  0.77200600  0.18248700  1
  Se  Se8  1  0.84646500  0.92150200  0.29430700  1
  Se  Se9  1  0.65353500  0.42150200  0.70569300  1
  Se  Se10  1  0.15353500  0.07849800  0.70569300  1
  Se  Se11  1  0.34646500  0.57849800  0.29430700  1
  Se  Se12  1  0.18698500  0.32579700  0.99368800  1
  Se  Se13  1  0.31301500  0.82579700  0.00631200  1
  Se  Se14  1  0.81301500  0.67420300  0.00631200  1
  Se  Se15  1  0.68698500  0.17420300  0.99368800  1
  Se  Se16  1  0.13641500  0.82447900  0.44420100  1
  Se  Se17  1  0.36358500  0.32447900  0.55579900  1
  Se  Se18  1  0.86358500  0.17552100  0.55579900  1
  Se  Se19  1  0.63641500  0.67552100  0.44420100  1
