# generated using pymatgen
data_SiO2
_symmetry_space_group_name_H-M   'P 1'
_cell_length_a   8.22245400
_cell_length_b   8.76787800
_cell_length_c   4.76747500
_cell_angle_alpha   90.00000000
_cell_angle_beta   90.00000000
_cell_angle_gamma   90.00000000
_symmetry_Int_Tables_number   1
_chemical_formula_structural   SiO2
_chemical_formula_sum   'Si8 O16'
_cell_volume   343.70383273
_cell_formula_units_Z   8
loop_
 _symmetry_equiv_pos_site_id
 _symmetry_equiv_pos_as_xyz
  1  'x, y, z'
loop_
 _atom_site_type_symbol
 _atom_site_label
 _atom_site_symmetry_multiplicity
 _atom_site_fract_x
 _atom_site_fract_y
 _atom_site_fract_z
 _atom_site_occupancy
  Si  Si0  1  0.81575300  0.83716300  0.36868900  1
  Si  Si1  1  0.18424700  0.16283700  0.86868900  1
  Si  Si2  1  0.18424700  0.83716300  0.13131100  1
  Si  Si3  1  0.81575300  0.16283700  0.63131100  1
  Si  Si4  1  0.31575300  0.33716300  0.36868900  1
  Si  Si5  1  0.68424700  0.66283700  0.86868900  1
  Si  Si6  1  0.68424700  0.33716300  0.13131100  1
  Si  Si7  1  0.31575300  0.66283700  0.63131100  1
  O  O8  1  0.30687350  0.79296150  0.38713500  1
  O  O9  1  0.30687350  0.20703850  0.61286500  1
  O  O10  1  0.24087400  0.00000000  0.00000000  1
  O  O11  1  0.69312650  0.20703850  0.88713500  1
  O  O12  1  0.69312650  0.79296150  0.11286500  1
  O  O13  1  0.50000000  0.34930400  0.25000000  1
  O  O14  1  0.75912600  0.00000000  0.50000000  1
  O  O15  1  0.50000000  0.65069600  0.75000000  1
  O  O16  1  0.80687350  0.29296150  0.38713500  1
  O  O17  1  0.80687350  0.70703850  0.61286500  1
  O  O18  1  0.74087400  0.50000000  0.00000000  1
  O  O19  1  0.19312650  0.70703850  0.88713500  1
  O  O20  1  0.19312650  0.29296150  0.11286500  1
  O  O21  1  0.00000000  0.84930400  0.25000000  1
  O  O22  1  0.25912600  0.50000000  0.50000000  1
  O  O23  1  0.00000000  0.15069600  0.75000000  1
