# generated using pymatgen
data_Ba9(NbN6)2
_symmetry_space_group_name_H-M   'P 1'
_cell_length_a   8.16340600
_cell_length_b   9.83447690
_cell_length_c   12.88653206
_cell_angle_alpha   76.61447703
_cell_angle_beta   85.78826774
_cell_angle_gamma   88.06481936
_symmetry_Int_Tables_number   1
_chemical_formula_structural   Ba9(NbN6)2
_chemical_formula_sum   'Ba18 Nb4 N24'
_cell_volume   1003.59470627
_cell_formula_units_Z   2
loop_
 _symmetry_equiv_pos_site_id
 _symmetry_equiv_pos_as_xyz
  1  'x, y, z'
loop_
 _atom_site_type_symbol
 _atom_site_label
 _atom_site_symmetry_multiplicity
 _atom_site_fract_x
 _atom_site_fract_y
 _atom_site_fract_z
 _atom_site_occupancy
  Ba  Ba0  1  0.49422600  0.33733800  0.41556200  1
  Ba  Ba1  1  0.50577400  0.66266200  0.58443800  1
  Ba  Ba2  1  0.46691300  0.62096500  0.12631600  1
  Ba  Ba3  1  0.53308700  0.37903500  0.87368400  1
  Ba  Ba4  1  0.03282700  0.25203000  0.37316600  1
  Ba  Ba5  1  0.96717300  0.74797000  0.62683400  1
  Ba  Ba6  1  0.25851800  0.01886600  0.00267400  1
  Ba  Ba7  1  0.74148200  0.98113400  0.99732600  1
  Ba  Ba8  1  0.17013100  0.58776600  0.38025300  1
  Ba  Ba9  1  0.82986900  0.41223400  0.61974700  1
  Ba  Ba10  1  0.45876800  0.92183900  0.26539800  1
  Ba  Ba11  1  0.54123200  0.07816100  0.73460200  1
  Ba  Ba12  1  0.01348600  0.06576800  0.73433600  1
  Ba  Ba13  1  0.98651400  0.93423200  0.26566400  1
  Ba  Ba14  1  0.01188700  0.38049200  0.89141100  1
  Ba  Ba15  1  0.98811300  0.61950800  0.10858900  1
  Ba  Ba16  1  0.26656000  0.70107800  0.84947500  1
  Ba  Ba17  1  0.73344000  0.29892200  0.15052500  1
  Nb  Nb18  1  0.26730000  0.30128100  0.12163000  1
  Nb  Nb19  1  0.73270000  0.69871900  0.87837000  1
  Nb  Nb20  1  0.26911100  0.36249400  0.66073600  1
  Nb  Nb21  1  0.73088900  0.63750600  0.33926400  1
  N  N22  1  0.19814600  0.54451600  0.69630900  1
  N  N23  1  0.80185400  0.45548400  0.30369100  1
  N  N24  1  0.28312100  0.37393100  0.25344700  1
  N  N25  1  0.71687900  0.62606900  0.74655300  1
  N  N26  1  0.05907200  0.19973300  0.12523600  1
  N  N27  1  0.94092800  0.80026700  0.87476400  1
  N  N28  1  0.21700800  0.80601400  0.17807300  1
  N  N29  1  0.78299200  0.19398600  0.82192700  1
  N  N30  1  0.14422200  0.32279800  0.54439700  1
  N  N31  1  0.85577800  0.67720200  0.45560300  1
  N  N32  1  0.24695200  0.20702100  0.79056100  1
  N  N33  1  0.75304800  0.79297900  0.20943900  1
  N  N34  1  0.49578100  0.63173500  0.38217800  1
  N  N35  1  0.50421900  0.36826500  0.61782200  1
  N  N36  1  0.26391200  0.46944400  0.00324200  1
  N  N37  1  0.73608800  0.53055600  0.99675800  1
  N  N38  1  0.45571600  0.17439800  0.08944700  1
  N  N39  1  0.54428400  0.82560200  0.91055300  1
  N  N40  1  0.21275400  0.95841600  0.44338300  1
  N  N41  1  0.78724600  0.04158400  0.55661700  1
  N  N42  1  0.31432300  0.92238800  0.61644500  1
  N  N43  1  0.68567700  0.07761200  0.38355500  1
  N  N44  1  0.26577800  0.94217000  0.52922800  1
  N  N45  1  0.73422200  0.05783000  0.47077200  1
