# generated using pymatgen
data_Pr4Se3(O5F3)2
_symmetry_space_group_name_H-M   'P 1'
_cell_length_a   22.63650000
_cell_length_b   7.19982600
_cell_length_c   8.44072339
_cell_angle_alpha   90.00000000
_cell_angle_beta   99.10544126
_cell_angle_gamma   90.00000000
_symmetry_Int_Tables_number   1
_chemical_formula_structural   Pr4Se3(O5F3)2
_chemical_formula_sum   'Pr16 Se12 O40 F24'
_cell_volume   1358.32450204
_cell_formula_units_Z   4
loop_
 _symmetry_equiv_pos_site_id
 _symmetry_equiv_pos_as_xyz
  1  'x, y, z'
loop_
 _atom_site_type_symbol
 _atom_site_label
 _atom_site_symmetry_multiplicity
 _atom_site_fract_x
 _atom_site_fract_y
 _atom_site_fract_z
 _atom_site_occupancy
  Pr  Pr0  1  0.71269400  0.43175500  0.66960100  1
  Pr  Pr1  1  0.87087250  0.58535550  0.46935600  1
  Pr  Pr2  1  0.62912750  0.91464450  0.53064400  1
  Pr  Pr3  1  0.71269400  0.56824500  0.16960100  1
  Pr  Pr4  1  0.62912750  0.08535550  0.03064400  1
  Pr  Pr5  1  0.78730600  0.06824500  0.33039900  1
  Pr  Pr6  1  0.78730600  0.93175500  0.83039900  1
  Pr  Pr7  1  0.87087250  0.41464450  0.96935600  1
  Pr  Pr8  1  0.21269400  0.93175500  0.66960100  1
  Pr  Pr9  1  0.37087250  0.08535550  0.46935600  1
  Pr  Pr10  1  0.12912750  0.41464450  0.53064400  1
  Pr  Pr11  1  0.21269400  0.06824500  0.16960100  1
  Pr  Pr12  1  0.12912750  0.58535550  0.03064400  1
  Pr  Pr13  1  0.28730600  0.56824500  0.33039900  1
  Pr  Pr14  1  0.28730600  0.43175500  0.83039900  1
  Pr  Pr15  1  0.37087250  0.91464450  0.96935600  1
  Se  Se16  1  0.59288800  0.42299500  0.36638700  1
  Se  Se17  1  0.00000000  0.61038100  0.75000000  1
  Se  Se18  1  0.90711200  0.92299500  0.13361300  1
  Se  Se19  1  0.59288800  0.57700500  0.86638700  1
  Se  Se20  1  0.90711200  0.07700500  0.63361300  1
  Se  Se21  1  0.00000000  0.38961900  0.25000000  1
  Se  Se22  1  0.09288800  0.92299500  0.36638700  1
  Se  Se23  1  0.50000000  0.11038100  0.75000000  1
  Se  Se24  1  0.40711200  0.42299500  0.13361300  1
  Se  Se25  1  0.09288800  0.07700500  0.86638700  1
  Se  Se26  1  0.40711200  0.57700500  0.63361300  1
  Se  Se27  1  0.50000000  0.88961900  0.25000000  1
  O  O28  1  0.93873500  0.47918100  0.75637300  1
  O  O29  1  0.98032850  0.27061750  0.08019800  1
  O  O30  1  0.85530600  0.10520900  0.09966900  1
  O  O31  1  0.56126500  0.02081900  0.24362700  1
  O  O32  1  0.62766150  0.26488750  0.50845000  1
  O  O33  1  0.87233850  0.23511250  0.49155000  1
  O  O34  1  0.62766150  0.73511250  0.00845000  1
  O  O35  1  0.64469400  0.60520900  0.40033100  1
  O  O36  1  0.51967150  0.22938250  0.91980200  1
  O  O37  1  0.61634800  0.64045200  0.69085000  1
  O  O38  1  0.88365200  0.85954800  0.30915000  1
  O  O39  1  0.87233850  0.76488750  0.99155000  1
  O  O40  1  0.61634800  0.35954800  0.19085000  1
  O  O41  1  0.93873500  0.52081900  0.25637300  1
  O  O42  1  0.51967150  0.77061750  0.41980200  1
  O  O43  1  0.56126500  0.97918100  0.74362700  1
  O  O44  1  0.98032850  0.72938250  0.58019800  1
  O  O45  1  0.64469400  0.39479100  0.90033100  1
  O  O46  1  0.88365200  0.14045200  0.80915000  1
  O  O47  1  0.85530600  0.89479100  0.59966900  1
  O  O48  1  0.43873500  0.97918100  0.75637300  1
  O  O49  1  0.48032850  0.77061750  0.08019800  1
  O  O50  1  0.35530600  0.60520900  0.09966900  1
  O  O51  1  0.06126500  0.52081900  0.24362700  1
  O  O52  1  0.12766150  0.76488750  0.50845000  1
  O  O53  1  0.37233850  0.73511250  0.49155000  1
  O  O54  1  0.12766150  0.23511250  0.00845000  1
  O  O55  1  0.14469400  0.10520900  0.40033100  1
  O  O56  1  0.01967150  0.72938250  0.91980200  1
  O  O57  1  0.11634800  0.14045200  0.69085000  1
  O  O58  1  0.38365200  0.35954800  0.30915000  1
  O  O59  1  0.37233850  0.26488750  0.99155000  1
  O  O60  1  0.11634800  0.85954800  0.19085000  1
  O  O61  1  0.43873500  0.02081900  0.25637300  1
  O  O62  1  0.01967150  0.27061750  0.41980200  1
  O  O63  1  0.06126500  0.47918100  0.74362700  1
  O  O64  1  0.48032850  0.22938250  0.58019800  1
  O  O65  1  0.14469400  0.89479100  0.90033100  1
  O  O66  1  0.38365200  0.64045200  0.80915000  1
  O  O67  1  0.35530600  0.39479100  0.59966900  1
  F  F68  1  0.72313900  0.75809900  0.63275700  1
  F  F69  1  0.82115600  0.53295600  0.70202100  1
  F  F70  1  0.67884400  0.96704400  0.29797900  1
  F  F71  1  0.75395300  0.60220900  0.91971400  1
  F  F72  1  0.75395300  0.39779100  0.41971400  1
  F  F73  1  0.77686100  0.25809900  0.86724300  1
  F  F74  1  0.82115600  0.46704400  0.20202100  1
  F  F75  1  0.74604700  0.89779100  0.08028600  1
  F  F76  1  0.77686100  0.74190100  0.36724300  1
  F  F77  1  0.72313900  0.24190100  0.13275700  1
  F  F78  1  0.67884400  0.03295600  0.79797900  1
  F  F79  1  0.74604700  0.10220900  0.58028600  1
  F  F80  1  0.22313900  0.25809900  0.63275700  1
  F  F81  1  0.32115600  0.03295600  0.70202100  1
  F  F82  1  0.17884400  0.46704400  0.29797900  1
  F  F83  1  0.25395300  0.10220900  0.91971400  1
  F  F84  1  0.25395300  0.89779100  0.41971400  1
  F  F85  1  0.27686100  0.75809900  0.86724300  1
  F  F86  1  0.32115600  0.96704400  0.20202100  1
  F  F87  1  0.24604700  0.39779100  0.08028600  1
  F  F88  1  0.27686100  0.24190100  0.36724300  1
  F  F89  1  0.22313900  0.74190100  0.13275700  1
  F  F90  1  0.17884400  0.53295600  0.79797900  1
  F  F91  1  0.24604700  0.60220900  0.58028600  1
