# generated using pymatgen
data_Nd10Ti12O39
_symmetry_space_group_name_H-M   'P 1'
_cell_length_a   7.27300900
_cell_length_b   10.29126850
_cell_length_c   12.53064596
_cell_angle_alpha   113.59612546
_cell_angle_beta   106.80972902
_cell_angle_gamma   88.92613835
_symmetry_Int_Tables_number   1
_chemical_formula_structural   Nd10Ti12O39
_chemical_formula_sum   'Nd10 Ti12 O39'
_cell_volume   817.70924843
_cell_formula_units_Z   1
loop_
 _symmetry_equiv_pos_site_id
 _symmetry_equiv_pos_as_xyz
  1  'x, y, z'
loop_
 _atom_site_type_symbol
 _atom_site_label
 _atom_site_symmetry_multiplicity
 _atom_site_fract_x
 _atom_site_fract_y
 _atom_site_fract_z
 _atom_site_occupancy
  Nd  Nd0  1  0.63842800  0.17432500  0.82939200  1
  Nd  Nd1  1  0.83555600  0.83457700  0.68069700  1
  Nd  Nd2  1  0.00533300  0.49224300  0.50908500  1
  Nd  Nd3  1  0.34706400  0.82954900  0.68719600  1
  Nd  Nd4  1  0.15948800  0.15726300  0.32383200  1
  Nd  Nd5  1  0.49418000  0.98578500  0.49336000  1
  Nd  Nd6  1  0.35474600  0.83068500  0.14903200  1
  Nd  Nd7  1  0.66790300  0.16757600  0.33566300  1
  Nd  Nd8  1  0.81832700  0.35218500  0.17097100  1
  Nd  Nd9  1  0.02456000  0.50667400  0.97950800  1
  Ti  Ti10  1  0.98536000  0.99973400  0.99592200  1
  Ti  Ti11  1  0.49598200  0.00676900  0.00513700  1
  Ti  Ti12  1  0.33242800  0.33529000  0.66750200  1
  Ti  Ti13  1  0.49338100  0.50448700  0.50002500  1
  Ti  Ti14  1  0.65825900  0.66018800  0.83840300  1
  Ti  Ti15  1  0.82469100  0.33631400  0.66588500  1
  Ti  Ti16  1  0.67528600  0.66691300  0.33635200  1
  Ti  Ti17  1  0.16588800  0.16962300  0.84045100  1
  Ti  Ti18  1  0.84348800  0.82916800  0.16771300  1
  Ti  Ti19  1  0.00248400  0.00381400  0.50563100  1
  Ti  Ti20  1  0.16688200  0.67348400  0.33040600  1
  Ti  Ti21  1  0.32186600  0.33600700  0.16648400  1
  O  O22  1  0.32702000  0.25615200  0.78306500  1
  O  O23  1  0.77683700  0.66713600  0.00072300  1
  O  O24  1  0.75254600  0.10536700  0.00202200  1
  O  O25  1  0.87575200  0.82099500  0.87167600  1
  O  O26  1  0.85062600  0.52145700  0.79465800  1
  O  O27  1  0.71050000  0.61093700  0.48312700  1
  O  O28  1  0.93195400  0.28579800  0.81824800  1
  O  O29  1  0.07175100  0.38640000  0.65266500  1
  O  O30  1  0.26059400  0.94700700  0.01260400  1
  O  O31  1  0.08601200  0.98307500  0.66256900  1
  O  O32  1  0.38267300  0.05841800  0.86629500  1
  O  O33  1  0.01688000  0.94550100  0.13128900  1
  O  O34  1  0.21577800  0.13009300  0.52484000  1
  O  O35  1  0.17638400  0.85220700  0.45447000  1
  O  O36  1  0.27428900  0.61445200  0.48059200  1
  O  O37  1  0.46137900  0.51410000  0.78477200  1
  O  O38  1  0.49768900  0.81592200  0.87310100  1
  O  O39  1  0.58511100  0.66186300  0.66943200  1
  O  O40  1  0.41614300  0.02334300  0.31764000  1
  O  O41  1  0.57931500  0.95588700  0.67676800  1
  O  O42  1  0.42057900  0.73169300  0.33812000  1
  O  O43  1  0.57991400  0.24505200  0.66187400  1
  O  O44  1  0.41421900  0.34941900  0.33659900  1
  O  O45  1  0.52098300  0.19727600  0.13899200  1
  O  O46  1  0.70997200  0.38512900  0.53167300  1
  O  O47  1  0.55189600  0.47936700  0.21550900  1
  O  O48  1  0.97960800  0.05527200  0.86023900  1
  O  O49  1  0.62620300  0.94011700  0.12876300  1
  O  O50  1  0.77751100  0.85793600  0.47185700  1
  O  O51  1  0.81313300  0.13554500  0.53221900  1
  O  O52  1  0.91592700  0.99424700  0.33041800  1
  O  O53  1  0.91402900  0.30459700  0.33501100  1
  O  O54  1  0.92204900  0.59180500  0.33206400  1
  O  O55  1  0.07800200  0.72998100  0.19255500  1
  O  O56  1  0.31360200  0.38796700  0.52948300  1
  O  O57  1  0.11839100  0.20048500  0.14139500  1
  O  O58  1  0.11837700  0.47219600  0.17615600  1
  O  O59  1  0.25066500  0.31816700  0.99638500  1
  O  O60  1  0.66412800  0.73998700  0.21148200  1
