# generated using pymatgen
data_Cs2Ge2S5
_symmetry_space_group_name_H-M   'P 1'
_cell_length_a   16.15016000
_cell_length_b   16.26478400
_cell_length_c   9.67154260
_cell_angle_alpha   90.00000000
_cell_angle_beta   105.35833451
_cell_angle_gamma   90.00000000
_symmetry_Int_Tables_number   1
_chemical_formula_structural   Cs2Ge2S5
_chemical_formula_sum   'Cs16 Ge16 S40'
_cell_volume   2449.78380057
_cell_formula_units_Z   8
loop_
 _symmetry_equiv_pos_site_id
 _symmetry_equiv_pos_as_xyz
  1  'x, y, z'
loop_
 _atom_site_type_symbol
 _atom_site_label
 _atom_site_symmetry_multiplicity
 _atom_site_fract_x
 _atom_site_fract_y
 _atom_site_fract_z
 _atom_site_occupancy
  Cs  Cs0  1  0.86594850  0.92689750  0.86057300  1
  Cs  Cs1  1  0.13405150  0.07310250  0.13942700  1
  Cs  Cs2  1  0.34557300  0.86588400  0.12984900  1
  Cs  Cs3  1  0.65442700  0.86588400  0.37015100  1
  Cs  Cs4  1  0.13405150  0.92689750  0.63942700  1
  Cs  Cs5  1  0.86594850  0.07310250  0.36057300  1
  Cs  Cs6  1  0.34557300  0.13411600  0.62984900  1
  Cs  Cs7  1  0.65442700  0.13411600  0.87015100  1
  Cs  Cs8  1  0.36594850  0.42689750  0.86057300  1
  Cs  Cs9  1  0.63405150  0.57310250  0.13942700  1
  Cs  Cs10  1  0.84557300  0.36588400  0.12984900  1
  Cs  Cs11  1  0.15442700  0.36588400  0.37015100  1
  Cs  Cs12  1  0.63405150  0.42689750  0.63942700  1
  Cs  Cs13  1  0.36594850  0.57310250  0.36057300  1
  Cs  Cs14  1  0.84557300  0.63411600  0.62984900  1
  Cs  Cs15  1  0.15442700  0.63411600  0.87015100  1
  Ge  Ge16  1  0.43621600  0.29451300  0.38023700  1
  Ge  Ge17  1  0.39796100  0.86742800  0.60553300  1
  Ge  Ge18  1  0.56378400  0.70548700  0.61976300  1
  Ge  Ge19  1  0.56378400  0.29451300  0.11976300  1
  Ge  Ge20  1  0.60203900  0.13257200  0.39446700  1
  Ge  Ge21  1  0.39796100  0.13257200  0.10553300  1
  Ge  Ge22  1  0.60203900  0.86742800  0.89446700  1
  Ge  Ge23  1  0.43621600  0.70548700  0.88023700  1
  Ge  Ge24  1  0.93621600  0.79451300  0.38023700  1
  Ge  Ge25  1  0.89796100  0.36742800  0.60553300  1
  Ge  Ge26  1  0.06378400  0.20548700  0.61976300  1
  Ge  Ge27  1  0.06378400  0.79451300  0.11976300  1
  Ge  Ge28  1  0.10203900  0.63257200  0.39446700  1
  Ge  Ge29  1  0.89796100  0.63257200  0.10553300  1
  Ge  Ge30  1  0.10203900  0.36742800  0.89446700  1
  Ge  Ge31  1  0.93621600  0.20548700  0.88023700  1
  S  S32  1  0.33397450  0.78560650  0.73958800  1
  S  S33  1  0.30175350  0.94041750  0.46421500  1
  S  S34  1  0.50000000  0.62194100  0.75000000  1
  S  S35  1  0.69824650  0.94041750  0.03578500  1
  S  S36  1  0.61666700  0.63000600  0.48246600  1
  S  S37  1  0.45993150  0.21676750  0.97266800  1
  S  S38  1  0.50000000  0.94760700  0.75000000  1
  S  S39  1  0.50000000  0.05239300  0.25000000  1
  S  S40  1  0.33397450  0.21439350  0.23958800  1
  S  S41  1  0.54006850  0.21676750  0.52733200  1
  S  S42  1  0.38333300  0.36999400  0.51753400  1
  S  S43  1  0.66602550  0.78560650  0.76041200  1
  S  S44  1  0.61666700  0.36999400  0.98246600  1
  S  S45  1  0.50000000  0.37805900  0.25000000  1
  S  S46  1  0.30175350  0.05958250  0.96421500  1
  S  S47  1  0.38333300  0.63000600  0.01753400  1
  S  S48  1  0.66602550  0.21439350  0.26041200  1
  S  S49  1  0.69824650  0.05958250  0.53578500  1
  S  S50  1  0.54006850  0.78323250  0.02733200  1
  S  S51  1  0.45993150  0.78323250  0.47266800  1
  S  S52  1  0.83397450  0.28560650  0.73958800  1
  S  S53  1  0.80175350  0.44041750  0.46421500  1
  S  S54  1  0.00000000  0.12194100  0.75000000  1
  S  S55  1  0.19824650  0.44041750  0.03578500  1
  S  S56  1  0.11666700  0.13000600  0.48246600  1
  S  S57  1  0.95993150  0.71676750  0.97266800  1
  S  S58  1  0.00000000  0.44760700  0.75000000  1
  S  S59  1  0.00000000  0.55239300  0.25000000  1
  S  S60  1  0.83397450  0.71439350  0.23958800  1
  S  S61  1  0.04006850  0.71676750  0.52733200  1
  S  S62  1  0.88333300  0.86999400  0.51753400  1
  S  S63  1  0.16602550  0.28560650  0.76041200  1
  S  S64  1  0.11666700  0.86999400  0.98246600  1
  S  S65  1  0.00000000  0.87805900  0.25000000  1
  S  S66  1  0.80175350  0.55958250  0.96421500  1
  S  S67  1  0.88333300  0.13000600  0.01753400  1
  S  S68  1  0.16602550  0.71439350  0.26041200  1
  S  S69  1  0.19824650  0.55958250  0.53578500  1
  S  S70  1  0.04006850  0.28323250  0.02733200  1
  S  S71  1  0.95993150  0.28323250  0.47266800  1
