# generated using pymatgen
data_P2Pb3O8
_symmetry_space_group_name_H-M   'P 1'
_cell_length_a   9.54364400
_cell_length_b   5.64110000
_cell_length_c   7.58101384
_cell_angle_alpha   90.00000000
_cell_angle_beta   115.06642319
_cell_angle_gamma   90.00000000
_symmetry_Int_Tables_number   1
_chemical_formula_structural   P2Pb3O8
_chemical_formula_sum   'P4 Pb6 O16'
_cell_volume   369.69697658
_cell_formula_units_Z   2
loop_
 _symmetry_equiv_pos_site_id
 _symmetry_equiv_pos_as_xyz
  1  'x, y, z'
loop_
 _atom_site_type_symbol
 _atom_site_label
 _atom_site_symmetry_multiplicity
 _atom_site_fract_x
 _atom_site_fract_y
 _atom_site_fract_z
 _atom_site_occupancy
  P  P0  1  0.40423100  0.50000000  0.20827900  1
  P  P1  1  0.59576900  0.50000000  0.79172100  1
  P  P2  1  0.90423100  0.00000000  0.20827900  1
  P  P3  1  0.09576900  0.00000000  0.79172100  1
  Pb  Pb4  1  0.77794500  0.50000000  0.35827200  1
  Pb  Pb5  1  0.22205500  0.50000000  0.64172800  1
  Pb  Pb6  1  0.00000000  0.50000000  0.00000000  1
  Pb  Pb7  1  0.27794500  0.00000000  0.35827200  1
  Pb  Pb8  1  0.72205500  0.00000000  0.64172800  1
  Pb  Pb9  1  0.50000000  0.00000000  0.00000000  1
  O  O10  1  0.99057450  0.22449050  0.71679700  1
  O  O11  1  0.00942550  0.77550950  0.28320300  1
  O  O12  1  0.00942550  0.22449050  0.28320300  1
  O  O13  1  0.99057450  0.77550950  0.71679700  1
  O  O14  1  0.72173700  0.50000000  0.71142500  1
  O  O15  1  0.27826300  0.50000000  0.28857500  1
  O  O16  1  0.32404100  0.50000000  0.98262600  1
  O  O17  1  0.67595900  0.50000000  0.01737400  1
  O  O18  1  0.49057450  0.72449050  0.71679700  1
  O  O19  1  0.50942550  0.27550950  0.28320300  1
  O  O20  1  0.50942550  0.72449050  0.28320300  1
  O  O21  1  0.49057450  0.27550950  0.71679700  1
  O  O22  1  0.22173700  0.00000000  0.71142500  1
  O  O23  1  0.77826300  0.00000000  0.28857500  1
  O  O24  1  0.82404100  0.00000000  0.98262600  1
  O  O25  1  0.17595900  0.00000000  0.01737400  1
