# generated using pymatgen
data_MgH6(CO3)2
_symmetry_space_group_name_H-M   'P 1'
_cell_length_a   7.55849000
_cell_length_b   8.53677300
_cell_length_c   8.75460800
_cell_angle_alpha   90.00000000
_cell_angle_beta   90.00000000
_cell_angle_gamma   90.00000000
_symmetry_Int_Tables_number   1
_chemical_formula_structural   MgH6(CO3)2
_chemical_formula_sum   'Mg4 H24 C8 O24'
_cell_volume   564.89207356
_cell_formula_units_Z   4
loop_
 _symmetry_equiv_pos_site_id
 _symmetry_equiv_pos_as_xyz
  1  'x, y, z'
loop_
 _atom_site_type_symbol
 _atom_site_label
 _atom_site_symmetry_multiplicity
 _atom_site_fract_x
 _atom_site_fract_y
 _atom_site_fract_z
 _atom_site_occupancy
  Mg  Mg0  1  0.50000000  0.50000000  0.00000000  1
  Mg  Mg1  1  0.00000000  0.50000000  0.50000000  1
  Mg  Mg2  1  0.00000000  0.00000000  0.00000000  1
  Mg  Mg3  1  0.50000000  0.00000000  0.50000000  1
  H  H4  1  0.83833400  0.48174000  0.88416100  1
  H  H5  1  0.93037600  0.31257400  0.17272300  1
  H  H6  1  0.16166600  0.01826000  0.38416100  1
  H  H7  1  0.15469500  0.88080800  0.50726000  1
  H  H8  1  0.56962400  0.81257400  0.82727700  1
  H  H9  1  0.06962400  0.68742600  0.82727700  1
  H  H10  1  0.43037600  0.68742600  0.32727700  1
  H  H11  1  0.93037600  0.81257400  0.32727700  1
  H  H12  1  0.34530500  0.38080800  0.49274000  1
  H  H13  1  0.66166600  0.98174000  0.11583900  1
  H  H14  1  0.84530500  0.11919200  0.49274000  1
  H  H15  1  0.33833400  0.01826000  0.88416100  1
  H  H16  1  0.15469500  0.38080800  0.99274000  1
  H  H17  1  0.66166600  0.48174000  0.38416100  1
  H  H18  1  0.06962400  0.18742600  0.67272300  1
  H  H19  1  0.56962400  0.31257400  0.67272300  1
  H  H20  1  0.65469500  0.61919200  0.50726000  1
  H  H21  1  0.84530500  0.61919200  0.00726000  1
  H  H22  1  0.34530500  0.88080800  0.00726000  1
  H  H23  1  0.16166600  0.51826000  0.11583900  1
  H  H24  1  0.43037600  0.18742600  0.17272300  1
  H  H25  1  0.83833400  0.98174000  0.61583900  1
  H  H26  1  0.65469500  0.11919200  0.99274000  1
  H  H27  1  0.33833400  0.51826000  0.61583900  1
  C  C28  1  0.51638600  0.73322800  0.73831300  1
  C  C29  1  0.48361400  0.76677200  0.23831300  1
  C  C30  1  0.48361400  0.26677200  0.26168700  1
  C  C31  1  0.01638600  0.76677200  0.73831300  1
  C  C32  1  0.01638600  0.26677200  0.76168700  1
  C  C33  1  0.98361400  0.23322800  0.26168700  1
  C  C34  1  0.98361400  0.73322800  0.23831300  1
  C  C35  1  0.51638600  0.23322800  0.76168700  1
  O  O36  1  0.04384800  0.60109400  0.27971700  1
  O  O37  1  0.77207800  0.53228500  0.96883500  1
  O  O38  1  0.72792200  0.03228500  0.03116500  1
  O  O39  1  0.97863500  0.27886500  0.40002000  1
  O  O40  1  0.54384800  0.89890600  0.27971700  1
  O  O41  1  0.27207800  0.96771500  0.96883500  1
  O  O42  1  0.22792200  0.96771500  0.46883500  1
  O  O43  1  0.45615200  0.10109400  0.72028300  1
  O  O44  1  0.04384800  0.10109400  0.22028300  1
  O  O45  1  0.27207800  0.46771500  0.53116500  1
  O  O46  1  0.02136500  0.72113500  0.59998000  1
  O  O47  1  0.54384800  0.39890600  0.22028300  1
  O  O48  1  0.52136500  0.77886500  0.59998000  1
  O  O49  1  0.02136500  0.22113500  0.90002000  1
  O  O50  1  0.95615200  0.89890600  0.77971700  1
  O  O51  1  0.95615200  0.39890600  0.72028300  1
  O  O52  1  0.52136500  0.27886500  0.90002000  1
  O  O53  1  0.72792200  0.53228500  0.46883500  1
  O  O54  1  0.45615200  0.60109400  0.77971700  1
  O  O55  1  0.22792200  0.46771500  0.03116500  1
  O  O56  1  0.97863500  0.77886500  0.09998000  1
  O  O57  1  0.47863500  0.22113500  0.40002000  1
  O  O58  1  0.47863500  0.72113500  0.09998000  1
  O  O59  1  0.77207800  0.03228500  0.53116500  1
