# generated using pymatgen
data_Zn2GeO4
_symmetry_space_group_name_H-M   'P 1'
_cell_length_a   14.47272209
_cell_length_b   14.47272209
_cell_length_c   9.66253775
_cell_angle_alpha   90.00000000
_cell_angle_beta   90.00000000
_cell_angle_gamma   120.00000000
_symmetry_Int_Tables_number   1
_chemical_formula_structural   Zn2GeO4
_chemical_formula_sum   'Zn36 Ge18 O72'
_cell_volume   1752.75930383
_cell_formula_units_Z   18
loop_
 _symmetry_equiv_pos_site_id
 _symmetry_equiv_pos_as_xyz
  1  'x, y, z'
loop_
 _atom_site_type_symbol
 _atom_site_label
 _atom_site_symmetry_multiplicity
 _atom_site_fract_x
 _atom_site_fract_y
 _atom_site_fract_z
 _atom_site_occupancy
  Zn  Zn0  1  0.68582167  0.14180933  0.41752133  1
  Zn  Zn1  1  0.85819067  0.54401233  0.41752133  1
  Zn  Zn2  1  0.45598767  0.31417833  0.41752133  1
  Zn  Zn3  1  0.31417833  0.85819067  0.58247867  1
  Zn  Zn4  1  0.14180933  0.45598767  0.58247867  1
  Zn  Zn5  1  0.54401233  0.68582167  0.58247867  1
  Zn  Zn6  1  0.02329467  0.80895333  0.41721733  1
  Zn  Zn7  1  0.19104667  0.21434133  0.41721733  1
  Zn  Zn8  1  0.78565867  0.97670533  0.41721733  1
  Zn  Zn9  1  0.97670533  0.19104667  0.58278267  1
  Zn  Zn10  1  0.80895333  0.78565867  0.58278267  1
  Zn  Zn11  1  0.21434133  0.02329467  0.58278267  1
  Zn  Zn12  1  0.35248833  0.47514267  0.75085467  1
  Zn  Zn13  1  0.52485733  0.87734567  0.75085467  1
  Zn  Zn14  1  0.12265433  0.64751167  0.75085467  1
  Zn  Zn15  1  0.98084500  0.19152400  0.91581200  1
  Zn  Zn16  1  0.80847600  0.78932100  0.91581200  1
  Zn  Zn17  1  0.21067900  0.01915500  0.91581200  1
  Zn  Zn18  1  0.68996133  0.14228667  0.75055067  1
  Zn  Zn19  1  0.85771333  0.54767467  0.75055067  1
  Zn  Zn20  1  0.45232533  0.31003867  0.75055067  1
  Zn  Zn21  1  0.64337200  0.52438000  0.91611600  1
  Zn  Zn22  1  0.47562000  0.11899200  0.91611600  1
  Zn  Zn23  1  0.88100800  0.35662800  0.91611600  1
  Zn  Zn24  1  0.01915500  0.80847600  0.08418800  1
  Zn  Zn25  1  0.19152400  0.21067900  0.08418800  1
  Zn  Zn26  1  0.78932100  0.98084500  0.08418800  1
  Zn  Zn27  1  0.64751167  0.52485733  0.24914533  1
  Zn  Zn28  1  0.47514267  0.12265433  0.24914533  1
  Zn  Zn29  1  0.87734567  0.35248833  0.24914533  1
  Zn  Zn30  1  0.35662800  0.47562000  0.08388400  1
  Zn  Zn31  1  0.52438000  0.88100800  0.08388400  1
  Zn  Zn32  1  0.11899200  0.64337200  0.08388400  1
  Zn  Zn33  1  0.31003867  0.85771333  0.24944933  1
  Zn  Zn34  1  0.14228667  0.45232533  0.24944933  1
  Zn  Zn35  1  0.54767467  0.68996133  0.24944933  1
  Ge  Ge36  1  0.01791967  0.80495533  0.75001533  1
  Ge  Ge37  1  0.19504467  0.21296433  0.75001533  1
  Ge  Ge38  1  0.78703567  0.98208033  0.75001533  1
  Ge  Ge39  1  0.98208033  0.19504467  0.24998467  1
  Ge  Ge40  1  0.80495533  0.78703567  0.24998467  1
  Ge  Ge41  1  0.21296433  0.01791967  0.24998467  1
  Ge  Ge42  1  0.68458633  0.13828867  0.08334867  1
  Ge  Ge43  1  0.86171133  0.54629767  0.08334867  1
  Ge  Ge44  1  0.45370233  0.31541367  0.08334867  1
  Ge  Ge45  1  0.64874700  0.52837800  0.58331800  1
  Ge  Ge46  1  0.47162200  0.12036900  0.58331800  1
  Ge  Ge47  1  0.87963100  0.35125300  0.58331800  1
  Ge  Ge48  1  0.35125300  0.47162200  0.41668200  1
  Ge  Ge49  1  0.52837800  0.87963100  0.41668200  1
  Ge  Ge50  1  0.12036900  0.64874700  0.41668200  1
  Ge  Ge51  1  0.31541367  0.86171133  0.91665133  1
  Ge  Ge52  1  0.13828867  0.45370233  0.91665133  1
  Ge  Ge53  1  0.54629767  0.68458633  0.91665133  1
  O  O54  1  0.33554400  0.34187200  0.41520200  1
  O  O55  1  0.65812800  0.99367200  0.41520200  1
  O  O56  1  0.00632800  0.66445600  0.41520200  1
  O  O57  1  0.66445600  0.65812800  0.58479800  1
  O  O58  1  0.34187200  0.00632800  0.58479800  1
  O  O59  1  0.99367200  0.33554400  0.58479800  1
  O  O60  1  0.10049333  0.88615267  0.24951167  1
  O  O61  1  0.11384733  0.21434067  0.24951167  1
  O  O62  1  0.78565933  0.89950667  0.24951167  1
  O  O63  1  0.89950667  0.11384733  0.75048833  1
  O  O64  1  0.88615267  0.78565933  0.75048833  1
  O  O65  1  0.21434067  0.10049333  0.75048833  1
  O  O66  1  0.08565800  0.87676000  0.59820500  1
  O  O67  1  0.12324000  0.20889800  0.59820500  1
  O  O68  1  0.79110200  0.91434200  0.59820500  1
  O  O69  1  0.91434200  0.12324000  0.40179500  1
  O  O70  1  0.87676000  0.79110200  0.40179500  1
  O  O71  1  0.20889800  0.08565800  0.40179500  1
  O  O72  1  0.87462000  0.41564000  0.42963900  1
  O  O73  1  0.54102000  0.12538000  0.42963900  1
  O  O74  1  0.58436000  0.45898000  0.42963900  1
  O  O75  1  0.12538000  0.58436000  0.57036100  1
  O  O76  1  0.45898000  0.87462000  0.57036100  1
  O  O77  1  0.41564000  0.54102000  0.57036100  1
  O  O78  1  0.00221067  0.67520533  0.74853533  1
  O  O79  1  0.32479467  0.32700533  0.74853533  1
  O  O80  1  0.67299467  0.99778933  0.74853533  1
  O  O81  1  0.33112267  0.99146133  0.91813133  1
  O  O82  1  0.00853867  0.33966133  0.91813133  1
  O  O83  1  0.66033867  0.66887733  0.91813133  1
  O  O84  1  0.76716000  0.21948600  0.58284500  1
  O  O85  1  0.78051400  0.54767400  0.58284500  1
  O  O86  1  0.45232600  0.23284000  0.58284500  1
  O  O87  1  0.56617333  0.44718067  0.08382167  1
  O  O88  1  0.55281933  0.11899267  0.08382167  1
  O  O89  1  0.88100733  0.43382667  0.08382167  1
  O  O90  1  0.75232467  0.21009333  0.93153833  1
  O  O91  1  0.78990667  0.54223133  0.93153833  1
  O  O92  1  0.45776867  0.24767533  0.93153833  1
  O  O93  1  0.58100867  0.45657333  0.73512833  1
  O  O94  1  0.54342667  0.12443533  0.73512833  1
  O  O95  1  0.87556467  0.41899133  0.73512833  1
  O  O96  1  0.54128667  0.74897333  0.76297233  1
  O  O97  1  0.20768667  0.45871333  0.76297233  1
  O  O98  1  0.25102667  0.79231333  0.76297233  1
  O  O99  1  0.79204667  0.91769333  0.90369433  1
  O  O100  1  0.12564667  0.20795333  0.90369433  1
  O  O101  1  0.08230667  0.87435333  0.90369433  1
  O  O102  1  0.66887733  0.00853867  0.08186867  1
  O  O103  1  0.99146133  0.66033867  0.08186867  1
  O  O104  1  0.33966133  0.33112267  0.08186867  1
  O  O105  1  0.99778933  0.32479467  0.25146467  1
  O  O106  1  0.67520533  0.67299467  0.25146467  1
  O  O107  1  0.32700533  0.00221067  0.25146467  1
  O  O108  1  0.43382667  0.55281933  0.91617833  1
  O  O109  1  0.44718067  0.88100733  0.91617833  1
  O  O110  1  0.11899267  0.56617333  0.91617833  1
  O  O111  1  0.23284000  0.78051400  0.41715500  1
  O  O112  1  0.21948600  0.45232600  0.41715500  1
  O  O113  1  0.54767400  0.76716000  0.41715500  1
  O  O114  1  0.41899133  0.54342667  0.26487167  1
  O  O115  1  0.45657333  0.87556467  0.26487167  1
  O  O116  1  0.12443533  0.58100867  0.26487167  1
  O  O117  1  0.24767533  0.78990667  0.06846167  1
  O  O118  1  0.21009333  0.45776867  0.06846167  1
  O  O119  1  0.54223133  0.75232467  0.06846167  1
  O  O120  1  0.20795333  0.08230667  0.09630567  1
  O  O121  1  0.87435333  0.79204667  0.09630567  1
  O  O122  1  0.91769333  0.12564667  0.09630567  1
  O  O123  1  0.45871333  0.25102667  0.23702767  1
  O  O124  1  0.79231333  0.54128667  0.23702767  1
  O  O125  1  0.74897333  0.20768667  0.23702767  1
