# generated using pymatgen
data_K2Zn2Si8O19
_symmetry_space_group_name_H-M   'P 1'
_cell_length_a   13.98537200
_cell_length_b   5.16451600
_cell_length_c   12.57837842
_cell_angle_alpha   90.00000000
_cell_angle_beta   107.22334848
_cell_angle_gamma   90.00000000
_symmetry_Int_Tables_number   1
_chemical_formula_structural   K2Zn2Si8O19
_chemical_formula_sum   'K4 Zn4 Si16 O38'
_cell_volume   867.76758550
_cell_formula_units_Z   2
loop_
 _symmetry_equiv_pos_site_id
 _symmetry_equiv_pos_as_xyz
  1  'x, y, z'
loop_
 _atom_site_type_symbol
 _atom_site_label
 _atom_site_symmetry_multiplicity
 _atom_site_fract_x
 _atom_site_fract_y
 _atom_site_fract_z
 _atom_site_occupancy
  K  K0  1  0.62304100  0.03226200  0.64869700  1
  K  K1  1  0.87695900  0.53226200  0.35130300  1
  K  K2  1  0.12304100  0.53226200  0.64869700  1
  K  K3  1  0.37695900  0.03226200  0.35130300  1
  Zn  Zn4  1  0.69953600  0.99627500  0.41130500  1
  Zn  Zn5  1  0.80046400  0.49627500  0.58869500  1
  Zn  Zn6  1  0.19953600  0.49627500  0.41130500  1
  Zn  Zn7  1  0.30046400  0.99627500  0.58869500  1
  Si  Si8  1  0.99765400  0.85564800  0.83265700  1
  Si  Si9  1  0.92700250  0.00405850  0.57537100  1
  Si  Si10  1  0.62591650  0.84518850  0.92672300  1
  Si  Si11  1  0.57299750  0.50405850  0.42462900  1
  Si  Si12  1  0.70398550  0.09137750  0.15948100  1
  Si  Si13  1  0.50234600  0.35564800  0.16734300  1
  Si  Si14  1  0.87408350  0.34518850  0.07327700  1
  Si  Si15  1  0.79601450  0.59137750  0.84051900  1
  Si  Si16  1  0.49765400  0.35564800  0.83265700  1
  Si  Si17  1  0.42700250  0.50405850  0.57537100  1
  Si  Si18  1  0.12591650  0.34518850  0.92672300  1
  Si  Si19  1  0.07299750  0.00405850  0.42462900  1
  Si  Si20  1  0.20398550  0.59137750  0.15948100  1
  Si  Si21  1  0.00234600  0.85564800  0.16734300  1
  Si  Si22  1  0.37408350  0.84518850  0.07327700  1
  Si  Si23  1  0.29601450  0.09137750  0.84051900  1
  O  O24  1  0.67484450  0.87157750  0.06042500  1
  O  O25  1  0.82515550  0.37157750  0.93957500  1
  O  O26  1  0.98663100  0.89119900  0.70089300  1
  O  O27  1  0.75540400  0.46666300  0.71892200  1
  O  O28  1  0.51336900  0.39119900  0.29910700  1
  O  O29  1  0.00000000  0.90582100  0.50000000  1
  O  O30  1  0.89264700  0.78340700  0.85455400  1
  O  O31  1  0.57783100  0.12084200  0.87405900  1
  O  O32  1  0.54030700  0.62100000  0.89938700  1
  O  O33  1  0.92216900  0.62084200  0.12594100  1
  O  O34  1  0.91702200  0.31427800  0.57157200  1
  O  O35  1  0.70889000  0.77933000  0.86343900  1
  O  O36  1  0.81873500  0.85383400  0.53351800  1
  O  O37  1  0.60735300  0.28340700  0.14544600  1
  O  O38  1  0.95969300  0.12100000  0.10061300  1
  O  O39  1  0.58297800  0.81427800  0.42842800  1
  O  O40  1  0.74459600  0.96666300  0.28107800  1
  O  O41  1  0.68126500  0.35383400  0.46648200  1
  O  O42  1  0.79111000  0.27933000  0.13656100  1
  O  O43  1  0.17484450  0.37157750  0.06042500  1
  O  O44  1  0.32515550  0.87157750  0.93957500  1
  O  O45  1  0.48663100  0.39119900  0.70089300  1
  O  O46  1  0.25540400  0.96666300  0.71892200  1
  O  O47  1  0.01336900  0.89119900  0.29910700  1
  O  O48  1  0.50000000  0.40582100  0.50000000  1
  O  O49  1  0.39264700  0.28340700  0.85455400  1
  O  O50  1  0.07783100  0.62084200  0.87405900  1
  O  O51  1  0.04030700  0.12100000  0.89938700  1
  O  O52  1  0.42216900  0.12084200  0.12594100  1
  O  O53  1  0.41702200  0.81427800  0.57157200  1
  O  O54  1  0.20889000  0.27933000  0.86343900  1
  O  O55  1  0.31873500  0.35383400  0.53351800  1
  O  O56  1  0.10735300  0.78340700  0.14544600  1
  O  O57  1  0.45969300  0.62100000  0.10061300  1
  O  O58  1  0.08297800  0.31427800  0.42842800  1
  O  O59  1  0.24459600  0.46666300  0.28107800  1
  O  O60  1  0.18126500  0.85383400  0.46648200  1
  O  O61  1  0.29111000  0.77933000  0.13656100  1
