# generated using pymatgen
data_TlPO3
_symmetry_space_group_name_H-M   'P 1'
_cell_length_a   11.09322000
_cell_length_b   11.26069400
_cell_length_c   16.27215100
_cell_angle_alpha   90.00000000
_cell_angle_beta   90.00000000
_cell_angle_gamma   90.00000000
_symmetry_Int_Tables_number   1
_chemical_formula_structural   TlPO3
_chemical_formula_sum   'Tl24 P24 O72'
_cell_volume   2032.67407764
_cell_formula_units_Z   24
loop_
 _symmetry_equiv_pos_site_id
 _symmetry_equiv_pos_as_xyz
  1  'x, y, z'
loop_
 _atom_site_type_symbol
 _atom_site_label
 _atom_site_symmetry_multiplicity
 _atom_site_fract_x
 _atom_site_fract_y
 _atom_site_fract_z
 _atom_site_occupancy
  Tl  Tl0  1  0.00083600  0.92515200  0.23640500  1
  Tl  Tl1  1  0.44936500  0.65389000  0.41701100  1
  Tl  Tl2  1  0.99916400  0.42515200  0.23640500  1
  Tl  Tl3  1  0.41507500  0.17874500  0.11050200  1
  Tl  Tl4  1  0.00083600  0.57484800  0.76359500  1
  Tl  Tl5  1  0.05063500  0.34611000  0.91701100  1
  Tl  Tl6  1  0.91507500  0.17874500  0.38949800  1
  Tl  Tl7  1  0.50083600  0.92515200  0.26359500  1
  Tl  Tl8  1  0.50083600  0.57484800  0.73640500  1
  Tl  Tl9  1  0.44936500  0.84611000  0.58298900  1
  Tl  Tl10  1  0.58492500  0.82125500  0.88949800  1
  Tl  Tl11  1  0.49916400  0.07484800  0.73640500  1
  Tl  Tl12  1  0.58492500  0.67874500  0.11050200  1
  Tl  Tl13  1  0.08492500  0.67874500  0.38949800  1
  Tl  Tl14  1  0.94936500  0.84611000  0.91701100  1
  Tl  Tl15  1  0.08492500  0.82125500  0.61050200  1
  Tl  Tl16  1  0.55063500  0.34611000  0.58298900  1
  Tl  Tl17  1  0.94936500  0.65389000  0.08298900  1
  Tl  Tl18  1  0.55063500  0.15389000  0.41701100  1
  Tl  Tl19  1  0.91507500  0.32125500  0.61050200  1
  Tl  Tl20  1  0.41507500  0.32125500  0.88949800  1
  Tl  Tl21  1  0.99916400  0.07484800  0.76359500  1
  Tl  Tl22  1  0.49916400  0.42515200  0.26359500  1
  Tl  Tl23  1  0.05063500  0.15389000  0.08298900  1
  P  P24  1  0.76832500  0.40623300  0.08113900  1
  P  P25  1  0.23167500  0.59376700  0.91886100  1
  P  P26  1  0.20736900  0.51692300  0.57762000  1
  P  P27  1  0.73167500  0.59376700  0.58113900  1
  P  P28  1  0.22921700  0.30389600  0.68610000  1
  P  P29  1  0.29263100  0.01692300  0.92238000  1
  P  P30  1  0.77078300  0.80389600  0.68610000  1
  P  P31  1  0.23167500  0.90623300  0.08113900  1
  P  P32  1  0.70736900  0.98307700  0.07762000  1
  P  P33  1  0.72921700  0.19610400  0.18610000  1
  P  P34  1  0.27078300  0.80389600  0.81390000  1
  P  P35  1  0.72921700  0.30389600  0.81390000  1
  P  P36  1  0.73167500  0.90623300  0.41886100  1
  P  P37  1  0.77078300  0.69610400  0.31390000  1
  P  P38  1  0.76832500  0.09376700  0.91886100  1
  P  P39  1  0.26832500  0.40623300  0.41886100  1
  P  P40  1  0.26832500  0.09376700  0.58113900  1
  P  P41  1  0.79263100  0.48307700  0.42238000  1
  P  P42  1  0.29263100  0.48307700  0.07762000  1
  P  P43  1  0.22921700  0.19610400  0.31390000  1
  P  P44  1  0.27078300  0.69610400  0.18610000  1
  P  P45  1  0.70736900  0.51692300  0.92238000  1
  P  P46  1  0.79263100  0.01692300  0.57762000  1
  P  P47  1  0.20736900  0.98307700  0.42238000  1
  O  O48  1  0.89193400  0.67839700  0.27409100  1
  O  O49  1  0.10191000  0.61230000  0.94338300  1
  O  O50  1  0.83493900  0.26019600  0.76476000  1
  O  O51  1  0.70415100  0.11331400  0.55725700  1
  O  O52  1  0.60806600  0.17839700  0.22590900  1
  O  O53  1  0.29584900  0.88668600  0.44274300  1
  O  O54  1  0.25631400  0.50126900  0.85379700  1
  O  O55  1  0.25631400  0.99873100  0.14620300  1
  O  O56  1  0.74368600  0.00126900  0.85379700  1
  O  O57  1  0.81687100  0.93221700  0.49815200  1
  O  O58  1  0.58488500  0.95160400  0.11072300  1
  O  O59  1  0.24368600  0.49873100  0.35379700  1
  O  O60  1  0.39809000  0.11230000  0.55661700  1
  O  O61  1  0.89193400  0.82160300  0.72590900  1
  O  O62  1  0.39809000  0.38770000  0.44338300  1
  O  O63  1  0.16506100  0.73980400  0.23524000  1
  O  O64  1  0.79584900  0.88668600  0.05725700  1
  O  O65  1  0.39193400  0.67839700  0.22590900  1
  O  O66  1  0.60806600  0.32160300  0.77409100  1
  O  O67  1  0.60191000  0.88770000  0.44338300  1
  O  O68  1  0.20415100  0.11331400  0.94274300  1
  O  O69  1  0.33493900  0.26019600  0.73524000  1
  O  O70  1  0.70547600  0.28167600  0.10677700  1
  O  O71  1  0.10191000  0.88770000  0.05661700  1
  O  O72  1  0.77536200  0.42489700  0.85952500  1
  O  O73  1  0.81687100  0.56778300  0.50184800  1
  O  O74  1  0.60191000  0.61230000  0.55661700  1
  O  O75  1  0.79584900  0.61331400  0.94274300  1
  O  O76  1  0.41511500  0.04839600  0.88927700  1
  O  O77  1  0.75631400  0.50126900  0.64620300  1
  O  O78  1  0.75631400  0.99873100  0.35379700  1
  O  O79  1  0.22463800  0.57510300  0.14047500  1
  O  O80  1  0.24368600  0.00126900  0.64620300  1
  O  O81  1  0.72463800  0.92489700  0.64047500  1
  O  O82  1  0.27536200  0.42489700  0.64047500  1
  O  O83  1  0.20547600  0.28167600  0.39322300  1
  O  O84  1  0.66506100  0.73980400  0.26476000  1
  O  O85  1  0.58488500  0.54839600  0.88927700  1
  O  O86  1  0.29584900  0.61331400  0.55725700  1
  O  O87  1  0.74368600  0.49873100  0.14620300  1
  O  O88  1  0.77536200  0.07510300  0.14047500  1
  O  O89  1  0.16506100  0.76019600  0.76476000  1
  O  O90  1  0.68312900  0.06778300  0.99815200  1
  O  O91  1  0.08488500  0.54839600  0.61072300  1
  O  O92  1  0.29452400  0.78167600  0.10677700  1
  O  O93  1  0.89809000  0.38770000  0.05661700  1
  O  O94  1  0.41511500  0.45160400  0.11072300  1
  O  O95  1  0.79452400  0.78167600  0.39322300  1
  O  O96  1  0.22463800  0.92489700  0.85952500  1
  O  O97  1  0.29452400  0.71832400  0.89322300  1
  O  O98  1  0.91511500  0.04839600  0.61072300  1
  O  O99  1  0.72463800  0.57510300  0.35952500  1
  O  O100  1  0.10806600  0.17839700  0.27409100  1
  O  O101  1  0.91511500  0.45160400  0.38927700  1
  O  O102  1  0.83493900  0.23980400  0.23524000  1
  O  O103  1  0.10806600  0.32160300  0.72590900  1
  O  O104  1  0.70415100  0.38668600  0.44274300  1
  O  O105  1  0.68312900  0.43221700  0.00184800  1
  O  O106  1  0.31687100  0.56778300  0.99815200  1
  O  O107  1  0.70547600  0.21832400  0.89322300  1
  O  O108  1  0.18312900  0.43221700  0.49815200  1
  O  O109  1  0.20547600  0.21832400  0.60677700  1
  O  O110  1  0.66506100  0.76019600  0.73524000  1
  O  O111  1  0.89809000  0.11230000  0.94338300  1
  O  O112  1  0.08488500  0.95160400  0.38927700  1
  O  O113  1  0.33493900  0.23980400  0.26476000  1
  O  O114  1  0.27536200  0.07510300  0.35952500  1
  O  O115  1  0.39193400  0.82160300  0.77409100  1
  O  O116  1  0.20415100  0.38668600  0.05725700  1
  O  O117  1  0.31687100  0.93221700  0.00184800  1
  O  O118  1  0.79452400  0.71832400  0.60677700  1
  O  O119  1  0.18312900  0.06778300  0.50184800  1
