# generated using pymatgen
data_CsTa(PO4)2
_symmetry_space_group_name_H-M   'P 1'
_cell_length_a   8.84545400
_cell_length_b   5.29086400
_cell_length_c   9.01689476
_cell_angle_alpha   90.00000000
_cell_angle_beta   93.27952602
_cell_angle_gamma   90.00000000
_symmetry_Int_Tables_number   1
_chemical_formula_structural   CsTa(PO4)2
_chemical_formula_sum   'Cs2 Ta2 P4 O16'
_cell_volume   421.30043779
_cell_formula_units_Z   2
loop_
 _symmetry_equiv_pos_site_id
 _symmetry_equiv_pos_as_xyz
  1  'x, y, z'
loop_
 _atom_site_type_symbol
 _atom_site_label
 _atom_site_symmetry_multiplicity
 _atom_site_fract_x
 _atom_site_fract_y
 _atom_site_fract_z
 _atom_site_occupancy
  Cs  Cs0  1  0.00000000  0.00000000  0.50000000  1
  Cs  Cs1  1  0.50000000  0.50000000  0.50000000  1
  Ta  Ta2  1  0.00000000  0.00000000  0.00000000  1
  Ta  Ta3  1  0.50000000  0.50000000  0.00000000  1
  P  P4  1  0.35506900  0.00000000  0.19181500  1
  P  P5  1  0.64493100  0.00000000  0.80818500  1
  P  P6  1  0.85506900  0.50000000  0.19181500  1
  P  P7  1  0.14493100  0.50000000  0.80818500  1
  O  O8  1  0.20863800  0.00000000  0.08483700  1
  O  O9  1  0.55139350  0.76337950  0.85412100  1
  O  O10  1  0.67611600  0.00000000  0.64754700  1
  O  O11  1  0.44860650  0.76337950  0.14587900  1
  O  O12  1  0.44860650  0.23662050  0.14587900  1
  O  O13  1  0.79136200  0.00000000  0.91516300  1
  O  O14  1  0.32388400  0.00000000  0.35245300  1
  O  O15  1  0.55139350  0.23662050  0.85412100  1
  O  O16  1  0.70863800  0.50000000  0.08483700  1
  O  O17  1  0.05139350  0.26337950  0.85412100  1
  O  O18  1  0.17611600  0.50000000  0.64754700  1
  O  O19  1  0.94860650  0.26337950  0.14587900  1
  O  O20  1  0.94860650  0.73662050  0.14587900  1
  O  O21  1  0.29136200  0.50000000  0.91516300  1
  O  O22  1  0.82388400  0.50000000  0.35245300  1
  O  O23  1  0.05139350  0.73662050  0.85412100  1
