# generated using pymatgen
data_TlPAuSe3
_symmetry_space_group_name_H-M   'P 1'
_cell_length_a   12.47824000
_cell_length_b   7.34766400
_cell_length_c   8.44251383
_cell_angle_alpha   90.00000000
_cell_angle_beta   119.85964680
_cell_angle_gamma   90.00000000
_symmetry_Int_Tables_number   1
_chemical_formula_structural   TlPAuSe3
_chemical_formula_sum   'Tl4 P4 Au4 Se12'
_cell_volume   671.30134692
_cell_formula_units_Z   4
loop_
 _symmetry_equiv_pos_site_id
 _symmetry_equiv_pos_as_xyz
  1  'x, y, z'
loop_
 _atom_site_type_symbol
 _atom_site_label
 _atom_site_symmetry_multiplicity
 _atom_site_fract_x
 _atom_site_fract_y
 _atom_site_fract_z
 _atom_site_occupancy
  Tl  Tl0  1  0.71503300  0.00000000  0.76985100  1
  Tl  Tl1  1  0.78496700  0.50000000  0.23014900  1
  Tl  Tl2  1  0.21503300  0.50000000  0.76985100  1
  Tl  Tl3  1  0.28496700  0.00000000  0.23014900  1
  P  P4  1  0.46823200  0.50000000  0.34711800  1
  P  P5  1  0.03176800  0.00000000  0.65288200  1
  P  P6  1  0.96823200  0.00000000  0.34711800  1
  P  P7  1  0.53176800  0.50000000  0.65288200  1
  Au  Au8  1  0.00000000  0.23832100  0.00000000  1
  Au  Au9  1  0.00000000  0.76167900  0.00000000  1
  Au  Au10  1  0.50000000  0.73832100  0.00000000  1
  Au  Au11  1  0.50000000  0.26167900  0.00000000  1
  Se  Se12  1  0.23274700  0.00000000  0.81101800  1
  Se  Se13  1  0.93783250  0.74689150  0.67503600  1
  Se  Se14  1  0.26725300  0.50000000  0.18898200  1
  Se  Se15  1  0.56216750  0.75310850  0.32496400  1
  Se  Se16  1  0.43783250  0.75310850  0.67503600  1
  Se  Se17  1  0.06216750  0.74689150  0.32496400  1
  Se  Se18  1  0.73274700  0.50000000  0.81101800  1
  Se  Se19  1  0.43783250  0.24689150  0.67503600  1
  Se  Se20  1  0.76725300  0.00000000  0.18898200  1
  Se  Se21  1  0.06216750  0.25310850  0.32496400  1
  Se  Se22  1  0.93783250  0.25310850  0.67503600  1
  Se  Se23  1  0.56216750  0.24689150  0.32496400  1
