# generated using pymatgen
data_Tl3Bi2I9
_symmetry_space_group_name_H-M   'P 1'
_cell_length_a   14.80314400
_cell_length_b   8.08885000
_cell_length_c   25.26500667
_cell_angle_alpha   90.00000000
_cell_angle_beta   122.72786886
_cell_angle_gamma   90.00000000
_symmetry_Int_Tables_number   1
_chemical_formula_structural   Tl3Bi2I9
_chemical_formula_sum   'Tl12 Bi8 I36'
_cell_volume   2544.97874793
_cell_formula_units_Z   4
loop_
 _symmetry_equiv_pos_site_id
 _symmetry_equiv_pos_as_xyz
  1  'x, y, z'
loop_
 _atom_site_type_symbol
 _atom_site_label
 _atom_site_symmetry_multiplicity
 _atom_site_fract_x
 _atom_site_fract_y
 _atom_site_fract_z
 _atom_site_occupancy
  Tl  Tl0  1  0.01918200  0.96050800  0.38481000  1
  Tl  Tl1  1  0.32467400  0.04275000  0.28604100  1
  Tl  Tl2  1  0.01918200  0.53949200  0.88481000  1
  Tl  Tl3  1  0.65225500  0.46229600  0.45186700  1
  Tl  Tl4  1  0.65225500  0.03770400  0.95186700  1
  Tl  Tl5  1  0.34774500  0.96229600  0.04813300  1
  Tl  Tl6  1  0.98081800  0.03949200  0.61519000  1
  Tl  Tl7  1  0.67532600  0.54275000  0.21395900  1
  Tl  Tl8  1  0.34774500  0.53770400  0.54813300  1
  Tl  Tl9  1  0.32467400  0.45725000  0.78604100  1
  Tl  Tl10  1  0.67532600  0.95725000  0.71395900  1
  Tl  Tl11  1  0.98081800  0.46050800  0.11519000  1
  Bi  Bi12  1  0.82752200  0.99745800  0.15988300  1
  Bi  Bi13  1  0.67340000  0.51507700  0.84055500  1
  Bi  Bi14  1  0.82752200  0.50254200  0.65988300  1
  Bi  Bi15  1  0.17247800  0.00254200  0.84011700  1
  Bi  Bi16  1  0.32660000  0.48492300  0.15944500  1
  Bi  Bi17  1  0.67340000  0.98492300  0.34055500  1
  Bi  Bi18  1  0.32660000  0.01507700  0.65944500  1
  Bi  Bi19  1  0.17247800  0.49745800  0.34011700  1
  I  I20  1  0.47630400  0.82177300  0.20948400  1
  I  I21  1  0.09757400  0.39034500  0.42395600  1
  I  I22  1  0.61861800  0.68168600  0.58316100  1
  I  I23  1  0.84872200  0.32243800  0.94904200  1
  I  I24  1  0.15127800  0.67756200  0.05095800  1
  I  I25  1  0.80705300  0.81935700  0.87591000  1
  I  I26  1  0.22892900  0.87307500  0.73984800  1
  I  I27  1  0.77107100  0.37307500  0.76015200  1
  I  I28  1  0.93624600  0.82712900  0.74834400  1
  I  I29  1  0.26880800  0.81072000  0.41291100  1
  I  I30  1  0.06375400  0.17287100  0.25165600  1
  I  I31  1  0.73119200  0.18928000  0.58708900  1
  I  I32  1  0.19294700  0.18064300  0.12409000  1
  I  I33  1  0.19294700  0.31935700  0.62409000  1
  I  I34  1  0.90242600  0.89034500  0.07604400  1
  I  I35  1  0.42786100  0.11151300  0.58893200  1
  I  I36  1  0.90242600  0.60965500  0.57604400  1
  I  I37  1  0.38138200  0.18168600  0.91683900  1
  I  I38  1  0.26880800  0.68928000  0.91291100  1
  I  I39  1  0.06375400  0.32712900  0.75165600  1
  I  I40  1  0.57213900  0.88848700  0.41106800  1
  I  I41  1  0.47630400  0.67822700  0.70948400  1
  I  I42  1  0.22892900  0.62692500  0.23984800  1
  I  I43  1  0.84872200  0.17756200  0.44904200  1
  I  I44  1  0.80705300  0.68064300  0.37591000  1
  I  I45  1  0.38138200  0.31831400  0.41683900  1
  I  I46  1  0.73119200  0.31072000  0.08708900  1
  I  I47  1  0.15127800  0.82243800  0.55095800  1
  I  I48  1  0.42786100  0.38848700  0.08893200  1
  I  I49  1  0.52369600  0.17822700  0.79051600  1
  I  I50  1  0.09757400  0.10965500  0.92395600  1
  I  I51  1  0.93624600  0.67287100  0.24834400  1
  I  I52  1  0.57213900  0.61151300  0.91106800  1
  I  I53  1  0.52369600  0.32177300  0.29051600  1
  I  I54  1  0.77107100  0.12692500  0.26015200  1
  I  I55  1  0.61861800  0.81831400  0.08316100  1
