# generated using pymatgen
data_K3Sb5O14
_symmetry_space_group_name_H-M   'P 1'
_cell_length_a   7.27795900
_cell_length_b   7.46143300
_cell_length_c   24.68966800
_cell_angle_alpha   90.00000000
_cell_angle_beta   90.00000000
_cell_angle_gamma   90.00000000
_symmetry_Int_Tables_number   1
_chemical_formula_structural   K3Sb5O14
_chemical_formula_sum   'K12 Sb20 O56'
_cell_volume   1340.74781638
_cell_formula_units_Z   4
loop_
 _symmetry_equiv_pos_site_id
 _symmetry_equiv_pos_as_xyz
  1  'x, y, z'
loop_
 _atom_site_type_symbol
 _atom_site_label
 _atom_site_symmetry_multiplicity
 _atom_site_fract_x
 _atom_site_fract_y
 _atom_site_fract_z
 _atom_site_occupancy
  K  K0  1  0.10350400  0.98925500  0.38315900  1
  K  K1  1  0.72283100  0.03019600  0.48482300  1
  K  K2  1  0.61603200  0.50386300  0.20580700  1
  K  K3  1  0.39649600  0.98925500  0.88315900  1
  K  K4  1  0.88396800  0.50386300  0.70580700  1
  K  K5  1  0.89649600  0.98925500  0.61684100  1
  K  K6  1  0.60350400  0.98925500  0.11684100  1
  K  K7  1  0.22283100  0.03019600  0.01517700  1
  K  K8  1  0.77716900  0.03019600  0.98482300  1
  K  K9  1  0.27716900  0.03019600  0.51517700  1
  K  K10  1  0.38396800  0.50386300  0.79419300  1
  K  K11  1  0.11603200  0.50386300  0.29419300  1
  Sb  Sb12  1  0.17516100  0.01339300  0.75613800  1
  Sb  Sb13  1  0.58255300  0.51266500  0.94294700  1
  Sb  Sb14  1  0.82483900  0.01339300  0.24386200  1
  Sb  Sb15  1  0.39037900  0.24799200  0.64516600  1
  Sb  Sb16  1  0.08255300  0.51266500  0.55705300  1
  Sb  Sb17  1  0.60962100  0.24799200  0.35483400  1
  Sb  Sb18  1  0.67516100  0.01339300  0.74386200  1
  Sb  Sb19  1  0.10962100  0.24799200  0.14516600  1
  Sb  Sb20  1  0.89037900  0.24799200  0.85483400  1
  Sb  Sb21  1  0.10900300  0.77686000  0.14543600  1
  Sb  Sb22  1  0.40589500  0.51336500  0.43772200  1
  Sb  Sb23  1  0.89099700  0.77686000  0.85456400  1
  Sb  Sb24  1  0.91744700  0.51266500  0.44294700  1
  Sb  Sb25  1  0.39099700  0.77686000  0.64543600  1
  Sb  Sb26  1  0.41744700  0.51266500  0.05705300  1
  Sb  Sb27  1  0.90589500  0.51336500  0.06227800  1
  Sb  Sb28  1  0.32483900  0.01339300  0.25613800  1
  Sb  Sb29  1  0.09410500  0.51336500  0.93772200  1
  Sb  Sb30  1  0.59410500  0.51336500  0.56227800  1
  Sb  Sb31  1  0.60900300  0.77686000  0.35456400  1
  O  O32  1  0.66077100  0.51521400  0.09400800  1
  O  O33  1  0.73900700  0.78810900  0.78846100  1
  O  O34  1  0.62236700  0.82798800  0.68536500  1
  O  O35  1  0.23900700  0.78810900  0.71153900  1
  O  O36  1  0.83922900  0.51521400  0.59400800  1
  O  O37  1  0.95321600  0.76938600  0.07411200  1
  O  O38  1  0.43507100  0.01514300  0.78153800  1
  O  O39  1  0.83791300  0.31286500  0.39724800  1
  O  O40  1  0.45321600  0.76938600  0.42588800  1
  O  O41  1  0.66040600  0.51272100  0.48237300  1
  O  O42  1  0.16090000  0.70782100  0.60460500  1
  O  O43  1  0.76170300  0.23924600  0.28871000  1
  O  O44  1  0.02724800  0.51231700  0.14257800  1
  O  O45  1  0.93507100  0.01514300  0.71846200  1
  O  O46  1  0.37763300  0.82798800  0.31463500  1
  O  O47  1  0.23829700  0.23924600  0.71129000  1
  O  O48  1  0.83910000  0.70782100  0.39539500  1
  O  O49  1  0.04678400  0.76938600  0.92588800  1
  O  O50  1  0.33910000  0.70782100  0.10460500  1
  O  O51  1  0.04746300  0.25668700  0.92631300  1
  O  O52  1  0.16077100  0.51521400  0.40599200  1
  O  O53  1  0.47275200  0.51231700  0.64257800  1
  O  O54  1  0.68211500  0.01217600  0.38067700  1
  O  O55  1  0.54678400  0.76938600  0.57411200  1
  O  O56  1  0.83959400  0.51272100  0.98237300  1
  O  O57  1  0.52724800  0.51231700  0.35742200  1
  O  O58  1  0.26099300  0.78810900  0.21153900  1
  O  O59  1  0.33922900  0.51521400  0.90599200  1
  O  O60  1  0.62162900  0.19740600  0.68518500  1
  O  O61  1  0.12236700  0.82798800  0.81463500  1
  O  O62  1  0.12162900  0.19740600  0.81481500  1
  O  O63  1  0.45253700  0.25668700  0.42631300  1
  O  O64  1  0.00000000  0.69183500  0.50000000  1
  O  O65  1  0.87837100  0.19740600  0.18518500  1
  O  O66  1  0.16040600  0.51272100  0.01762700  1
  O  O67  1  0.50000000  0.33361900  0.00000000  1
  O  O68  1  0.56492900  0.01514300  0.21846200  1
  O  O69  1  0.16208700  0.31286500  0.60275200  1
  O  O70  1  0.97275200  0.51231700  0.85742200  1
  O  O71  1  0.37837100  0.19740600  0.31481500  1
  O  O72  1  0.66090000  0.70782100  0.89539500  1
  O  O73  1  0.54746300  0.25668700  0.57368700  1
  O  O74  1  0.18211500  0.01217600  0.11932300  1
  O  O75  1  0.00000000  0.33361900  0.50000000  1
  O  O76  1  0.87763300  0.82798800  0.18536500  1
  O  O77  1  0.50000000  0.69183500  0.00000000  1
  O  O78  1  0.73829700  0.23924600  0.78871000  1
  O  O79  1  0.95253700  0.25668700  0.07368700  1
  O  O80  1  0.33959400  0.51272100  0.51762700  1
  O  O81  1  0.06492900  0.01514300  0.28153800  1
  O  O82  1  0.31788500  0.01217600  0.61932300  1
  O  O83  1  0.66208700  0.31286500  0.89724800  1
  O  O84  1  0.76099300  0.78810900  0.28846100  1
  O  O85  1  0.33791300  0.31286500  0.10275200  1
  O  O86  1  0.26170300  0.23924600  0.21129000  1
  O  O87  1  0.81788500  0.01217600  0.88067700  1
