# generated using pymatgen
data_U3Tl2(IO5)4
_symmetry_space_group_name_H-M   'P 1'
_cell_length_a   7.09117700
_cell_length_b   8.22626366
_cell_length_c   9.27675696
_cell_angle_alpha   90.57414338
_cell_angle_beta   105.32521001
_cell_angle_gamma   91.68868151
_symmetry_Int_Tables_number   1
_chemical_formula_structural   U3Tl2(IO5)4
_chemical_formula_sum   'U3 Tl2 I4 O20'
_cell_volume   521.59103611
_cell_formula_units_Z   1
loop_
 _symmetry_equiv_pos_site_id
 _symmetry_equiv_pos_as_xyz
  1  'x, y, z'
loop_
 _atom_site_type_symbol
 _atom_site_label
 _atom_site_symmetry_multiplicity
 _atom_site_fract_x
 _atom_site_fract_y
 _atom_site_fract_z
 _atom_site_occupancy
  U  U0  1  0.55154100  0.92229600  0.19374200  1
  U  U1  1  0.44845900  0.07770400  0.80625800  1
  U  U2  1  0.00000000  0.00000000  0.00000000  1
  Tl  Tl3  1  0.75132300  0.41043600  0.15551500  1
  Tl  Tl4  1  0.24867700  0.58956400  0.84448500  1
  I  I5  1  0.29625400  0.35131800  0.44194200  1
  I  I6  1  0.87653800  0.20239800  0.62289700  1
  I  I7  1  0.12346200  0.79760200  0.37710300  1
  I  I8  1  0.70374600  0.64868200  0.55805800  1
  O  O9  1  0.90972000  0.39855600  0.71754800  1
  O  O10  1  0.69025800  0.01116500  0.01284100  1
  O  O11  1  0.56950300  0.81100000  0.44149700  1
  O  O12  1  0.30974200  0.98883500  0.98715900  1
  O  O13  1  0.22727700  0.90998200  0.23671300  1
  O  O14  1  0.42488100  0.87007700  0.72686100  1
  O  O15  1  0.89162500  0.89669900  0.29165200  1
  O  O16  1  0.46587500  0.28892000  0.87612400  1
  O  O17  1  0.04371200  0.28787100  0.44222800  1
  O  O18  1  0.35133000  0.52105600  0.57716600  1
  O  O19  1  0.64867000  0.47894400  0.42283400  1
  O  O20  1  0.10837500  0.10330100  0.70834800  1
  O  O21  1  0.57511900  0.12992300  0.27313900  1
  O  O22  1  0.95628800  0.71212900  0.55777200  1
  O  O23  1  0.77272300  0.09001800  0.76328700  1
  O  O24  1  0.53412500  0.71108000  0.12387600  1
  O  O25  1  0.95176200  0.79086200  0.92785600  1
  O  O26  1  0.09028000  0.60144400  0.28245200  1
  O  O27  1  0.04823800  0.20913800  0.07214400  1
  O  O28  1  0.43049700  0.18900000  0.55850300  1
