# generated using pymatgen
data_NaN3
_symmetry_space_group_name_H-M   'P 1'
_cell_length_a   6.33575400
_cell_length_b   3.72084800
_cell_length_c   5.40860344
_cell_angle_alpha   90.00000000
_cell_angle_beta   109.22666283
_cell_angle_gamma   90.00000000
_symmetry_Int_Tables_number   1
_chemical_formula_structural   NaN3
_chemical_formula_sum   'Na2 N6'
_cell_volume   120.39267262
_cell_formula_units_Z   2
loop_
 _symmetry_equiv_pos_site_id
 _symmetry_equiv_pos_as_xyz
  1  'x, y, z'
loop_
 _atom_site_type_symbol
 _atom_site_label
 _atom_site_symmetry_multiplicity
 _atom_site_fract_x
 _atom_site_fract_y
 _atom_site_fract_z
 _atom_site_occupancy
  Na  Na0  1  0.00000000  0.00000000  0.00000000  1
  Na  Na1  1  0.50000000  0.50000000  0.00000000  1
  N  N2  1  0.59245400  0.00000000  0.72956400  1
  N  N3  1  0.40754600  0.00000000  0.27043600  1
  N  N4  1  0.50000000  0.00000000  0.50000000  1
  N  N5  1  0.09245400  0.50000000  0.72956400  1
  N  N6  1  0.90754600  0.50000000  0.27043600  1
  N  N7  1  0.00000000  0.50000000  0.50000000  1
