# generated using pymatgen
data_Sr5B3O9F
_symmetry_space_group_name_H-M   'P 1'
_cell_length_a   7.30809400
_cell_length_b   9.89328900
_cell_length_c   14.29770700
_cell_angle_alpha   90.00000000
_cell_angle_beta   90.00000000
_cell_angle_gamma   90.00000000
_symmetry_Int_Tables_number   1
_chemical_formula_structural   Sr5B3O9F
_chemical_formula_sum   'Sr20 B12 O36 F4'
_cell_volume   1033.73974314
_cell_formula_units_Z   4
loop_
 _symmetry_equiv_pos_site_id
 _symmetry_equiv_pos_as_xyz
  1  'x, y, z'
loop_
 _atom_site_type_symbol
 _atom_site_label
 _atom_site_symmetry_multiplicity
 _atom_site_fract_x
 _atom_site_fract_y
 _atom_site_fract_z
 _atom_site_occupancy
  Sr  Sr0  1  0.28894200  0.48147100  0.25000000  1
  Sr  Sr1  1  0.25493700  0.62577400  0.88023600  1
  Sr  Sr2  1  0.47185200  0.24587800  0.61222700  1
  Sr  Sr3  1  0.24506300  0.12577400  0.38023600  1
  Sr  Sr4  1  0.97185200  0.25412200  0.61222700  1
  Sr  Sr5  1  0.02814800  0.74587800  0.11222700  1
  Sr  Sr6  1  0.74506300  0.37422600  0.11976400  1
  Sr  Sr7  1  0.52814800  0.75412200  0.38777300  1
  Sr  Sr8  1  0.75493700  0.87422600  0.61976400  1
  Sr  Sr9  1  0.24506300  0.12577400  0.11976400  1
  Sr  Sr10  1  0.75493700  0.87422600  0.88023600  1
  Sr  Sr11  1  0.78894200  0.01852900  0.25000000  1
  Sr  Sr12  1  0.02814800  0.74587800  0.38777300  1
  Sr  Sr13  1  0.21105800  0.98147100  0.75000000  1
  Sr  Sr14  1  0.74506300  0.37422600  0.38023600  1
  Sr  Sr15  1  0.52814800  0.75412200  0.11222700  1
  Sr  Sr16  1  0.97185200  0.25412200  0.88777300  1
  Sr  Sr17  1  0.47185200  0.24587800  0.88777300  1
  Sr  Sr18  1  0.25493700  0.62577400  0.61976400  1
  Sr  Sr19  1  0.71105800  0.51852900  0.75000000  1
  B  B20  1  0.19962600  0.93818300  0.53872100  1
  B  B21  1  0.21772700  0.38986000  0.75000000  1
  B  B22  1  0.71772700  0.11014000  0.75000000  1
  B  B23  1  0.30037400  0.43818300  0.03872100  1
  B  B24  1  0.80037400  0.06181700  0.46127900  1
  B  B25  1  0.19962600  0.93818300  0.96127900  1
  B  B26  1  0.69962600  0.56181700  0.96127900  1
  B  B27  1  0.69962600  0.56181700  0.53872100  1
  B  B28  1  0.30037400  0.43818300  0.46127900  1
  B  B29  1  0.78227300  0.61014000  0.25000000  1
  B  B30  1  0.80037400  0.06181700  0.03872100  1
  B  B31  1  0.28227300  0.88986000  0.25000000  1
  O  O32  1  0.21500400  0.24856000  0.75000000  1
  O  O33  1  0.22395300  0.07090600  0.93016700  1
  O  O34  1  0.77604700  0.92909400  0.06983300  1
  O  O35  1  0.72395300  0.42909400  0.56983300  1
  O  O36  1  0.59310200  0.65262200  0.58951500  1
  O  O37  1  0.90689800  0.15262200  0.08951500  1
  O  O38  1  0.55648600  0.03674000  0.75000000  1
  O  O39  1  0.77936400  0.60364100  0.04486600  1
  O  O40  1  0.27604700  0.57090600  0.43016700  1
  O  O41  1  0.22063600  0.39635900  0.54486600  1
  O  O42  1  0.88485500  0.04404700  0.75000000  1
  O  O43  1  0.71500400  0.25144000  0.75000000  1
  O  O44  1  0.27936400  0.89635900  0.45513400  1
  O  O45  1  0.40689800  0.34737800  0.41048500  1
  O  O46  1  0.77936400  0.60364100  0.45513400  1
  O  O47  1  0.44351400  0.96326000  0.25000000  1
  O  O48  1  0.27936400  0.89635900  0.04486600  1
  O  O49  1  0.78499600  0.75144000  0.25000000  1
  O  O50  1  0.05648600  0.46326000  0.75000000  1
  O  O51  1  0.09310200  0.84737800  0.91048500  1
  O  O52  1  0.40689800  0.34737800  0.08951500  1
  O  O53  1  0.38485500  0.45595300  0.75000000  1
  O  O54  1  0.72063600  0.10364100  0.54486600  1
  O  O55  1  0.61514500  0.54404700  0.25000000  1
  O  O56  1  0.27604700  0.57090600  0.06983300  1
  O  O57  1  0.11514500  0.95595300  0.25000000  1
  O  O58  1  0.59310200  0.65262200  0.91048500  1
  O  O59  1  0.22063600  0.39635900  0.95513400  1
  O  O60  1  0.28499600  0.74856000  0.25000000  1
  O  O61  1  0.72063600  0.10364100  0.95513400  1
  O  O62  1  0.77604700  0.92909400  0.43016700  1
  O  O63  1  0.72395300  0.42909400  0.93016700  1
  O  O64  1  0.22395300  0.07090600  0.56983300  1
  O  O65  1  0.90689800  0.15262200  0.41048500  1
  O  O66  1  0.94351400  0.53674000  0.25000000  1
  O  O67  1  0.09310200  0.84737800  0.58951500  1
  F  F68  1  0.36003500  0.76386900  0.75000000  1
  F  F69  1  0.86003500  0.73613100  0.75000000  1
  F  F70  1  0.63996500  0.23613100  0.25000000  1
  F  F71  1  0.13996500  0.26386900  0.25000000  1
