# generated using pymatgen
data_Pr5O9
_symmetry_space_group_name_H-M   'P 1'
_cell_length_a   6.73584900
_cell_length_b   21.04667800
_cell_length_c   13.74959292
_cell_angle_alpha   90.00000000
_cell_angle_beta   108.07804861
_cell_angle_gamma   90.00000000
_symmetry_Int_Tables_number   1
_chemical_formula_structural   Pr5O9
_chemical_formula_sum   'Pr40 O72'
_cell_volume   1853.01697611
_cell_formula_units_Z   8
loop_
 _symmetry_equiv_pos_site_id
 _symmetry_equiv_pos_as_xyz
  1  'x, y, z'
loop_
 _atom_site_type_symbol
 _atom_site_label
 _atom_site_symmetry_multiplicity
 _atom_site_fract_x
 _atom_site_fract_y
 _atom_site_fract_z
 _atom_site_occupancy
  Pr  Pr0  1  0.19252400  0.70793000  0.25468800  1
  Pr  Pr1  1  0.50000000  0.50000000  0.00000000  1
  Pr  Pr2  1  0.29454200  0.50819700  0.26909900  1
  Pr  Pr3  1  0.73809000  0.09180500  0.75694500  1
  Pr  Pr4  1  0.02423900  0.88914600  0.52378300  1
  Pr  Pr5  1  0.50125300  0.38624300  0.48025500  1
  Pr  Pr6  1  0.80747600  0.29207000  0.74531200  1
  Pr  Pr7  1  0.26191000  0.90819500  0.24305500  1
  Pr  Pr8  1  0.02039000  0.79470000  0.98977300  1
  Pr  Pr9  1  0.80747600  0.20793000  0.24531200  1
  Pr  Pr10  1  0.29454200  0.99180300  0.76909900  1
  Pr  Pr11  1  0.69926300  0.79481700  0.26136200  1
  Pr  Pr12  1  0.48327700  0.81182000  0.48034200  1
  Pr  Pr13  1  0.50125300  0.11375700  0.98025500  1
  Pr  Pr14  1  0.97961000  0.20530000  0.01022700  1
  Pr  Pr15  1  0.78877600  0.58760000  0.24160600  1
  Pr  Pr16  1  0.49874700  0.61375700  0.51974500  1
  Pr  Pr17  1  0.97576100  0.11085400  0.47621700  1
  Pr  Pr18  1  0.02039000  0.70530000  0.48977300  1
  Pr  Pr19  1  0.51672300  0.18818000  0.51965800  1
  Pr  Pr20  1  0.69926300  0.70518300  0.76136200  1
  Pr  Pr21  1  0.50000000  0.00000000  0.50000000  1
  Pr  Pr22  1  0.00000000  0.00000000  0.00000000  1
  Pr  Pr23  1  0.21122400  0.08760000  0.25839400  1
  Pr  Pr24  1  0.49874700  0.88624300  0.01974500  1
  Pr  Pr25  1  0.48327700  0.68818000  0.98034200  1
  Pr  Pr26  1  0.30073700  0.20518300  0.73863800  1
  Pr  Pr27  1  0.70545800  0.49180300  0.73090100  1
  Pr  Pr28  1  0.02423900  0.61085400  0.02378300  1
  Pr  Pr29  1  0.70545800  0.00819700  0.23090100  1
  Pr  Pr30  1  0.00000000  0.50000000  0.50000000  1
  Pr  Pr31  1  0.19252400  0.79207000  0.75468800  1
  Pr  Pr32  1  0.78877600  0.91240000  0.74160600  1
  Pr  Pr33  1  0.73809000  0.40819500  0.25694500  1
  Pr  Pr34  1  0.97961000  0.29470000  0.51022700  1
  Pr  Pr35  1  0.21122400  0.41240000  0.75839400  1
  Pr  Pr36  1  0.97576100  0.38914600  0.97621700  1
  Pr  Pr37  1  0.26191000  0.59180500  0.74305500  1
  Pr  Pr38  1  0.51672300  0.31182000  0.01965800  1
  Pr  Pr39  1  0.30073700  0.29481700  0.23863800  1
  O  O40  1  0.67435800  0.29572000  0.56249900  1
  O  O41  1  0.32564200  0.79572000  0.93750100  1
  O  O42  1  0.89454800  0.50429200  0.95768100  1
  O  O43  1  0.25089900  0.70613800  0.08687900  1
  O  O44  1  0.17933300  0.30386300  0.06576100  1
  O  O45  1  0.73994500  0.40062100  0.07918400  1
  O  O46  1  0.40264900  0.39958600  0.29777000  1
  O  O47  1  0.74716600  0.70802200  0.58786300  1
  O  O48  1  0.75798900  0.90350100  0.92277600  1
  O  O49  1  0.17384700  0.60150700  0.55265600  1
  O  O50  1  0.38967700  0.50213200  0.46246700  1
  O  O51  1  0.75798900  0.59649900  0.42277600  1
  O  O52  1  0.31000200  0.39953100  0.93554900  1
  O  O53  1  0.45606700  0.49994900  0.81778100  1
  O  O54  1  0.45954800  0.40012500  0.65606500  1
  O  O55  1  0.40264900  0.10041400  0.79777000  1
  O  O56  1  0.82066700  0.80386300  0.43423900  1
  O  O57  1  0.38756900  0.80261500  0.29638800  1
  O  O58  1  0.74910100  0.29386200  0.91312100  1
  O  O59  1  0.32564200  0.70428000  0.43750100  1
  O  O60  1  0.11564300  0.30290100  0.70088300  1
  O  O61  1  0.54393300  0.99994900  0.68221900  1
  O  O62  1  0.96315800  0.69676000  0.66426400  1
  O  O63  1  0.98314600  0.49572900  0.32039300  1
  O  O64  1  0.67435800  0.20428000  0.06249900  1
  O  O65  1  0.03684200  0.30324000  0.33573600  1
  O  O66  1  0.11564300  0.19709900  0.20088300  1
  O  O67  1  0.61032300  0.00213200  0.03753300  1
  O  O68  1  0.45954800  0.09987500  0.15606500  1
  O  O69  1  0.25283400  0.20802200  0.91213700  1
  O  O70  1  0.98314600  0.00427100  0.82039300  1
  O  O71  1  0.01685400  0.99572900  0.17960700  1
  O  O72  1  0.68999800  0.60046900  0.06445100  1
  O  O73  1  0.59735100  0.60041400  0.70223000  1
  O  O74  1  0.45606700  0.00005100  0.31778100  1
  O  O75  1  0.17933300  0.19613700  0.56576100  1
  O  O76  1  0.54045200  0.90012500  0.84393500  1
  O  O77  1  0.38967700  0.99786800  0.96246700  1
  O  O78  1  0.88502100  0.39858600  0.79462900  1
  O  O79  1  0.88502100  0.10141400  0.29462900  1
  O  O80  1  0.31000200  0.10046900  0.43554900  1
  O  O81  1  0.01685400  0.50427100  0.67960700  1
  O  O82  1  0.11497900  0.89858600  0.70537100  1
  O  O83  1  0.82066700  0.69613700  0.93423900  1
  O  O84  1  0.88435700  0.69709900  0.29911700  1
  O  O85  1  0.26005500  0.59937900  0.92081600  1
  O  O86  1  0.68999800  0.89953100  0.56445100  1
  O  O87  1  0.17384700  0.89849300  0.05265600  1
  O  O88  1  0.54393300  0.50005100  0.18221900  1
  O  O89  1  0.61032300  0.49786800  0.53753300  1
  O  O90  1  0.61243100  0.19738500  0.70361200  1
  O  O91  1  0.38756900  0.69738500  0.79638800  1
  O  O92  1  0.24201100  0.09649900  0.07722400  1
  O  O93  1  0.88435700  0.80290100  0.79911700  1
  O  O94  1  0.24201100  0.40350100  0.57722400  1
  O  O95  1  0.74910100  0.20613800  0.41312100  1
  O  O96  1  0.82615300  0.39849300  0.44734400  1
  O  O97  1  0.59735100  0.89958600  0.20223000  1
  O  O98  1  0.54045200  0.59987500  0.34393500  1
  O  O99  1  0.03684200  0.19676000  0.83573600  1
  O  O100  1  0.96315800  0.80324000  0.16426400  1
  O  O101  1  0.74716600  0.79197800  0.08786300  1
  O  O102  1  0.73994500  0.09937900  0.57918400  1
  O  O103  1  0.89454800  0.99570800  0.45768100  1
  O  O104  1  0.82615300  0.10150700  0.94734400  1
  O  O105  1  0.25089900  0.79386200  0.58687900  1
  O  O106  1  0.10545200  0.49570800  0.04231900  1
  O  O107  1  0.61243100  0.30261500  0.20361200  1
  O  O108  1  0.25283400  0.29197800  0.41213700  1
  O  O109  1  0.26005500  0.90062100  0.42081600  1
  O  O110  1  0.11497900  0.60141400  0.20537100  1
  O  O111  1  0.10545200  0.00429200  0.54231900  1
