# generated using pymatgen
data_Gd3Si2Cl5O6
_symmetry_space_group_name_H-M   'P 1'
_cell_length_a   10.72207400
_cell_length_b   10.55310800
_cell_length_c   11.87453369
_cell_angle_alpha   90.00000000
_cell_angle_beta   103.06613869
_cell_angle_gamma   90.00000000
_symmetry_Int_Tables_number   1
_chemical_formula_structural   Gd3Si2Cl5O6
_chemical_formula_sum   'Gd12 Si8 Cl20 O24'
_cell_volume   1308.83118912
_cell_formula_units_Z   4
loop_
 _symmetry_equiv_pos_site_id
 _symmetry_equiv_pos_as_xyz
  1  'x, y, z'
loop_
 _atom_site_type_symbol
 _atom_site_label
 _atom_site_symmetry_multiplicity
 _atom_site_fract_x
 _atom_site_fract_y
 _atom_site_fract_z
 _atom_site_occupancy
  Gd  Gd0  1  0.16772100  0.24875300  0.66898300  1
  Gd  Gd1  1  0.25000000  0.75000000  0.00000000  1
  Gd  Gd2  1  0.83227900  0.75124700  0.33101700  1
  Gd  Gd3  1  0.83227900  0.24875300  0.33101700  1
  Gd  Gd4  1  0.75000000  0.75000000  0.00000000  1
  Gd  Gd5  1  0.16772100  0.75124700  0.66898300  1
  Gd  Gd6  1  0.66772100  0.74875300  0.66898300  1
  Gd  Gd7  1  0.75000000  0.25000000  0.00000000  1
  Gd  Gd8  1  0.33227900  0.25124700  0.33101700  1
  Gd  Gd9  1  0.33227900  0.74875300  0.33101700  1
  Gd  Gd10  1  0.25000000  0.25000000  0.00000000  1
  Gd  Gd11  1  0.66772100  0.25124700  0.66898300  1
  Si  Si12  1  0.03564100  0.85484800  0.14302600  1
  Si  Si13  1  0.96435900  0.85484800  0.85697400  1
  Si  Si14  1  0.03564100  0.14515200  0.14302600  1
  Si  Si15  1  0.96435900  0.14515200  0.85697400  1
  Si  Si16  1  0.53564100  0.35484800  0.14302600  1
  Si  Si17  1  0.46435900  0.35484800  0.85697400  1
  Si  Si18  1  0.53564100  0.64515200  0.14302600  1
  Si  Si19  1  0.46435900  0.64515200  0.85697400  1
  Cl  Cl20  1  0.10517250  0.77944150  0.42056200  1
  Cl  Cl21  1  0.87911600  0.50000000  0.35610100  1
  Cl  Cl22  1  0.89482750  0.77944150  0.57943800  1
  Cl  Cl23  1  0.18433000  0.50000000  0.99598500  1
  Cl  Cl24  1  0.12088400  0.50000000  0.64389900  1
  Cl  Cl25  1  0.89482750  0.22055850  0.57943800  1
  Cl  Cl26  1  0.10517250  0.22055850  0.42056200  1
  Cl  Cl27  1  0.27707700  0.50000000  0.33694200  1
  Cl  Cl28  1  0.81567000  0.50000000  0.00401500  1
  Cl  Cl29  1  0.72292300  0.50000000  0.66305800  1
  Cl  Cl30  1  0.60517250  0.27944150  0.42056200  1
  Cl  Cl31  1  0.37911600  0.00000000  0.35610100  1
  Cl  Cl32  1  0.39482750  0.27944150  0.57943800  1
  Cl  Cl33  1  0.68433000  0.00000000  0.99598500  1
  Cl  Cl34  1  0.62088400  0.00000000  0.64389900  1
  Cl  Cl35  1  0.39482750  0.72055850  0.57943800  1
  Cl  Cl36  1  0.60517250  0.72055850  0.42056200  1
  Cl  Cl37  1  0.77707700  0.00000000  0.33694200  1
  Cl  Cl38  1  0.31567000  0.00000000  0.00401500  1
  Cl  Cl39  1  0.22292300  0.00000000  0.66305800  1
  O  O40  1  0.54656900  0.50000000  0.19056500  1
  O  O41  1  0.82626150  0.21625650  0.82798300  1
  O  O42  1  0.00000000  0.14507100  0.00000000  1
  O  O43  1  0.82626150  0.78374350  0.82798300  1
  O  O44  1  0.08750800  0.78290600  0.82785000  1
  O  O45  1  0.91249200  0.78290600  0.17215000  1
  O  O46  1  0.91249200  0.21709400  0.17215000  1
  O  O47  1  0.00000000  0.85492900  0.00000000  1
  O  O48  1  0.08750800  0.21709400  0.82785000  1
  O  O49  1  0.45343100  0.50000000  0.80943500  1
  O  O50  1  0.17373850  0.78374350  0.17201700  1
  O  O51  1  0.17373850  0.21625650  0.17201700  1
  O  O52  1  0.04656900  0.00000000  0.19056500  1
  O  O53  1  0.32626150  0.71625650  0.82798300  1
  O  O54  1  0.50000000  0.64507100  0.00000000  1
  O  O55  1  0.32626150  0.28374350  0.82798300  1
  O  O56  1  0.58750800  0.28290600  0.82785000  1
  O  O57  1  0.41249200  0.28290600  0.17215000  1
  O  O58  1  0.41249200  0.71709400  0.17215000  1
  O  O59  1  0.50000000  0.35492900  0.00000000  1
  O  O60  1  0.58750800  0.71709400  0.82785000  1
  O  O61  1  0.95343100  0.00000000  0.80943500  1
  O  O62  1  0.67373850  0.28374350  0.17201700  1
  O  O63  1  0.67373850  0.71625650  0.17201700  1
