# generated using pymatgen
data_LiSi2N3
_symmetry_space_group_name_H-M   'P 1'
_cell_length_a   5.32682400
_cell_length_b   9.27305400
_cell_length_c   4.81172800
_cell_angle_alpha   90.00000000
_cell_angle_beta   90.00000000
_cell_angle_gamma   90.00000000
_symmetry_Int_Tables_number   1
_chemical_formula_structural   LiSi2N3
_chemical_formula_sum   'Li4 Si8 N12'
_cell_volume   237.67976311
_cell_formula_units_Z   4
loop_
 _symmetry_equiv_pos_site_id
 _symmetry_equiv_pos_as_xyz
  1  'x, y, z'
loop_
 _atom_site_type_symbol
 _atom_site_label
 _atom_site_symmetry_multiplicity
 _atom_site_fract_x
 _atom_site_fract_y
 _atom_site_fract_z
 _atom_site_occupancy
  Li  Li0  1  0.34053300  0.00000000  0.99922600  1
  Li  Li1  1  0.65946700  0.00000000  0.49922600  1
  Li  Li2  1  0.84053300  0.50000000  0.99922600  1
  Li  Li3  1  0.15946700  0.50000000  0.49922600  1
  Si  Si4  1  0.33678900  0.33426800  0.98694300  1
  Si  Si5  1  0.16321100  0.16573200  0.48694300  1
  Si  Si6  1  0.66321100  0.33426800  0.48694300  1
  Si  Si7  1  0.83678900  0.16573200  0.98694300  1
  Si  Si8  1  0.83678900  0.83426800  0.98694300  1
  Si  Si9  1  0.66321100  0.66573200  0.48694300  1
  Si  Si10  1  0.16321100  0.83426800  0.48694300  1
  Si  Si11  1  0.33678900  0.66573200  0.98694300  1
  N  N12  1  0.36066100  0.30161000  0.62542600  1
  N  N13  1  0.13933900  0.19839000  0.12542600  1
  N  N14  1  0.72567900  0.00000000  0.06575800  1
  N  N15  1  0.27432100  0.00000000  0.56575800  1
  N  N16  1  0.86066100  0.19839000  0.62542600  1
  N  N17  1  0.63933900  0.30161000  0.12542600  1
  N  N18  1  0.86066100  0.80161000  0.62542600  1
  N  N19  1  0.63933900  0.69839000  0.12542600  1
  N  N20  1  0.22567900  0.50000000  0.06575800  1
  N  N21  1  0.77432100  0.50000000  0.56575800  1
  N  N22  1  0.36066100  0.69839000  0.62542600  1
  N  N23  1  0.13933900  0.80161000  0.12542600  1
