# generated using pymatgen
data_NaMg2H3(SO4)2
_symmetry_space_group_name_H-M   'P 1'
_cell_length_a   14.53190754
_cell_length_b   6.39511400
_cell_length_c   9.21360989
_cell_angle_alpha   90.00000000
_cell_angle_beta   119.78830329
_cell_angle_gamma   90.00000000
_symmetry_Int_Tables_number   1
_chemical_formula_structural   NaMg2H3(SO4)2
_chemical_formula_sum   'Na4 Mg8 H12 S8 O32'
_cell_volume   743.11128545
_cell_formula_units_Z   4
loop_
 _symmetry_equiv_pos_site_id
 _symmetry_equiv_pos_as_xyz
  1  'x, y, z'
loop_
 _atom_site_type_symbol
 _atom_site_label
 _atom_site_symmetry_multiplicity
 _atom_site_fract_x
 _atom_site_fract_y
 _atom_site_fract_z
 _atom_site_occupancy
  Na  Na0  1  0.62892300  0.00000000  0.09398600  1
  Na  Na1  1  0.37107700  0.00000000  0.90601400  1
  Na  Na2  1  0.12892300  0.50000000  0.09398600  1
  Na  Na3  1  0.87107700  0.50000000  0.90601400  1
  Mg  Mg4  1  0.25000000  0.25000000  0.50000000  1
  Mg  Mg5  1  0.25000000  0.75000000  0.50000000  1
  Mg  Mg6  1  0.99006550  0.00000000  0.81272700  1
  Mg  Mg7  1  0.00993450  0.00000000  0.18727300  1
  Mg  Mg8  1  0.75000000  0.75000000  0.50000000  1
  Mg  Mg9  1  0.75000000  0.25000000  0.50000000  1
  Mg  Mg10  1  0.49006550  0.50000000  0.81272700  1
  Mg  Mg11  1  0.50993450  0.50000000  0.18727300  1
  H  H12  1  0.89009100  0.00000000  0.50432100  1
  H  H13  1  0.10990900  0.00000000  0.49567900  1
  H  H14  1  0.14018400  0.87729300  0.72639700  1
  H  H15  1  0.85981600  0.12270700  0.27360300  1
  H  H16  1  0.14018400  0.12270700  0.72639700  1
  H  H17  1  0.85981600  0.87729300  0.27360300  1
  H  H18  1  0.39009100  0.50000000  0.50432100  1
  H  H19  1  0.60990900  0.50000000  0.49567900  1
  H  H20  1  0.64018400  0.37729300  0.72639700  1
  H  H21  1  0.35981600  0.62270700  0.27360300  1
  H  H22  1  0.64018400  0.62270700  0.72639700  1
  H  H23  1  0.35981600  0.37729300  0.27360300  1
  S  S24  1  0.72629200  0.50000000  0.16264100  1
  S  S25  1  0.27370800  0.50000000  0.83735900  1
  S  S26  1  0.01666850  0.50000000  0.29234200  1
  S  S27  1  0.98333150  0.50000000  0.70765800  1
  S  S28  1  0.22629200  0.00000000  0.16264100  1
  S  S29  1  0.77370800  0.00000000  0.83735900  1
  S  S30  1  0.51666850  0.00000000  0.29234200  1
  S  S31  1  0.48333150  0.00000000  0.70765800  1
  O  O32  1  0.75970400  0.69829900  0.27772700  1
  O  O33  1  0.24029600  0.30170100  0.72227300  1
  O  O34  1  0.24029600  0.69829900  0.72227300  1
  O  O35  1  0.75970400  0.30170100  0.27772700  1
  O  O36  1  0.60352000  0.50000000  0.07676100  1
  O  O37  1  0.39648000  0.50000000  0.92323900  1
  O  O38  1  0.14108450  0.50000000  0.37231500  1
  O  O39  1  0.85891550  0.50000000  0.62768500  1
  O  O40  1  0.01204850  0.31833950  0.83242300  1
  O  O41  1  0.98795150  0.68166050  0.16757700  1
  O  O42  1  0.01204850  0.68166050  0.83242300  1
  O  O43  1  0.98096600  0.31892900  0.17111600  1
  O  O44  1  0.85640950  0.00000000  0.57357600  1
  O  O45  1  0.14359050  0.00000000  0.42642400  1
  O  O46  1  0.09644350  0.00000000  0.71461000  1
  O  O47  1  0.90355650  0.00000000  0.28539000  1
  O  O48  1  0.25970400  0.19829900  0.27772700  1
  O  O49  1  0.74029600  0.80170100  0.72227300  1
  O  O50  1  0.74029600  0.19829900  0.72227300  1
  O  O51  1  0.25970400  0.80170100  0.27772700  1
  O  O52  1  0.10352000  0.00000000  0.07676100  1
  O  O53  1  0.89648000  0.00000000  0.92323900  1
  O  O54  1  0.64108450  0.00000000  0.37231500  1
  O  O55  1  0.35891550  0.00000000  0.62768500  1
  O  O56  1  0.51204850  0.81833950  0.83242300  1
  O  O57  1  0.48795150  0.18166050  0.16757700  1
  O  O58  1  0.51204850  0.18166050  0.83242300  1
  O  O59  1  0.48096600  0.81892900  0.17111600  1
  O  O60  1  0.35640950  0.50000000  0.57357600  1
  O  O61  1  0.64359050  0.50000000  0.42642400  1
  O  O62  1  0.59644350  0.50000000  0.71461000  1
  O  O63  1  0.40355650  0.50000000  0.28539000  1
