# generated using pymatgen
data_K2RuNCl5O
_symmetry_space_group_name_H-M   'P 1'
_cell_length_a   7.06575000
_cell_length_b   10.61172300
_cell_length_c   13.58738800
_cell_angle_alpha   90.00000000
_cell_angle_beta   90.00000000
_cell_angle_gamma   90.00000000
_symmetry_Int_Tables_number   1
_chemical_formula_structural   K2RuNCl5O
_chemical_formula_sum   'K8 Ru4 N4 Cl20 O4'
_cell_volume   1018.77938730
_cell_formula_units_Z   4
loop_
 _symmetry_equiv_pos_site_id
 _symmetry_equiv_pos_as_xyz
  1  'x, y, z'
loop_
 _atom_site_type_symbol
 _atom_site_label
 _atom_site_symmetry_multiplicity
 _atom_site_fract_x
 _atom_site_fract_y
 _atom_site_fract_z
 _atom_site_occupancy
  K  K0  1  0.35488900  0.99980600  0.85380000  1
  K  K1  1  0.85488900  0.00019400  0.64620000  1
  K  K2  1  0.64511100  0.49980600  0.14620000  1
  K  K3  1  0.14511100  0.50019400  0.35380000  1
  K  K4  1  0.64511100  0.00019400  0.14620000  1
  K  K5  1  0.14511100  0.99980600  0.35380000  1
  K  K6  1  0.35488900  0.50019400  0.85380000  1
  K  K7  1  0.85488900  0.49980600  0.64620000  1
  Ru  Ru8  1  0.82949200  0.75000000  0.89293200  1
  Ru  Ru9  1  0.32949200  0.25000000  0.60706800  1
  Ru  Ru10  1  0.17050800  0.25000000  0.10706800  1
  Ru  Ru11  1  0.67050800  0.75000000  0.39293200  1
  N  N12  1  0.98901800  0.75000000  0.99053500  1
  N  N13  1  0.48901800  0.25000000  0.50946500  1
  N  N14  1  0.01098200  0.25000000  0.00946500  1
  N  N15  1  0.51098200  0.75000000  0.49053500  1
  Cl  Cl16  1  0.55091700  0.75000000  0.99498000  1
  Cl  Cl17  1  0.05091700  0.25000000  0.50502000  1
  Cl  Cl18  1  0.44908300  0.25000000  0.00502000  1
  Cl  Cl19  1  0.94908300  0.75000000  0.49498000  1
  Cl  Cl20  1  0.62692000  0.75000000  0.75280500  1
  Cl  Cl21  1  0.12692000  0.25000000  0.74719500  1
  Cl  Cl22  1  0.37308000  0.25000000  0.24719500  1
  Cl  Cl23  1  0.87308000  0.75000000  0.25280500  1
  Cl  Cl24  1  0.09191900  0.75000000  0.77930400  1
  Cl  Cl25  1  0.59191900  0.25000000  0.72069600  1
  Cl  Cl26  1  0.90808100  0.25000000  0.22069600  1
  Cl  Cl27  1  0.40808100  0.75000000  0.27930400  1
  Cl  Cl28  1  0.81724300  0.97604000  0.88680300  1
  Cl  Cl29  1  0.31724300  0.02396000  0.61319700  1
  Cl  Cl30  1  0.18275700  0.47604000  0.11319700  1
  Cl  Cl31  1  0.68275700  0.52396000  0.38680300  1
  Cl  Cl32  1  0.18275700  0.02396000  0.11319700  1
  Cl  Cl33  1  0.68275700  0.97604000  0.38680300  1
  Cl  Cl34  1  0.81724300  0.52396000  0.88680300  1
  Cl  Cl35  1  0.31724300  0.47604000  0.61319700  1
  O  O36  1  0.10629300  0.75000000  0.05086400  1
  O  O37  1  0.60629300  0.25000000  0.44913600  1
  O  O38  1  0.89370700  0.25000000  0.94913600  1
  O  O39  1  0.39370700  0.75000000  0.55086400  1
