# generated using pymatgen
data_KCu4AsS4
_symmetry_space_group_name_H-M   'P 1'
_cell_length_a   6.58497500
_cell_length_b   6.41859400
_cell_length_c   9.60353398
_cell_angle_alpha   90.00000000
_cell_angle_beta   103.20062910
_cell_angle_gamma   90.00000000
_symmetry_Int_Tables_number   1
_chemical_formula_structural   KCu4AsS4
_chemical_formula_sum   'K2 Cu8 As2 S8'
_cell_volume   395.18017541
_cell_formula_units_Z   2
loop_
 _symmetry_equiv_pos_site_id
 _symmetry_equiv_pos_as_xyz
  1  'x, y, z'
loop_
 _atom_site_type_symbol
 _atom_site_label
 _atom_site_symmetry_multiplicity
 _atom_site_fract_x
 _atom_site_fract_y
 _atom_site_fract_z
 _atom_site_occupancy
  K  K0  1  0.32355700  0.97685600  0.86333000  1
  K  K1  1  0.67644300  0.47685600  0.13667000  1
  Cu  Cu2  1  0.02025200  0.82600800  0.48534300  1
  Cu  Cu3  1  0.70636200  0.61701700  0.55704300  1
  Cu  Cu4  1  0.97974800  0.32600800  0.51465700  1
  Cu  Cu5  1  0.29363800  0.11701700  0.44295700  1
  Cu  Cu6  1  0.36312800  0.46646100  0.60924600  1
  Cu  Cu7  1  0.63687200  0.96646100  0.39075400  1
  Cu  Cu8  1  0.07604400  0.09397000  0.12450600  1
  Cu  Cu9  1  0.92395600  0.59397000  0.87549400  1
  As  As10  1  0.20077900  0.61472100  0.25337800  1
  As  As11  1  0.79922100  0.11472100  0.74662200  1
  S  S12  1  0.06255500  0.59497700  0.65995000  1
  S  S13  1  0.16035900  0.41453900  0.04979000  1
  S  S14  1  0.93744500  0.09497700  0.34005000  1
  S  S15  1  0.38507100  0.88520600  0.19256200  1
  S  S16  1  0.83964100  0.91453900  0.95021000  1
  S  S17  1  0.46624700  0.41814600  0.39822800  1
  S  S18  1  0.61492900  0.38520600  0.80743800  1
  S  S19  1  0.53375300  0.91814600  0.60177200  1
