# generated using pymatgen
data_MnTl2SnTe4
_symmetry_space_group_name_H-M   'P 1'
_cell_length_a   8.67941600
_cell_length_b   8.67941600
_cell_length_c   7.10090000
_cell_angle_alpha   90.00000000
_cell_angle_beta   90.00000000
_cell_angle_gamma   90.00000000
_symmetry_Int_Tables_number   1
_chemical_formula_structural   MnTl2SnTe4
_chemical_formula_sum   'Mn2 Tl4 Sn2 Te8'
_cell_volume   534.92685995
_cell_formula_units_Z   2
loop_
 _symmetry_equiv_pos_site_id
 _symmetry_equiv_pos_as_xyz
  1  'x, y, z'
loop_
 _atom_site_type_symbol
 _atom_site_label
 _atom_site_symmetry_multiplicity
 _atom_site_fract_x
 _atom_site_fract_y
 _atom_site_fract_z
 _atom_site_occupancy
  Mn  Mn0  1  0.00000000  0.00000000  0.50000000  1
  Mn  Mn1  1  0.50000000  0.50000000  0.00000000  1
  Tl  Tl2  1  0.50000000  0.00000000  0.00000000  1
  Tl  Tl3  1  0.00000000  0.50000000  0.00000000  1
  Tl  Tl4  1  0.00000000  0.50000000  0.50000000  1
  Tl  Tl5  1  0.50000000  0.00000000  0.50000000  1
  Sn  Sn6  1  0.00000000  0.00000000  0.00000000  1
  Sn  Sn7  1  0.50000000  0.50000000  0.50000000  1
  Te  Te8  1  0.32395400  0.32395400  0.24630300  1
  Te  Te9  1  0.17604600  0.82395400  0.25369700  1
  Te  Te10  1  0.17604600  0.17604600  0.74630300  1
  Te  Te11  1  0.82395400  0.17604600  0.25369700  1
  Te  Te12  1  0.82395400  0.82395400  0.74630300  1
  Te  Te13  1  0.67604600  0.32395400  0.75369700  1
  Te  Te14  1  0.67604600  0.67604600  0.24630300  1
  Te  Te15  1  0.32395400  0.67604600  0.75369700  1
