# generated using pymatgen
data_PrNb3O9
_symmetry_space_group_name_H-M   'P 1'
_cell_length_a   5.44438500
_cell_length_b   7.73791100
_cell_length_c   16.66490375
_cell_angle_alpha   90.00000000
_cell_angle_beta   92.03107997
_cell_angle_gamma   90.00000000
_symmetry_Int_Tables_number   1
_chemical_formula_structural   PrNb3O9
_chemical_formula_sum   'Pr4 Nb12 O36'
_cell_volume   701.62076984
_cell_formula_units_Z   4
loop_
 _symmetry_equiv_pos_site_id
 _symmetry_equiv_pos_as_xyz
  1  'x, y, z'
loop_
 _atom_site_type_symbol
 _atom_site_label
 _atom_site_symmetry_multiplicity
 _atom_site_fract_x
 _atom_site_fract_y
 _atom_site_fract_z
 _atom_site_occupancy
  Pr  Pr0  1  0.96668900  0.75001600  0.53219400  1
  Pr  Pr1  1  0.03331100  0.25001600  0.96780600  1
  Pr  Pr2  1  0.96668900  0.74998400  0.03219400  1
  Pr  Pr3  1  0.03331100  0.24998400  0.46780600  1
  Nb  Nb4  1  0.99164400  0.52951500  0.75131500  1
  Nb  Nb5  1  0.99164400  0.97048500  0.25131500  1
  Nb  Nb6  1  0.52759500  0.51715400  0.40007400  1
  Nb  Nb7  1  0.47968600  0.99892400  0.60031700  1
  Nb  Nb8  1  0.47968600  0.50107600  0.10031700  1
  Nb  Nb9  1  0.52031400  0.49892400  0.89968300  1
  Nb  Nb10  1  0.00835600  0.47048500  0.24868500  1
  Nb  Nb11  1  0.52759500  0.98284600  0.90007400  1
  Nb  Nb12  1  0.00835600  0.02951500  0.74868500  1
  Nb  Nb13  1  0.52031400  0.00107600  0.39968300  1
  Nb  Nb14  1  0.47240500  0.01715400  0.09992600  1
  Nb  Nb15  1  0.47240500  0.48284600  0.59992600  1
  O  O16  1  0.15428600  0.56146000  0.64357500  1
  O  O17  1  0.26378900  0.96250000  0.48286700  1
  O  O18  1  0.73570600  0.03596900  0.01699600  1
  O  O19  1  0.84571400  0.43854000  0.35642500  1
  O  O20  1  0.15428600  0.93854000  0.14357500  1
  O  O21  1  0.64849900  0.75078200  0.41924400  1
  O  O22  1  0.84968500  0.05385500  0.35648600  1
  O  O23  1  0.67997100  0.44642700  0.18975300  1
  O  O24  1  0.43902000  0.25141300  0.90479500  1
  O  O25  1  0.56098000  0.75141300  0.59520500  1
  O  O26  1  0.26429400  0.53596900  0.48300400  1
  O  O27  1  0.90313600  0.75511600  0.75913100  1
  O  O28  1  0.35150100  0.24921800  0.58075600  1
  O  O29  1  0.56098000  0.74858700  0.09520500  1
  O  O30  1  0.35150100  0.25078200  0.08075600  1
  O  O31  1  0.84968500  0.44614500  0.85648600  1
  O  O32  1  0.67997100  0.05357300  0.68975300  1
  O  O33  1  0.73570600  0.46403100  0.51699600  1
  O  O34  1  0.32002900  0.55357300  0.81024700  1
  O  O35  1  0.26429400  0.96403100  0.98300400  1
  O  O36  1  0.15031500  0.94614500  0.64351400  1
  O  O37  1  0.26378900  0.53750000  0.98286700  1
  O  O38  1  0.73621100  0.46250000  0.01713300  1
  O  O39  1  0.31694000  0.95134600  0.81109400  1
  O  O40  1  0.64849900  0.74921800  0.91924400  1
  O  O41  1  0.15031500  0.55385500  0.14351400  1
  O  O42  1  0.09686400  0.25511600  0.74086900  1
  O  O43  1  0.68306000  0.04865400  0.18890600  1
  O  O44  1  0.32002900  0.94642700  0.31024700  1
  O  O45  1  0.09686400  0.24488400  0.24086900  1
  O  O46  1  0.31694000  0.54865400  0.31109400  1
  O  O47  1  0.68306000  0.45134600  0.68890600  1
  O  O48  1  0.90313600  0.74488400  0.25913100  1
  O  O49  1  0.84571400  0.06146000  0.85642500  1
  O  O50  1  0.43902000  0.24858700  0.40479500  1
  O  O51  1  0.73621100  0.03750000  0.51713300  1
