# generated using pymatgen
data_CsHg5Cl11
_symmetry_space_group_name_H-M   'P 1'
_cell_length_a   12.49590800
_cell_length_b   14.88671200
_cell_length_c   6.94094540
_cell_angle_alpha   90.00000000
_cell_angle_beta   120.26014253
_cell_angle_gamma   90.00000000
_symmetry_Int_Tables_number   1
_chemical_formula_structural   CsHg5Cl11
_chemical_formula_sum   'Cs2 Hg10 Cl22'
_cell_volume   1115.24796749
_cell_formula_units_Z   2
loop_
 _symmetry_equiv_pos_site_id
 _symmetry_equiv_pos_as_xyz
  1  'x, y, z'
loop_
 _atom_site_type_symbol
 _atom_site_label
 _atom_site_symmetry_multiplicity
 _atom_site_fract_x
 _atom_site_fract_y
 _atom_site_fract_z
 _atom_site_occupancy
  Cs  Cs0  1  0.00000000  0.00000000  0.00000000  1
  Cs  Cs1  1  0.50000000  0.50000000  0.00000000  1
  Hg  Hg2  1  0.81716900  0.16689400  0.31785500  1
  Hg  Hg3  1  0.50000000  0.00000000  0.00000000  1
  Hg  Hg4  1  0.18283100  0.83310600  0.68214500  1
  Hg  Hg5  1  0.18283100  0.16689400  0.68214500  1
  Hg  Hg6  1  0.81716900  0.83310600  0.31785500  1
  Hg  Hg7  1  0.31716900  0.66689400  0.31785500  1
  Hg  Hg8  1  0.00000000  0.50000000  0.00000000  1
  Hg  Hg9  1  0.68283100  0.33310600  0.68214500  1
  Hg  Hg10  1  0.68283100  0.66689400  0.68214500  1
  Hg  Hg11  1  0.31716900  0.33310600  0.31785500  1
  Cl  Cl12  1  0.29338350  0.87474750  0.05813200  1
  Cl  Cl13  1  0.57976050  0.28037550  0.31324400  1
  Cl  Cl14  1  0.57976050  0.71962450  0.31324400  1
  Cl  Cl15  1  0.00000000  0.00000000  0.50000000  1
  Cl  Cl16  1  0.42023950  0.71962450  0.68675600  1
  Cl  Cl17  1  0.29338350  0.12525250  0.05813200  1
  Cl  Cl18  1  0.35343300  0.00000000  0.62123700  1
  Cl  Cl19  1  0.64656700  0.00000000  0.37876300  1
  Cl  Cl20  1  0.70661650  0.87474750  0.94186800  1
  Cl  Cl21  1  0.42023950  0.28037550  0.68675600  1
  Cl  Cl22  1  0.70661650  0.12525250  0.94186800  1
  Cl  Cl23  1  0.79338350  0.37474750  0.05813200  1
  Cl  Cl24  1  0.07976050  0.78037550  0.31324400  1
  Cl  Cl25  1  0.07976050  0.21962450  0.31324400  1
  Cl  Cl26  1  0.50000000  0.50000000  0.50000000  1
  Cl  Cl27  1  0.92023950  0.21962450  0.68675600  1
  Cl  Cl28  1  0.79338350  0.62525250  0.05813200  1
  Cl  Cl29  1  0.85343300  0.50000000  0.62123700  1
  Cl  Cl30  1  0.14656700  0.50000000  0.37876300  1
  Cl  Cl31  1  0.20661650  0.37474750  0.94186800  1
  Cl  Cl32  1  0.92023950  0.78037550  0.68675600  1
  Cl  Cl33  1  0.20661650  0.62525250  0.94186800  1
