# generated using pymatgen
data_Sm10S14O
_symmetry_space_group_name_H-M   'P 1'
_cell_length_a   14.95810400
_cell_length_b   14.95810400
_cell_length_c   19.83450000
_cell_angle_alpha   90.00000000
_cell_angle_beta   90.00000000
_cell_angle_gamma   90.00000000
_symmetry_Int_Tables_number   1
_chemical_formula_structural   Sm10S14O
_chemical_formula_sum   'Sm80 S112 O8'
_cell_volume   4437.86772864
_cell_formula_units_Z   8
loop_
 _symmetry_equiv_pos_site_id
 _symmetry_equiv_pos_as_xyz
  1  'x, y, z'
loop_
 _atom_site_type_symbol
 _atom_site_label
 _atom_site_symmetry_multiplicity
 _atom_site_fract_x
 _atom_site_fract_y
 _atom_site_fract_z
 _atom_site_occupancy
  Sm  Sm0  1  0.86490700  0.13509300  0.25000000  1
  Sm  Sm1  1  0.27732600  0.87243600  0.42179600  1
  Sm  Sm2  1  0.49351850  0.13187350  0.31740150  1
  Sm  Sm3  1  0.27732600  0.12756400  0.92179600  1
  Sm  Sm4  1  0.72267400  0.37243600  0.32820400  1
  Sm  Sm5  1  0.63509300  0.13509300  0.00000000  1
  Sm  Sm6  1  0.12756400  0.27732600  0.57820400  1
  Sm  Sm7  1  0.99351850  0.13187350  0.43259850  1
  Sm  Sm8  1  0.87243600  0.77732600  0.17179600  1
  Sm  Sm9  1  0.36490700  0.36490700  0.25000000  1
  Sm  Sm10  1  0.13509300  0.86490700  0.25000000  1
  Sm  Sm11  1  0.49351850  0.36812650  0.43259850  1
  Sm  Sm12  1  0.22267400  0.62756400  0.92179600  1
  Sm  Sm13  1  0.36812650  0.49351850  0.06740150  1
  Sm  Sm14  1  0.13187350  0.49351850  0.18259850  1
  Sm  Sm15  1  0.86812650  0.00648150  0.06740150  1
  Sm  Sm16  1  0.22267400  0.12756400  0.32820400  1
  Sm  Sm17  1  0.36490700  0.13509300  0.50000000  1
  Sm  Sm18  1  0.13187350  0.99351850  0.06740150  1
  Sm  Sm19  1  0.00648150  0.63187350  0.31740150  1
  Sm  Sm20  1  0.36812650  0.99351850  0.18259850  1
  Sm  Sm21  1  0.50648150  0.36812650  0.93259850  1
  Sm  Sm22  1  0.27732600  0.62756400  0.32820400  1
  Sm  Sm23  1  0.27732600  0.37243600  0.82820400  1
  Sm  Sm24  1  0.62756400  0.27732600  0.17179600  1
  Sm  Sm25  1  0.99351850  0.36812650  0.31740150  1
  Sm  Sm26  1  0.13509300  0.13509300  0.75000000  1
  Sm  Sm27  1  0.50648150  0.63187350  0.43259850  1
  Sm  Sm28  1  0.12756400  0.72267400  0.07820400  1
  Sm  Sm29  1  0.87243600  0.22267400  0.67179600  1
  Sm  Sm30  1  0.22267400  0.37243600  0.42179600  1
  Sm  Sm31  1  0.86812650  0.50648150  0.18259850  1
  Sm  Sm32  1  0.50648150  0.86812650  0.31740150  1
  Sm  Sm33  1  0.12756400  0.22267400  0.17179600  1
  Sm  Sm34  1  0.63187350  0.00648150  0.18259850  1
  Sm  Sm35  1  0.86490700  0.36490700  0.50000000  1
  Sm  Sm36  1  0.13509300  0.36490700  0.00000000  1
  Sm  Sm37  1  0.37243600  0.77732600  0.57820400  1
  Sm  Sm38  1  0.13187350  0.00648150  0.56740150  1
  Sm  Sm39  1  0.37243600  0.22267400  0.07820400  1
  Sm  Sm40  1  0.36490700  0.63509300  0.75000000  1
  Sm  Sm41  1  0.77732600  0.37243600  0.92179600  1
  Sm  Sm42  1  0.99351850  0.63187350  0.81740150  1
  Sm  Sm43  1  0.77732600  0.62756400  0.42179600  1
  Sm  Sm44  1  0.22267400  0.87243600  0.82820400  1
  Sm  Sm45  1  0.13509300  0.63509300  0.50000000  1
  Sm  Sm46  1  0.62756400  0.77732600  0.07820400  1
  Sm  Sm47  1  0.49351850  0.63187350  0.93259850  1
  Sm  Sm48  1  0.37243600  0.27732600  0.67179600  1
  Sm  Sm49  1  0.86490700  0.86490700  0.75000000  1
  Sm  Sm50  1  0.63509300  0.36490700  0.75000000  1
  Sm  Sm51  1  0.99351850  0.86812650  0.93259850  1
  Sm  Sm52  1  0.72267400  0.12756400  0.42179600  1
  Sm  Sm53  1  0.86812650  0.99351850  0.56740150  1
  Sm  Sm54  1  0.63187350  0.99351850  0.68259850  1
  Sm  Sm55  1  0.36812650  0.50648150  0.56740150  1
  Sm  Sm56  1  0.72267400  0.62756400  0.82820400  1
  Sm  Sm57  1  0.86490700  0.63509300  0.00000000  1
  Sm  Sm58  1  0.63187350  0.49351850  0.56740150  1
  Sm  Sm59  1  0.50648150  0.13187350  0.81740150  1
  Sm  Sm60  1  0.86812650  0.49351850  0.68259850  1
  Sm  Sm61  1  0.00648150  0.86812650  0.43259850  1
  Sm  Sm62  1  0.77732600  0.12756400  0.82820400  1
  Sm  Sm63  1  0.77732600  0.87243600  0.32820400  1
  Sm  Sm64  1  0.12756400  0.77732600  0.67179600  1
  Sm  Sm65  1  0.49351850  0.86812650  0.81740150  1
  Sm  Sm66  1  0.63509300  0.63509300  0.25000000  1
  Sm  Sm67  1  0.00648150  0.13187350  0.93259850  1
  Sm  Sm68  1  0.62756400  0.22267400  0.57820400  1
  Sm  Sm69  1  0.37243600  0.72267400  0.17179600  1
  Sm  Sm70  1  0.72267400  0.87243600  0.92179600  1
  Sm  Sm71  1  0.36812650  0.00648150  0.68259850  1
  Sm  Sm72  1  0.00648150  0.36812650  0.81740150  1
  Sm  Sm73  1  0.62756400  0.72267400  0.67179600  1
  Sm  Sm74  1  0.13187350  0.50648150  0.68259850  1
  Sm  Sm75  1  0.36490700  0.86490700  0.00000000  1
  Sm  Sm76  1  0.63509300  0.86490700  0.50000000  1
  Sm  Sm77  1  0.87243600  0.27732600  0.07820400  1
  Sm  Sm78  1  0.63187350  0.50648150  0.06740150  1
  Sm  Sm79  1  0.87243600  0.72267400  0.57820400  1
  S  S80  1  0.36728900  0.47515200  0.37098700  1
  S  S81  1  0.86728900  0.47515200  0.37901300  1
  S  S82  1  0.13271100  0.47515200  0.87901300  1
  S  S83  1  0.13271100  0.52484800  0.37901300  1
  S  S84  1  0.32032700  0.53815800  0.20347700  1
  S  S85  1  0.63271100  0.52484800  0.37098700  1
  S  S86  1  0.34421300  0.17692200  0.21841600  1
  S  S87  1  0.97515200  0.63271100  0.12098700  1
  S  S88  1  0.35148300  0.25000000  0.37500000  1
  S  S89  1  0.14851700  0.25000000  0.87500000  1
  S  S90  1  0.17967300  0.03815800  0.20347700  1
  S  S91  1  0.67967300  0.96184200  0.04652300  1
  S  S92  1  0.65578700  0.82307800  0.21841600  1
  S  S93  1  0.32032700  0.03815800  0.04652300  1
  S  S94  1  0.32032700  0.96184200  0.54652300  1
  S  S95  1  0.75000000  0.35148300  0.62500000  1
  S  S96  1  0.47515200  0.36728900  0.12901300  1
  S  S97  1  0.46184200  0.17967300  0.95347700  1
  S  S98  1  0.03815800  0.17967300  0.29652300  1
  S  S99  1  0.36728900  0.02484800  0.37901300  1
  S  S100  1  0.85148300  0.25000000  0.37500000  1
  S  S101  1  0.84421300  0.17692200  0.53158400  1
  S  S102  1  0.17692200  0.15578700  0.46841600  1
  S  S103  1  0.02484800  0.86728900  0.12901300  1
  S  S104  1  0.53815800  0.17967300  0.45347700  1
  S  S105  1  0.36728900  0.52484800  0.87098700  1
  S  S106  1  0.15578700  0.67692200  0.21841600  1
  S  S107  1  0.96184200  0.17967300  0.79652300  1
  S  S108  1  0.34421300  0.32307800  0.53158400  1
  S  S109  1  0.82307800  0.65578700  0.28158400  1
  S  S110  1  0.17967300  0.96184200  0.70347700  1
  S  S111  1  0.82307800  0.15578700  0.96841600  1
  S  S112  1  0.02484800  0.13271100  0.62901300  1
  S  S113  1  0.17967300  0.53815800  0.04652300  1
  S  S114  1  0.13271100  0.97515200  0.37098700  1
  S  S115  1  0.67692200  0.15578700  0.28158400  1
  S  S116  1  0.64851700  0.25000000  0.87500000  1
  S  S117  1  0.32032700  0.46184200  0.70347700  1
  S  S118  1  0.15578700  0.17692200  0.03158400  1
  S  S119  1  0.17692200  0.34421300  0.28158400  1
  S  S120  1  0.03815800  0.32032700  0.45347700  1
  S  S121  1  0.32307800  0.34421300  0.96841600  1
  S  S122  1  0.25000000  0.35148300  0.12500000  1
  S  S123  1  0.25000000  0.14851700  0.62500000  1
  S  S124  1  0.97515200  0.13271100  0.12901300  1
  S  S125  1  0.46184200  0.32032700  0.79652300  1
  S  S126  1  0.02484800  0.36728900  0.12098700  1
  S  S127  1  0.67692200  0.34421300  0.46841600  1
  S  S128  1  0.52484800  0.13271100  0.12098700  1
  S  S129  1  0.97515200  0.36728900  0.62098700  1
  S  S130  1  0.75000000  0.14851700  0.12500000  1
  S  S131  1  0.84421300  0.32307800  0.21841600  1
  S  S132  1  0.65578700  0.32307800  0.03158400  1
  S  S133  1  0.32307800  0.84421300  0.28158400  1
  S  S134  1  0.53815800  0.32032700  0.29652300  1
  S  S135  1  0.46184200  0.82032700  0.45347700  1
  S  S136  1  0.86728900  0.97515200  0.87098700  1
  S  S137  1  0.36728900  0.97515200  0.87901300  1
  S  S138  1  0.63271100  0.97515200  0.37901300  1
  S  S139  1  0.63271100  0.02484800  0.87901300  1
  S  S140  1  0.82032700  0.03815800  0.70347700  1
  S  S141  1  0.13271100  0.02484800  0.87098700  1
  S  S142  1  0.84421300  0.67692200  0.71841600  1
  S  S143  1  0.47515200  0.13271100  0.62098700  1
  S  S144  1  0.85148300  0.75000000  0.87500000  1
  S  S145  1  0.64851700  0.75000000  0.37500000  1
  S  S146  1  0.67967300  0.53815800  0.70347700  1
  S  S147  1  0.17967300  0.46184200  0.54652300  1
  S  S148  1  0.15578700  0.32307800  0.71841600  1
  S  S149  1  0.82032700  0.53815800  0.54652300  1
  S  S150  1  0.82032700  0.46184200  0.04652300  1
  S  S151  1  0.25000000  0.85148300  0.12500000  1
  S  S152  1  0.97515200  0.86728900  0.62901300  1
  S  S153  1  0.96184200  0.67967300  0.45347700  1
  S  S154  1  0.53815800  0.67967300  0.79652300  1
  S  S155  1  0.86728900  0.52484800  0.87901300  1
  S  S156  1  0.35148300  0.75000000  0.87500000  1
  S  S157  1  0.34421300  0.67692200  0.03158400  1
  S  S158  1  0.67692200  0.65578700  0.96841600  1
  S  S159  1  0.52484800  0.36728900  0.62901300  1
  S  S160  1  0.03815800  0.67967300  0.95347700  1
  S  S161  1  0.86728900  0.02484800  0.37098700  1
  S  S162  1  0.65578700  0.17692200  0.71841600  1
  S  S163  1  0.46184200  0.67967300  0.29652300  1
  S  S164  1  0.84421300  0.82307800  0.03158400  1
  S  S165  1  0.32307800  0.15578700  0.78158400  1
  S  S166  1  0.67967300  0.46184200  0.20347700  1
  S  S167  1  0.32307800  0.65578700  0.46841600  1
  S  S168  1  0.52484800  0.63271100  0.12901300  1
  S  S169  1  0.67967300  0.03815800  0.54652300  1
  S  S170  1  0.63271100  0.47515200  0.87098700  1
  S  S171  1  0.17692200  0.65578700  0.78158400  1
  S  S172  1  0.14851700  0.75000000  0.37500000  1
  S  S173  1  0.82032700  0.96184200  0.20347700  1
  S  S174  1  0.65578700  0.67692200  0.53158400  1
  S  S175  1  0.67692200  0.84421300  0.78158400  1
  S  S176  1  0.53815800  0.82032700  0.95347700  1
  S  S177  1  0.82307800  0.84421300  0.46841600  1
  S  S178  1  0.75000000  0.85148300  0.62500000  1
  S  S179  1  0.75000000  0.64851700  0.12500000  1
  S  S180  1  0.47515200  0.63271100  0.62901300  1
  S  S181  1  0.96184200  0.82032700  0.29652300  1
  S  S182  1  0.52484800  0.86728900  0.62098700  1
  S  S183  1  0.17692200  0.84421300  0.96841600  1
  S  S184  1  0.02484800  0.63271100  0.62098700  1
  S  S185  1  0.47515200  0.86728900  0.12098700  1
  S  S186  1  0.25000000  0.64851700  0.62500000  1
  S  S187  1  0.34421300  0.82307800  0.71841600  1
  S  S188  1  0.15578700  0.82307800  0.53158400  1
  S  S189  1  0.82307800  0.34421300  0.78158400  1
  S  S190  1  0.03815800  0.82032700  0.79652300  1
  S  S191  1  0.96184200  0.32032700  0.95347700  1
  O  O192  1  0.50000000  0.00000000  0.25000000  1
  O  O193  1  0.00000000  0.50000000  0.25000000  1
  O  O194  1  0.00000000  0.00000000  0.50000000  1
  O  O195  1  0.00000000  0.00000000  0.00000000  1
  O  O196  1  0.00000000  0.50000000  0.75000000  1
  O  O197  1  0.50000000  0.00000000  0.75000000  1
  O  O198  1  0.50000000  0.50000000  0.00000000  1
  O  O199  1  0.50000000  0.50000000  0.50000000  1
