# generated using pymatgen
data_KB(CO2)4
_symmetry_space_group_name_H-M   'P 1'
_cell_length_a   8.52397400
_cell_length_b   11.12645200
_cell_length_c   8.42215600
_cell_angle_alpha   90.00000000
_cell_angle_beta   90.00000000
_cell_angle_gamma   90.00000000
_symmetry_Int_Tables_number   1
_chemical_formula_structural   KB(CO2)4
_chemical_formula_sum   'K4 B4 C16 O32'
_cell_volume   798.77064572
_cell_formula_units_Z   4
loop_
 _symmetry_equiv_pos_site_id
 _symmetry_equiv_pos_as_xyz
  1  'x, y, z'
loop_
 _atom_site_type_symbol
 _atom_site_label
 _atom_site_symmetry_multiplicity
 _atom_site_fract_x
 _atom_site_fract_y
 _atom_site_fract_z
 _atom_site_occupancy
  K  K0  1  0.50000000  0.57153000  0.75000000  1
  K  K1  1  0.50000000  0.42847000  0.25000000  1
  K  K2  1  0.00000000  0.07153000  0.75000000  1
  K  K3  1  0.00000000  0.92847000  0.25000000  1
  B  B4  1  0.50000000  0.92823800  0.25000000  1
  B  B5  1  0.50000000  0.07176200  0.75000000  1
  B  B6  1  0.00000000  0.42823800  0.25000000  1
  B  B7  1  0.00000000  0.57176200  0.75000000  1
  C  C8  1  0.50000000  0.73347500  0.15834600  1
  C  C9  1  0.59048900  0.87646500  0.75000000  1
  C  C10  1  0.40951100  0.12353500  0.25000000  1
  C  C11  1  0.40951100  0.87646500  0.75000000  1
  C  C12  1  0.50000000  0.26652500  0.65834600  1
  C  C13  1  0.59048900  0.12353500  0.25000000  1
  C  C14  1  0.50000000  0.73347500  0.34165400  1
  C  C15  1  0.50000000  0.26652500  0.84165400  1
  C  C16  1  0.00000000  0.23347500  0.15834600  1
  C  C17  1  0.09048900  0.37646500  0.75000000  1
  C  C18  1  0.90951100  0.62353500  0.25000000  1
  C  C19  1  0.90951100  0.37646500  0.75000000  1
  C  C20  1  0.00000000  0.76652500  0.65834600  1
  C  C21  1  0.09048900  0.62353500  0.25000000  1
  C  C22  1  0.00000000  0.23347500  0.34165400  1
  C  C23  1  0.00000000  0.76652500  0.84165400  1
  O  O24  1  0.50000000  0.84758300  0.10978500  1
  O  O25  1  0.50000000  0.64485100  0.07330000  1
  O  O26  1  0.50000000  0.35514900  0.92670000  1
  O  O27  1  0.50000000  0.15241700  0.89021500  1
  O  O28  1  0.67317350  0.78728150  0.75000000  1
  O  O29  1  0.63905050  0.00935550  0.25000000  1
  O  O30  1  0.50000000  0.15241700  0.60978500  1
  O  O31  1  0.67317350  0.21271850  0.25000000  1
  O  O32  1  0.50000000  0.35514900  0.57330000  1
  O  O33  1  0.36094950  0.99064450  0.75000000  1
  O  O34  1  0.32682650  0.21271850  0.25000000  1
  O  O35  1  0.32682650  0.78728150  0.75000000  1
  O  O36  1  0.63905050  0.99064450  0.75000000  1
  O  O37  1  0.36094950  0.00935550  0.25000000  1
  O  O38  1  0.50000000  0.64485100  0.42670000  1
  O  O39  1  0.50000000  0.84758300  0.39021500  1
  O  O40  1  0.00000000  0.34758300  0.10978500  1
  O  O41  1  0.00000000  0.14485100  0.07330000  1
  O  O42  1  0.00000000  0.85514900  0.92670000  1
  O  O43  1  0.00000000  0.65241700  0.89021500  1
  O  O44  1  0.17317350  0.28728150  0.75000000  1
  O  O45  1  0.13905050  0.50935550  0.25000000  1
  O  O46  1  0.00000000  0.65241700  0.60978500  1
  O  O47  1  0.17317350  0.71271850  0.25000000  1
  O  O48  1  0.00000000  0.85514900  0.57330000  1
  O  O49  1  0.86094950  0.49064450  0.75000000  1
  O  O50  1  0.82682650  0.71271850  0.25000000  1
  O  O51  1  0.82682650  0.28728150  0.75000000  1
  O  O52  1  0.13905050  0.49064450  0.75000000  1
  O  O53  1  0.86094950  0.50935550  0.25000000  1
  O  O54  1  0.00000000  0.14485100  0.42670000  1
  O  O55  1  0.00000000  0.34758300  0.39021500  1
