# generated using pymatgen
data_KRb3CdCl6
_symmetry_space_group_name_H-M   'P 1'
_cell_length_a   12.73756832
_cell_length_b   12.73756832
_cell_length_c   15.34131710
_cell_angle_alpha   90.00000000
_cell_angle_beta   90.00000000
_cell_angle_gamma   120.00000000
_symmetry_Int_Tables_number   1
_chemical_formula_structural   KRb3CdCl6
_chemical_formula_sum   'K6 Rb18 Cd6 Cl36'
_cell_volume   2155.59084914
_cell_formula_units_Z   6
loop_
 _symmetry_equiv_pos_site_id
 _symmetry_equiv_pos_as_xyz
  1  'x, y, z'
loop_
 _atom_site_type_symbol
 _atom_site_label
 _atom_site_symmetry_multiplicity
 _atom_site_fract_x
 _atom_site_fract_y
 _atom_site_fract_z
 _atom_site_occupancy
  K  K0  1  0.00000000  0.00000000  0.25000000  1
  K  K1  1  0.00000000  0.00000000  0.75000000  1
  K  K2  1  0.66666667  0.33333333  0.58333333  1
  K  K3  1  0.66666667  0.33333333  0.08333333  1
  K  K4  1  0.33333333  0.66666667  0.91666667  1
  K  K5  1  0.33333333  0.66666667  0.41666667  1
  Rb  Rb6  1  0.71102133  0.04435467  0.41666667  1
  Rb  Rb7  1  0.33333333  0.28897867  0.41666667  1
  Rb  Rb8  1  0.95564533  0.66666667  0.41666667  1
  Rb  Rb9  1  0.28897867  0.95564533  0.58333333  1
  Rb  Rb10  1  0.04435467  0.33333333  0.58333333  1
  Rb  Rb11  1  0.66666667  0.71102133  0.58333333  1
  Rb  Rb12  1  0.37768800  0.37768800  0.75000000  1
  Rb  Rb13  1  1.00000000  0.62231200  0.75000000  1
  Rb  Rb14  1  0.62231200  0.00000000  0.75000000  1
  Rb  Rb15  1  0.95564533  0.28897867  0.91666667  1
  Rb  Rb16  1  0.71102133  0.66666667  0.91666667  1
  Rb  Rb17  1  0.33333333  0.04435467  0.91666667  1
  Rb  Rb18  1  0.04435467  0.71102133  0.08333333  1
  Rb  Rb19  1  0.66666667  0.95564533  0.08333333  1
  Rb  Rb20  1  0.28897867  0.33333333  0.08333333  1
  Rb  Rb21  1  0.62231200  0.62231200  0.25000000  1
  Rb  Rb22  1  0.37768800  1.00000000  0.25000000  1
  Rb  Rb23  1  0.00000000  0.37768800  0.25000000  1
  Cd  Cd24  1  0.00000000  0.00000000  0.00000000  1
  Cd  Cd25  1  0.00000000  0.00000000  0.50000000  1
  Cd  Cd26  1  0.66666667  0.33333333  0.33333333  1
  Cd  Cd27  1  0.66666667  0.33333333  0.83333333  1
  Cd  Cd28  1  0.33333333  0.66666667  0.66666667  1
  Cd  Cd29  1  0.33333333  0.66666667  0.16666667  1
  Cl  Cl30  1  0.63765867  0.48829133  0.43831133  1
  Cl  Cl31  1  0.85063267  0.36234133  0.43831133  1
  Cl  Cl32  1  0.51170867  0.14936733  0.43831133  1
  Cl  Cl33  1  0.84504200  0.02900800  0.60497800  1
  Cl  Cl34  1  0.97099200  0.81603400  0.60497800  1
  Cl  Cl35  1  0.18396600  0.15495800  0.60497800  1
  Cl  Cl36  1  0.02900800  0.18396600  0.39502200  1
  Cl  Cl37  1  0.15495800  0.97099200  0.39502200  1
  Cl  Cl38  1  0.81603400  0.84504200  0.39502200  1
  Cl  Cl39  1  0.14936733  0.63765867  0.56168867  1
  Cl  Cl40  1  0.36234133  0.51170867  0.56168867  1
  Cl  Cl41  1  0.48829133  0.85063267  0.56168867  1
  Cl  Cl42  1  0.30432533  0.82162467  0.77164467  1
  Cl  Cl43  1  0.51729933  0.69567467  0.77164467  1
  Cl  Cl44  1  0.17837533  0.48270067  0.77164467  1
  Cl  Cl45  1  0.51170867  0.36234133  0.93831133  1
  Cl  Cl46  1  0.63765867  0.14936733  0.93831133  1
  Cl  Cl47  1  0.85063267  0.48829133  0.93831133  1
  Cl  Cl48  1  0.69567467  0.51729933  0.72835533  1
  Cl  Cl49  1  0.82162467  0.30432533  0.72835533  1
  Cl  Cl50  1  0.48270067  0.17837533  0.72835533  1
  Cl  Cl51  1  0.81603400  0.97099200  0.89502200  1
  Cl  Cl52  1  0.02900800  0.84504200  0.89502200  1
  Cl  Cl53  1  0.15495800  0.18396600  0.89502200  1
  Cl  Cl54  1  0.97099200  0.15495800  0.10497800  1
  Cl  Cl55  1  0.18396600  0.02900800  0.10497800  1
  Cl  Cl56  1  0.84504200  0.81603400  0.10497800  1
  Cl  Cl57  1  0.17837533  0.69567467  0.27164467  1
  Cl  Cl58  1  0.30432533  0.48270067  0.27164467  1
  Cl  Cl59  1  0.51729933  0.82162467  0.27164467  1
  Cl  Cl60  1  0.36234133  0.85063267  0.06168867  1
  Cl  Cl61  1  0.48829133  0.63765867  0.06168867  1
  Cl  Cl62  1  0.14936733  0.51170867  0.06168867  1
  Cl  Cl63  1  0.48270067  0.30432533  0.22835533  1
  Cl  Cl64  1  0.69567467  0.17837533  0.22835533  1
  Cl  Cl65  1  0.82162467  0.51729933  0.22835533  1
