# generated using pymatgen
data_Tl2CdSnTe4
_symmetry_space_group_name_H-M   'P 1'
_cell_length_a   8.67202000
_cell_length_b   8.67202000
_cell_length_c   7.30182200
_cell_angle_alpha   90.00000000
_cell_angle_beta   90.00000000
_cell_angle_gamma   90.00000000
_symmetry_Int_Tables_number   1
_chemical_formula_structural   Tl2CdSnTe4
_chemical_formula_sum   'Tl4 Cd2 Sn2 Te8'
_cell_volume   549.12571699
_cell_formula_units_Z   2
loop_
 _symmetry_equiv_pos_site_id
 _symmetry_equiv_pos_as_xyz
  1  'x, y, z'
loop_
 _atom_site_type_symbol
 _atom_site_label
 _atom_site_symmetry_multiplicity
 _atom_site_fract_x
 _atom_site_fract_y
 _atom_site_fract_z
 _atom_site_occupancy
  Tl  Tl0  1  0.00000000  0.50000000  0.00000000  1
  Tl  Tl1  1  0.50000000  0.00000000  0.00000000  1
  Tl  Tl2  1  0.50000000  0.00000000  0.50000000  1
  Tl  Tl3  1  0.00000000  0.50000000  0.50000000  1
  Cd  Cd4  1  0.00000000  0.00000000  0.50000000  1
  Cd  Cd5  1  0.50000000  0.50000000  0.00000000  1
  Sn  Sn6  1  0.00000000  0.00000000  0.00000000  1
  Sn  Sn7  1  0.50000000  0.50000000  0.50000000  1
  Te  Te8  1  0.81975350  0.18024650  0.23980650  1
  Te  Te9  1  0.31975350  0.31975350  0.26019350  1
  Te  Te10  1  0.18024650  0.18024650  0.76019350  1
  Te  Te11  1  0.18024650  0.81975350  0.23980650  1
  Te  Te12  1  0.31975350  0.68024650  0.73980650  1
  Te  Te13  1  0.81975350  0.81975350  0.76019350  1
  Te  Te14  1  0.68024650  0.68024650  0.26019350  1
  Te  Te15  1  0.68024650  0.31975350  0.73980650  1
