# generated using pymatgen
data_LiFe(SiO3)2
_symmetry_space_group_name_H-M   'P 1'
_cell_length_a   9.83973000
_cell_length_b   8.80212800
_cell_length_c   5.36274093
_cell_angle_alpha   90.00000000
_cell_angle_beta   110.80183273
_cell_angle_gamma   90.00000000
_symmetry_Int_Tables_number   1
_chemical_formula_structural   LiFe(SiO3)2
_chemical_formula_sum   'Li4 Fe4 Si8 O24'
_cell_volume   434.19321601
_cell_formula_units_Z   4
loop_
 _symmetry_equiv_pos_site_id
 _symmetry_equiv_pos_as_xyz
  1  'x, y, z'
loop_
 _atom_site_type_symbol
 _atom_site_label
 _atom_site_symmetry_multiplicity
 _atom_site_fract_x
 _atom_site_fract_y
 _atom_site_fract_z
 _atom_site_occupancy
  Li  Li0  1  0.00000000  0.25191300  0.75000000  1
  Li  Li1  1  0.00000000  0.74808700  0.25000000  1
  Li  Li2  1  0.50000000  0.75191300  0.75000000  1
  Li  Li3  1  0.50000000  0.24808700  0.25000000  1
  Fe  Fe4  1  0.00000000  0.89699600  0.75000000  1
  Fe  Fe5  1  0.00000000  0.10300400  0.25000000  1
  Fe  Fe6  1  0.50000000  0.39699600  0.75000000  1
  Fe  Fe7  1  0.50000000  0.60300400  0.25000000  1
  Si  Si8  1  0.20408600  0.58916600  0.73130500  1
  Si  Si9  1  0.79591400  0.41083400  0.26869500  1
  Si  Si10  1  0.20408600  0.41083400  0.23130500  1
  Si  Si11  1  0.79591400  0.58916600  0.76869500  1
  Si  Si12  1  0.70408600  0.08916600  0.73130500  1
  Si  Si13  1  0.29591400  0.91083400  0.26869500  1
  Si  Si14  1  0.70408600  0.91083400  0.23130500  1
  Si  Si15  1  0.29591400  0.08916600  0.76869500  1
  O  O16  1  0.38411100  0.41473000  0.34992000  1
  O  O17  1  0.85372350  0.50362950  0.05997900  1
  O  O18  1  0.14627650  0.50362950  0.44002100  1
  O  O19  1  0.14627650  0.49637050  0.94002100  1
  O  O20  1  0.85372350  0.49637050  0.55997900  1
  O  O21  1  0.86873100  0.24369900  0.32852600  1
  O  O22  1  0.61588900  0.58527000  0.65008000  1
  O  O23  1  0.38411100  0.58527000  0.84992000  1
  O  O24  1  0.13126900  0.24369900  0.17147400  1
  O  O25  1  0.13126900  0.75630100  0.67147400  1
  O  O26  1  0.86873100  0.75630100  0.82852600  1
  O  O27  1  0.61588900  0.41473000  0.15008000  1
  O  O28  1  0.88411100  0.91473000  0.34992000  1
  O  O29  1  0.35372350  0.00362950  0.05997900  1
  O  O30  1  0.64627650  0.00362950  0.44002100  1
  O  O31  1  0.64627650  0.99637050  0.94002100  1
  O  O32  1  0.35372350  0.99637050  0.55997900  1
  O  O33  1  0.36873100  0.74369900  0.32852600  1
  O  O34  1  0.11588900  0.08527000  0.65008000  1
  O  O35  1  0.88411100  0.08527000  0.84992000  1
  O  O36  1  0.63126900  0.74369900  0.17147400  1
  O  O37  1  0.63126900  0.25630100  0.67147400  1
  O  O38  1  0.36873100  0.25630100  0.82852600  1
  O  O39  1  0.11588900  0.91473000  0.15008000  1
