# generated using pymatgen
data_Ba6Pr3I19
_symmetry_space_group_name_H-M   'P 1'
_cell_length_a   16.29439800
_cell_length_b   12.74724000
_cell_length_c   22.99510422
_cell_angle_alpha   90.00000000
_cell_angle_beta   95.00414098
_cell_angle_gamma   90.00000000
_symmetry_Int_Tables_number   1
_chemical_formula_structural   Ba6Pr3I19
_chemical_formula_sum   'Ba24 Pr12 I76'
_cell_volume   4758.07566026
_cell_formula_units_Z   4
loop_
 _symmetry_equiv_pos_site_id
 _symmetry_equiv_pos_as_xyz
  1  'x, y, z'
loop_
 _atom_site_type_symbol
 _atom_site_label
 _atom_site_symmetry_multiplicity
 _atom_site_fract_x
 _atom_site_fract_y
 _atom_site_fract_z
 _atom_site_occupancy
  Ba  Ba0  1  0.66060550  0.92635250  0.46140000  1
  Ba  Ba1  1  0.68268200  0.10104300  0.21586200  1
  Ba  Ba2  1  0.53031500  0.61641500  0.89438900  1
  Ba  Ba3  1  0.31731800  0.89895700  0.78413800  1
  Ba  Ba4  1  0.33939450  0.07364750  0.53860000  1
  Ba  Ba5  1  0.46968500  0.61641500  0.60561100  1
  Ba  Ba6  1  0.68268200  0.89895700  0.71586200  1
  Ba  Ba7  1  0.66060550  0.07364750  0.96140000  1
  Ba  Ba8  1  0.31731800  0.10104300  0.28413800  1
  Ba  Ba9  1  0.53031500  0.38358500  0.39438900  1
  Ba  Ba10  1  0.46968500  0.38358500  0.10561100  1
  Ba  Ba11  1  0.33939450  0.92635250  0.03860000  1
  Ba  Ba12  1  0.16060550  0.42635250  0.46140000  1
  Ba  Ba13  1  0.18268200  0.60104300  0.21586200  1
  Ba  Ba14  1  0.03031500  0.11641500  0.89438900  1
  Ba  Ba15  1  0.81731800  0.39895700  0.78413800  1
  Ba  Ba16  1  0.83939450  0.57364750  0.53860000  1
  Ba  Ba17  1  0.96968500  0.11641500  0.60561100  1
  Ba  Ba18  1  0.18268200  0.39895700  0.71586200  1
  Ba  Ba19  1  0.16060550  0.57364750  0.96140000  1
  Ba  Ba20  1  0.81731800  0.60104300  0.28413800  1
  Ba  Ba21  1  0.03031500  0.88358500  0.39438900  1
  Ba  Ba22  1  0.96968500  0.88358500  0.10561100  1
  Ba  Ba23  1  0.83939450  0.42635250  0.03860000  1
  Pr  Pr24  1  0.38087950  0.74567850  0.37501000  1
  Pr  Pr25  1  0.50000000  0.74651000  0.25000000  1
  Pr  Pr26  1  0.50000000  0.25349000  0.75000000  1
  Pr  Pr27  1  0.61912050  0.25432150  0.62499000  1
  Pr  Pr28  1  0.61912050  0.74567850  0.12499000  1
  Pr  Pr29  1  0.38087950  0.25432150  0.87501000  1
  Pr  Pr30  1  0.88087950  0.24567850  0.37501000  1
  Pr  Pr31  1  0.00000000  0.24651000  0.25000000  1
  Pr  Pr32  1  0.00000000  0.75349000  0.75000000  1
  Pr  Pr33  1  0.11912050  0.75432150  0.62499000  1
  Pr  Pr34  1  0.11912050  0.24567850  0.12499000  1
  Pr  Pr35  1  0.88087950  0.75432150  0.87501000  1
  I  I36  1  0.45793950  0.84378450  0.50398200  1
  I  I37  1  0.68926500  0.15062200  0.36642700  1
  I  I38  1  0.11191550  0.04286150  0.21468600  1
  I  I39  1  0.69295600  0.17084200  0.75628400  1
  I  I40  1  0.50730950  0.04895950  0.65859000  1
  I  I41  1  0.42594600  0.32992600  0.61641600  1
  I  I42  1  0.45793950  0.15621550  0.00398200  1
  I  I43  1  0.57405400  0.32992600  0.88358400  1
  I  I44  1  0.11690350  0.04309350  0.03488000  1
  I  I45  1  0.69295600  0.82915800  0.25628400  1
  I  I46  1  0.67282100  0.74451100  0.58600600  1
  I  I47  1  0.25626350  0.94503350  0.40140500  1
  I  I48  1  0.31073500  0.15062200  0.13357300  1
  I  I49  1  0.74373650  0.94503350  0.09859500  1
  I  I50  1  0.67282100  0.25548900  0.08600600  1
  I  I51  1  0.11191550  0.95713850  0.71468600  1
  I  I52  1  0.50730950  0.95104050  0.15859000  1
  I  I53  1  0.54206050  0.84378450  0.99601800  1
  I  I54  1  0.31073500  0.84937800  0.63357300  1
  I  I55  1  0.88808450  0.95713850  0.78531400  1
  I  I56  1  0.88808450  0.04286150  0.28531400  1
  I  I57  1  0.50000000  0.25428700  0.25000000  1
  I  I58  1  0.74373650  0.05496650  0.59859500  1
  I  I59  1  0.32717900  0.74451100  0.91399400  1
  I  I60  1  0.11690350  0.95690650  0.53488000  1
  I  I61  1  0.30704400  0.82915800  0.24371600  1
  I  I62  1  0.88309650  0.95690650  0.96512000  1
  I  I63  1  0.25626350  0.05496650  0.90140500  1
  I  I64  1  0.49269050  0.04895950  0.84141000  1
  I  I65  1  0.57405400  0.67007400  0.38358400  1
  I  I66  1  0.42594600  0.67007400  0.11641600  1
  I  I67  1  0.50000000  0.74571300  0.75000000  1
  I  I68  1  0.88309650  0.04309350  0.46512000  1
  I  I69  1  0.32717900  0.25548900  0.41399400  1
  I  I70  1  0.54206050  0.15621550  0.49601800  1
  I  I71  1  0.68926500  0.84937800  0.86642700  1
  I  I72  1  0.30704400  0.17084200  0.74371600  1
  I  I73  1  0.49269050  0.95104050  0.34141000  1
  I  I74  1  0.95793950  0.34378450  0.50398200  1
  I  I75  1  0.18926500  0.65062200  0.36642700  1
  I  I76  1  0.61191550  0.54286150  0.21468600  1
  I  I77  1  0.19295600  0.67084200  0.75628400  1
  I  I78  1  0.00730950  0.54895950  0.65859000  1
  I  I79  1  0.92594600  0.82992600  0.61641600  1
  I  I80  1  0.95793950  0.65621550  0.00398200  1
  I  I81  1  0.07405400  0.82992600  0.88358400  1
  I  I82  1  0.61690350  0.54309350  0.03488000  1
  I  I83  1  0.19295600  0.32915800  0.25628400  1
  I  I84  1  0.17282100  0.24451100  0.58600600  1
  I  I85  1  0.75626350  0.44503350  0.40140500  1
  I  I86  1  0.81073500  0.65062200  0.13357300  1
  I  I87  1  0.24373650  0.44503350  0.09859500  1
  I  I88  1  0.17282100  0.75548900  0.08600600  1
  I  I89  1  0.61191550  0.45713850  0.71468600  1
  I  I90  1  0.00730950  0.45104050  0.15859000  1
  I  I91  1  0.04206050  0.34378450  0.99601800  1
  I  I92  1  0.81073500  0.34937800  0.63357300  1
  I  I93  1  0.38808450  0.45713850  0.78531400  1
  I  I94  1  0.38808450  0.54286150  0.28531400  1
  I  I95  1  0.00000000  0.75428700  0.25000000  1
  I  I96  1  0.24373650  0.55496650  0.59859500  1
  I  I97  1  0.82717900  0.24451100  0.91399400  1
  I  I98  1  0.61690350  0.45690650  0.53488000  1
  I  I99  1  0.80704400  0.32915800  0.24371600  1
  I  I100  1  0.38309650  0.45690650  0.96512000  1
  I  I101  1  0.75626350  0.55496650  0.90140500  1
  I  I102  1  0.99269050  0.54895950  0.84141000  1
  I  I103  1  0.07405400  0.17007400  0.38358400  1
  I  I104  1  0.92594600  0.17007400  0.11641600  1
  I  I105  1  0.00000000  0.24571300  0.75000000  1
  I  I106  1  0.38309650  0.54309350  0.46512000  1
  I  I107  1  0.82717900  0.75548900  0.41399400  1
  I  I108  1  0.04206050  0.65621550  0.49601800  1
  I  I109  1  0.18926500  0.34937800  0.86642700  1
  I  I110  1  0.80704400  0.67084200  0.74371600  1
  I  I111  1  0.99269050  0.45104050  0.34141000  1
