# generated using pymatgen
data_B2PdO4
_symmetry_space_group_name_H-M   'P 1'
_cell_length_a   11.79724200
_cell_length_b   11.79724200
_cell_length_c   5.76839400
_cell_angle_alpha   90.00000000
_cell_angle_beta   90.00000000
_cell_angle_gamma   90.00000000
_symmetry_Int_Tables_number   1
_chemical_formula_structural   B2PdO4
_chemical_formula_sum   'B24 Pd12 O48'
_cell_volume   802.81576659
_cell_formula_units_Z   12
loop_
 _symmetry_equiv_pos_site_id
 _symmetry_equiv_pos_as_xyz
  1  'x, y, z'
loop_
 _atom_site_type_symbol
 _atom_site_label
 _atom_site_symmetry_multiplicity
 _atom_site_fract_x
 _atom_site_fract_y
 _atom_site_fract_z
 _atom_site_occupancy
  B  B0  1  0.14842500  0.68467400  0.05335600  1
  B  B1  1  0.31532600  0.14842500  0.94664400  1
  B  B2  1  0.68467400  0.85157500  0.94664400  1
  B  B3  1  0.85157500  0.31532600  0.05335600  1
  B  B4  1  0.14842500  0.81532600  0.69664400  1
  B  B5  1  0.85157500  0.18467400  0.69664400  1
  B  B6  1  0.18467400  0.14842500  0.30335600  1
  B  B7  1  0.81532600  0.85157500  0.30335600  1
  B  B8  1  0.75000000  0.99917400  0.62500000  1
  B  B9  1  0.00082600  0.75000000  0.37500000  1
  B  B10  1  0.99917400  0.25000000  0.37500000  1
  B  B11  1  0.25000000  0.00082600  0.62500000  1
  B  B12  1  0.64842500  0.18467400  0.55335600  1
  B  B13  1  0.81532600  0.64842500  0.44664400  1
  B  B14  1  0.18467400  0.35157500  0.44664400  1
  B  B15  1  0.35157500  0.81532600  0.55335600  1
  B  B16  1  0.64842500  0.31532600  0.19664400  1
  B  B17  1  0.35157500  0.68467400  0.19664400  1
  B  B18  1  0.68467400  0.64842500  0.80335600  1
  B  B19  1  0.31532600  0.35157500  0.80335600  1
  B  B20  1  0.25000000  0.49917400  0.12500000  1
  B  B21  1  0.50082600  0.25000000  0.87500000  1
  B  B22  1  0.49917400  0.75000000  0.87500000  1
  B  B23  1  0.75000000  0.50082600  0.12500000  1
  Pd  Pd24  1  0.50000000  0.00000000  0.75000000  1
  Pd  Pd25  1  0.00000000  0.00000000  0.50000000  1
  Pd  Pd26  1  0.75000000  0.08023600  0.12500000  1
  Pd  Pd27  1  0.91976400  0.75000000  0.87500000  1
  Pd  Pd28  1  0.08023600  0.25000000  0.87500000  1
  Pd  Pd29  1  0.25000000  0.91976400  0.12500000  1
  Pd  Pd30  1  0.00000000  0.50000000  0.25000000  1
  Pd  Pd31  1  0.50000000  0.50000000  0.00000000  1
  Pd  Pd32  1  0.25000000  0.58023600  0.62500000  1
  Pd  Pd33  1  0.41976400  0.25000000  0.37500000  1
  Pd  Pd34  1  0.58023600  0.75000000  0.37500000  1
  Pd  Pd35  1  0.75000000  0.41976400  0.62500000  1
  O  O36  1  0.06992900  0.66304200  0.25184100  1
  O  O37  1  0.33695800  0.06992900  0.74815900  1
  O  O38  1  0.66304200  0.93007100  0.74815900  1
  O  O39  1  0.93007100  0.33695800  0.25184100  1
  O  O40  1  0.06992900  0.83695800  0.49815900  1
  O  O41  1  0.93007100  0.16304200  0.49815900  1
  O  O42  1  0.16304200  0.06992900  0.50184100  1
  O  O43  1  0.83695800  0.93007100  0.50184100  1
  O  O44  1  0.75000000  0.24844600  0.62500000  1
  O  O45  1  0.75155400  0.75000000  0.37500000  1
  O  O46  1  0.24844600  0.25000000  0.37500000  1
  O  O47  1  0.25000000  0.75155400  0.62500000  1
  O  O48  1  0.08990900  0.75000000  0.87500000  1
  O  O49  1  0.25000000  0.08990900  0.12500000  1
  O  O50  1  0.75000000  0.91009100  0.12500000  1
  O  O51  1  0.91009100  0.25000000  0.87500000  1
  O  O52  1  0.68683350  0.07348550  0.45958350  1
  O  O53  1  0.92651450  0.68683350  0.54041650  1
  O  O54  1  0.07348550  0.31316650  0.54041650  1
  O  O55  1  0.31316650  0.92651450  0.45958350  1
  O  O56  1  0.18683350  0.92651450  0.79041650  1
  O  O57  1  0.81316650  0.07348550  0.79041650  1
  O  O58  1  0.07348550  0.18683350  0.20958350  1
  O  O59  1  0.92651450  0.81316650  0.20958350  1
  O  O60  1  0.56992900  0.16304200  0.75184100  1
  O  O61  1  0.83695800  0.56992900  0.24815900  1
  O  O62  1  0.16304200  0.43007100  0.24815900  1
  O  O63  1  0.43007100  0.83695800  0.75184100  1
  O  O64  1  0.56992900  0.33695800  0.99815900  1
  O  O65  1  0.43007100  0.66304200  0.99815900  1
  O  O66  1  0.66304200  0.56992900  0.00184100  1
  O  O67  1  0.33695800  0.43007100  0.00184100  1
  O  O68  1  0.25000000  0.74844600  0.12500000  1
  O  O69  1  0.25155400  0.25000000  0.87500000  1
  O  O70  1  0.74844600  0.75000000  0.87500000  1
  O  O71  1  0.75000000  0.25155400  0.12500000  1
  O  O72  1  0.58990900  0.25000000  0.37500000  1
  O  O73  1  0.75000000  0.58990900  0.62500000  1
  O  O74  1  0.25000000  0.41009100  0.62500000  1
  O  O75  1  0.41009100  0.75000000  0.37500000  1
  O  O76  1  0.18683350  0.57348550  0.95958350  1
  O  O77  1  0.42651450  0.18683350  0.04041650  1
  O  O78  1  0.57348550  0.81316650  0.04041650  1
  O  O79  1  0.81316650  0.42651450  0.95958350  1
  O  O80  1  0.68683350  0.42651450  0.29041650  1
  O  O81  1  0.31316650  0.57348550  0.29041650  1
  O  O82  1  0.57348550  0.68683350  0.70958350  1
  O  O83  1  0.42651450  0.31316650  0.70958350  1
