# generated using pymatgen
data_Ta2NiSe5
_symmetry_space_group_name_H-M   'P 1'
_cell_length_a   3.51232000
_cell_length_b   13.62804400
_cell_length_c   15.78686400
_cell_angle_alpha   90.00000000
_cell_angle_beta   90.00000000
_cell_angle_gamma   90.00000000
_symmetry_Int_Tables_number   1
_chemical_formula_structural   Ta2NiSe5
_chemical_formula_sum   'Ta8 Ni4 Se20'
_cell_volume   755.65484528
_cell_formula_units_Z   4
loop_
 _symmetry_equiv_pos_site_id
 _symmetry_equiv_pos_as_xyz
  1  'x, y, z'
loop_
 _atom_site_type_symbol
 _atom_site_label
 _atom_site_symmetry_multiplicity
 _atom_site_fract_x
 _atom_site_fract_y
 _atom_site_fract_z
 _atom_site_occupancy
  Ta  Ta0  1  0.50000000  0.27839200  0.61071000  1
  Ta  Ta1  1  0.50000000  0.27839200  0.88929000  1
  Ta  Ta2  1  0.00000000  0.22160800  0.38929000  1
  Ta  Ta3  1  0.00000000  0.22160800  0.11071000  1
  Ta  Ta4  1  0.00000000  0.77839200  0.61071000  1
  Ta  Ta5  1  0.00000000  0.77839200  0.88929000  1
  Ta  Ta6  1  0.50000000  0.72160800  0.38929000  1
  Ta  Ta7  1  0.50000000  0.72160800  0.11071000  1
  Ni  Ni8  1  0.00000000  0.29766200  0.75000000  1
  Ni  Ni9  1  0.50000000  0.20233800  0.25000000  1
  Ni  Ni10  1  0.50000000  0.79766200  0.75000000  1
  Ni  Ni11  1  0.00000000  0.70233800  0.25000000  1
  Se  Se12  1  0.00000000  0.41243100  0.63839000  1
  Se  Se13  1  0.00000000  0.41243100  0.86161000  1
  Se  Se14  1  0.50000000  0.08756900  0.36161000  1
  Se  Se15  1  0.50000000  0.08756900  0.13839000  1
  Se  Se16  1  0.50000000  0.34805800  0.45061800  1
  Se  Se17  1  0.50000000  0.34805800  0.04938200  1
  Se  Se18  1  0.00000000  0.15194200  0.54938200  1
  Se  Se19  1  0.00000000  0.15194200  0.95061800  1
  Se  Se20  1  0.50000000  0.17856800  0.75000000  1
  Se  Se21  1  0.00000000  0.32143200  0.25000000  1
  Se  Se22  1  0.50000000  0.91243100  0.63839000  1
  Se  Se23  1  0.50000000  0.91243100  0.86161000  1
  Se  Se24  1  0.00000000  0.58756900  0.36161000  1
  Se  Se25  1  0.00000000  0.58756900  0.13839000  1
  Se  Se26  1  0.00000000  0.84805800  0.45061800  1
  Se  Se27  1  0.00000000  0.84805800  0.04938200  1
  Se  Se28  1  0.50000000  0.65194200  0.54938200  1
  Se  Se29  1  0.50000000  0.65194200  0.95061800  1
  Se  Se30  1  0.00000000  0.67856800  0.75000000  1
  Se  Se31  1  0.50000000  0.82143200  0.25000000  1
