# generated using pymatgen
data_K3AgC4(SN)4
_symmetry_space_group_name_H-M   'P 1'
_cell_length_a   8.10238700
_cell_length_b   12.91951100
_cell_length_c   14.73135255
_cell_angle_alpha   90.00000000
_cell_angle_beta   104.49069559
_cell_angle_gamma   90.00000000
_symmetry_Int_Tables_number   1
_chemical_formula_structural   K3AgC4(SN)4
_chemical_formula_sum   'K12 Ag4 C16 S16 N16'
_cell_volume   1493.00584048
_cell_formula_units_Z   4
loop_
 _symmetry_equiv_pos_site_id
 _symmetry_equiv_pos_as_xyz
  1  'x, y, z'
loop_
 _atom_site_type_symbol
 _atom_site_label
 _atom_site_symmetry_multiplicity
 _atom_site_fract_x
 _atom_site_fract_y
 _atom_site_fract_z
 _atom_site_occupancy
  K  K0  1  0.53561200  0.74707000  0.02429200  1
  K  K1  1  0.46438800  0.25293000  0.97570800  1
  K  K2  1  0.34196000  0.99088000  0.69817600  1
  K  K3  1  0.08991100  0.74252100  0.51968100  1
  K  K4  1  0.03561200  0.75293000  0.02429200  1
  K  K5  1  0.96438800  0.24707000  0.97570800  1
  K  K6  1  0.58991100  0.75747900  0.51968100  1
  K  K7  1  0.84196000  0.50912000  0.69817600  1
  K  K8  1  0.65804000  0.00912000  0.30182400  1
  K  K9  1  0.15804000  0.49088000  0.30182400  1
  K  K10  1  0.91008900  0.25747900  0.48031900  1
  K  K11  1  0.41008900  0.24252100  0.48031900  1
  Ag  Ag12  1  0.36533400  0.48715700  0.77674600  1
  Ag  Ag13  1  0.13466600  0.98715700  0.22325400  1
  Ag  Ag14  1  0.86533400  0.01284300  0.77674600  1
  Ag  Ag15  1  0.63466600  0.51284300  0.22325400  1
  C  C16  1  0.78659900  0.27409500  0.22528500  1
  C  C17  1  0.21340100  0.72590500  0.77471500  1
  C  C18  1  0.80134900  0.74588400  0.30999800  1
  C  C19  1  0.19865100  0.25411600  0.69000200  1
  C  C20  1  0.23266900  0.96695000  0.94115200  1
  C  C21  1  0.69865100  0.24588400  0.69000200  1
  C  C22  1  0.76733100  0.03305000  0.05884800  1
  C  C23  1  0.73266900  0.53305000  0.94115200  1
  C  C24  1  0.71340100  0.77409500  0.77471500  1
  C  C25  1  0.28659900  0.22590500  0.22528500  1
  C  C26  1  0.74044300  0.52780200  0.45963500  1
  C  C27  1  0.75955700  0.02780200  0.54036500  1
  C  C28  1  0.26733100  0.46695000  0.05884800  1
  C  C29  1  0.24044300  0.97219800  0.45963500  1
  C  C30  1  0.25955700  0.47219800  0.54036500  1
  C  C31  1  0.30134900  0.75411600  0.30999800  1
  S  S32  1  0.37998700  0.55411700  0.61319700  1
  S  S33  1  0.21721000  0.63226800  0.85142000  1
  S  S34  1  0.82776000  0.93202200  0.12736000  1
  S  S35  1  0.67217300  0.17278300  0.77680200  1
  S  S36  1  0.67224000  0.43202200  0.87264000  1
  S  S37  1  0.87998700  0.94588300  0.61319700  1
  S  S38  1  0.17224000  0.06797800  0.87264000  1
  S  S39  1  0.32776000  0.56797800  0.12736000  1
  S  S40  1  0.82782700  0.67278300  0.22319800  1
  S  S41  1  0.17217300  0.32721700  0.77680200  1
  S  S42  1  0.71721000  0.86773200  0.85142000  1
  S  S43  1  0.62001300  0.44588300  0.38680300  1
  S  S44  1  0.28279000  0.13226800  0.14858000  1
  S  S45  1  0.12001300  0.05411700  0.38680300  1
  S  S46  1  0.78279000  0.36773200  0.14858000  1
  S  S47  1  0.32782700  0.82721700  0.22319800  1
  N  N48  1  0.71646800  0.30016900  0.62813000  1
  N  N49  1  0.72186300  0.10527400  0.00949500  1
  N  N50  1  0.71030100  0.70739300  0.71922500  1
  N  N51  1  0.82656300  0.58603800  0.51383500  1
  N  N52  1  0.28353200  0.69983100  0.37187000  1
  N  N53  1  0.67343700  0.08603800  0.48616500  1
  N  N54  1  0.21646800  0.19983100  0.62813000  1
  N  N55  1  0.27813700  0.89472600  0.99050500  1
  N  N56  1  0.17343700  0.41396200  0.48616500  1
  N  N57  1  0.78969900  0.20739300  0.28077500  1
  N  N58  1  0.22186300  0.39472600  0.00949500  1
  N  N59  1  0.77813700  0.60527400  0.99050500  1
  N  N60  1  0.78353200  0.80016900  0.37187000  1
  N  N61  1  0.21030100  0.79260700  0.71922500  1
  N  N62  1  0.28969900  0.29260700  0.28077500  1
  N  N63  1  0.32656300  0.91396200  0.51383500  1
