# generated using pymatgen
data_NaPr2S2O8F3
_symmetry_space_group_name_H-M   'P 1'
_cell_length_a   15.83127800
_cell_length_b   6.99456600
_cell_length_c   8.30392041
_cell_angle_alpha   90.00000000
_cell_angle_beta   115.76758351
_cell_angle_gamma   90.00000000
_symmetry_Int_Tables_number   1
_chemical_formula_structural   NaPr2S2O8F3
_chemical_formula_sum   'Na4 Pr8 S8 O32 F12'
_cell_volume   828.08501756
_cell_formula_units_Z   4
loop_
 _symmetry_equiv_pos_site_id
 _symmetry_equiv_pos_as_xyz
  1  'x, y, z'
loop_
 _atom_site_type_symbol
 _atom_site_label
 _atom_site_symmetry_multiplicity
 _atom_site_fract_x
 _atom_site_fract_y
 _atom_site_fract_z
 _atom_site_occupancy
  Na  Na0  1  0.00000000  0.38219700  0.75000000  1
  Na  Na1  1  0.00000000  0.61780300  0.25000000  1
  Na  Na2  1  0.50000000  0.88219700  0.75000000  1
  Na  Na3  1  0.50000000  0.11780300  0.25000000  1
  Pr  Pr4  1  0.38015450  0.59114650  0.03786200  1
  Pr  Pr5  1  0.11984550  0.09114650  0.46213800  1
  Pr  Pr6  1  0.38015450  0.40885350  0.53786200  1
  Pr  Pr7  1  0.11984550  0.90885350  0.96213800  1
  Pr  Pr8  1  0.88015450  0.09114650  0.03786200  1
  Pr  Pr9  1  0.61984550  0.59114650  0.46213800  1
  Pr  Pr10  1  0.88015450  0.90885350  0.53786200  1
  Pr  Pr11  1  0.61984550  0.40885350  0.96213800  1
  S  S12  1  0.32076800  0.91320500  0.33878900  1
  S  S13  1  0.17923200  0.58679500  0.66121100  1
  S  S14  1  0.17923200  0.41320500  0.16121100  1
  S  S15  1  0.32076800  0.08679500  0.83878900  1
  S  S16  1  0.82076800  0.41320500  0.33878900  1
  S  S17  1  0.67923200  0.08679500  0.66121100  1
  S  S18  1  0.67923200  0.91320500  0.16121100  1
  S  S19  1  0.82076800  0.58679500  0.83878900  1
  O  O20  1  0.19469700  0.34890900  0.34445100  1
  O  O21  1  0.13211950  0.73781750  0.52627000  1
  O  O22  1  0.13211950  0.26218250  0.02627000  1
  O  O23  1  0.27546500  0.45198800  0.17948100  1
  O  O24  1  0.11993850  0.41263050  0.61118300  1
  O  O25  1  0.30530300  0.15109100  0.65554900  1
  O  O26  1  0.30530300  0.84890900  0.15554900  1
  O  O27  1  0.38006150  0.08736950  0.38881700  1
  O  O28  1  0.36788050  0.23781750  0.97373000  1
  O  O29  1  0.27546500  0.54801200  0.67948100  1
  O  O30  1  0.38006150  0.91263050  0.88881700  1
  O  O31  1  0.22453500  0.95198800  0.32051900  1
  O  O32  1  0.11993850  0.58736950  0.11118300  1
  O  O33  1  0.36788050  0.76218250  0.47373000  1
  O  O34  1  0.19469700  0.65109100  0.84445100  1
  O  O35  1  0.22453500  0.04801200  0.82051900  1
  O  O36  1  0.69469700  0.84890900  0.34445100  1
  O  O37  1  0.63211950  0.23781750  0.52627000  1
  O  O38  1  0.63211950  0.76218250  0.02627000  1
  O  O39  1  0.77546500  0.95198800  0.17948100  1
  O  O40  1  0.61993850  0.91263050  0.61118300  1
  O  O41  1  0.80530300  0.65109100  0.65554900  1
  O  O42  1  0.80530300  0.34890900  0.15554900  1
  O  O43  1  0.88006150  0.58736950  0.38881700  1
  O  O44  1  0.86788050  0.73781750  0.97373000  1
  O  O45  1  0.77546500  0.04801200  0.67948100  1
  O  O46  1  0.88006150  0.41263050  0.88881700  1
  O  O47  1  0.72453500  0.45198800  0.32051900  1
  O  O48  1  0.61993850  0.08736950  0.11118300  1
  O  O49  1  0.86788050  0.26218250  0.47373000  1
  O  O50  1  0.69469700  0.15109100  0.84445100  1
  O  O51  1  0.72453500  0.54801200  0.82051900  1
  F  F52  1  0.45489600  0.55751900  0.83990800  1
  F  F53  1  0.45489600  0.44248100  0.33990800  1
  F  F54  1  0.04510400  0.94248100  0.16009200  1
  F  F55  1  0.04510400  0.05751900  0.66009200  1
  F  F56  1  0.00000000  0.71613200  0.75000000  1
  F  F57  1  0.00000000  0.28386800  0.25000000  1
  F  F58  1  0.95489600  0.05751900  0.83990800  1
  F  F59  1  0.95489600  0.94248100  0.33990800  1
  F  F60  1  0.54510400  0.44248100  0.16009200  1
  F  F61  1  0.54510400  0.55751900  0.66009200  1
  F  F62  1  0.50000000  0.21613200  0.75000000  1
  F  F63  1  0.50000000  0.78386800  0.25000000  1
