# generated using pymatgen
data_Rb4Re6S13
_symmetry_space_group_name_H-M   'P 1'
_cell_length_a   9.96194600
_cell_length_b   16.90954600
_cell_length_c   14.15527670
_cell_angle_alpha   90.00000000
_cell_angle_beta   99.65116737
_cell_angle_gamma   90.00000000
_symmetry_Int_Tables_number   1
_chemical_formula_structural   Rb4Re6S13
_chemical_formula_sum   'Rb16 Re24 S52'
_cell_volume   2350.73615234
_cell_formula_units_Z   4
loop_
 _symmetry_equiv_pos_site_id
 _symmetry_equiv_pos_as_xyz
  1  'x, y, z'
loop_
 _atom_site_type_symbol
 _atom_site_label
 _atom_site_symmetry_multiplicity
 _atom_site_fract_x
 _atom_site_fract_y
 _atom_site_fract_z
 _atom_site_occupancy
  Rb  Rb0  1  0.23232850  0.13915750  0.38203800  1
  Rb  Rb1  1  0.76767150  0.13915750  0.11796200  1
  Rb  Rb2  1  0.76767150  0.86084250  0.61796200  1
  Rb  Rb3  1  0.23232850  0.86084250  0.88203800  1
  Rb  Rb4  1  0.72674000  0.96989400  0.33660600  1
  Rb  Rb5  1  0.27326000  0.96989400  0.16339400  1
  Rb  Rb6  1  0.27326000  0.03010600  0.66339400  1
  Rb  Rb7  1  0.72674000  0.03010600  0.83660600  1
  Rb  Rb8  1  0.73232850  0.63915750  0.38203800  1
  Rb  Rb9  1  0.26767150  0.63915750  0.11796200  1
  Rb  Rb10  1  0.26767150  0.36084250  0.61796200  1
  Rb  Rb11  1  0.73232850  0.36084250  0.88203800  1
  Rb  Rb12  1  0.22674000  0.46989400  0.33660600  1
  Rb  Rb13  1  0.77326000  0.46989400  0.16339400  1
  Rb  Rb14  1  0.77326000  0.53010600  0.66339400  1
  Rb  Rb15  1  0.22674000  0.53010600  0.83660600  1
  Re  Re16  1  0.16444750  0.15145250  0.97860300  1
  Re  Re17  1  0.83555250  0.15145250  0.52139700  1
  Re  Re18  1  0.83555250  0.84854750  0.02139700  1
  Re  Re19  1  0.16444750  0.84854750  0.47860300  1
  Re  Re20  1  0.63617500  0.20833100  0.39175700  1
  Re  Re21  1  0.36382500  0.20833100  0.10824300  1
  Re  Re22  1  0.36382500  0.79166900  0.60824300  1
  Re  Re23  1  0.63617500  0.79166900  0.89175700  1
  Re  Re24  1  0.62463250  0.77929450  0.07707900  1
  Re  Re25  1  0.37536750  0.77929450  0.42292100  1
  Re  Re26  1  0.37536750  0.22070550  0.92292100  1
  Re  Re27  1  0.62463250  0.22070550  0.57707900  1
  Re  Re28  1  0.66444750  0.65145250  0.97860300  1
  Re  Re29  1  0.33555250  0.65145250  0.52139700  1
  Re  Re30  1  0.33555250  0.34854750  0.02139700  1
  Re  Re31  1  0.66444750  0.34854750  0.47860300  1
  Re  Re32  1  0.13617500  0.70833100  0.39175700  1
  Re  Re33  1  0.86382500  0.70833100  0.10824300  1
  Re  Re34  1  0.86382500  0.29166900  0.60824300  1
  Re  Re35  1  0.13617500  0.29166900  0.89175700  1
  Re  Re36  1  0.12463250  0.27929450  0.07707900  1
  Re  Re37  1  0.87536750  0.27929450  0.42292100  1
  Re  Re38  1  0.87536750  0.72070550  0.92292100  1
  Re  Re39  1  0.12463250  0.72070550  0.57707900  1
  S  S40  1  0.60673000  0.09523200  0.49313300  1
  S  S41  1  0.39327000  0.09523200  0.00686700  1
  S  S42  1  0.39327000  0.90476800  0.50686700  1
  S  S43  1  0.60673000  0.90476800  0.99313300  1
  S  S44  1  0.15665700  0.14963600  0.14796400  1
  S  S45  1  0.84334300  0.14963600  0.35203600  1
  S  S46  1  0.84334300  0.85036400  0.85203600  1
  S  S47  1  0.15665700  0.85036400  0.64796400  1
  S  S48  1  0.45150150  0.27622150  0.45213500  1
  S  S49  1  0.54849850  0.27622150  0.04786500  1
  S  S50  1  0.54849850  0.72377850  0.54786500  1
  S  S51  1  0.45150150  0.72377850  0.95213500  1
  S  S52  1  0.81755450  0.82928050  0.18814400  1
  S  S53  1  0.18244550  0.82928050  0.31185600  1
  S  S54  1  0.18244550  0.17071950  0.81185600  1
  S  S55  1  0.81755450  0.17071950  0.68814400  1
  S  S56  1  0.54646800  0.80960500  0.32279400  1
  S  S57  1  0.45353200  0.80960500  0.17720600  1
  S  S58  1  0.45353200  0.19039500  0.67720600  1
  S  S59  1  0.54646800  0.19039500  0.82279400  1
  S  S60  1  0.94296100  0.98215700  0.05419400  1
  S  S61  1  0.05703900  0.98215700  0.44580600  1
  S  S62  1  0.05703900  0.01784300  0.94580600  1
  S  S63  1  0.94296100  0.01784300  0.55419400  1
  S  S64  1  0.50000000  0.14146400  0.25000000  1
  S  S65  1  0.50000000  0.85853600  0.75000000  1
  S  S66  1  0.10673000  0.59523200  0.49313300  1
  S  S67  1  0.89327000  0.59523200  0.00686700  1
  S  S68  1  0.89327000  0.40476800  0.50686700  1
  S  S69  1  0.10673000  0.40476800  0.99313300  1
  S  S70  1  0.65665700  0.64963600  0.14796400  1
  S  S71  1  0.34334300  0.64963600  0.35203600  1
  S  S72  1  0.34334300  0.35036400  0.85203600  1
  S  S73  1  0.65665700  0.35036400  0.64796400  1
  S  S74  1  0.95150150  0.77622150  0.45213500  1
  S  S75  1  0.04849850  0.77622150  0.04786500  1
  S  S76  1  0.04849850  0.22377850  0.54786500  1
  S  S77  1  0.95150150  0.22377850  0.95213500  1
  S  S78  1  0.31755450  0.32928050  0.18814400  1
  S  S79  1  0.68244550  0.32928050  0.31185600  1
  S  S80  1  0.68244550  0.67071950  0.81185600  1
  S  S81  1  0.31755450  0.67071950  0.68814400  1
  S  S82  1  0.04646800  0.30960500  0.32279400  1
  S  S83  1  0.95353200  0.30960500  0.17720600  1
  S  S84  1  0.95353200  0.69039500  0.67720600  1
  S  S85  1  0.04646800  0.69039500  0.82279400  1
  S  S86  1  0.44296100  0.48215700  0.05419400  1
  S  S87  1  0.55703900  0.48215700  0.44580600  1
  S  S88  1  0.55703900  0.51784300  0.94580600  1
  S  S89  1  0.44296100  0.51784300  0.55419400  1
  S  S90  1  0.00000000  0.64146400  0.25000000  1
  S  S91  1  0.00000000  0.35853600  0.75000000  1
