# generated using pymatgen
data_CdSb2Se3Br2
_symmetry_space_group_name_H-M   'P 1'
_cell_length_a   21.74841400
_cell_length_b   4.09409000
_cell_length_c   12.77338069
_cell_angle_alpha   90.00000000
_cell_angle_beta   120.75798476
_cell_angle_gamma   90.00000000
_symmetry_Int_Tables_number   1
_chemical_formula_structural   CdSb2Se3Br2
_chemical_formula_sum   'Cd4 Sb8 Se12 Br8'
_cell_volume   977.35740744
_cell_formula_units_Z   4
loop_
 _symmetry_equiv_pos_site_id
 _symmetry_equiv_pos_as_xyz
  1  'x, y, z'
loop_
 _atom_site_type_symbol
 _atom_site_label
 _atom_site_symmetry_multiplicity
 _atom_site_fract_x
 _atom_site_fract_y
 _atom_site_fract_z
 _atom_site_occupancy
  Cd  Cd0  1  0.84889800  0.50000000  0.54707400  1
  Cd  Cd1  1  0.15110200  0.50000000  0.45292600  1
  Cd  Cd2  1  0.34889800  0.00000000  0.54707400  1
  Cd  Cd3  1  0.65110200  0.00000000  0.45292600  1
  Sb  Sb4  1  0.04722500  0.00000000  0.78487700  1
  Sb  Sb5  1  0.95277500  0.00000000  0.21512300  1
  Sb  Sb6  1  0.70608800  0.00000000  0.08708200  1
  Sb  Sb7  1  0.29391200  0.00000000  0.91291800  1
  Sb  Sb8  1  0.54722500  0.50000000  0.78487700  1
  Sb  Sb9  1  0.45277500  0.50000000  0.21512300  1
  Sb  Sb10  1  0.20608800  0.50000000  0.08708200  1
  Sb  Sb11  1  0.79391200  0.50000000  0.91291800  1
  Se  Se12  1  0.96296300  0.50000000  0.78239300  1
  Se  Se13  1  0.39721300  0.50000000  0.97621700  1
  Se  Se14  1  0.03703700  0.50000000  0.21760700  1
  Se  Se15  1  0.17893800  0.50000000  0.86308100  1
  Se  Se16  1  0.60278700  0.50000000  0.02378300  1
  Se  Se17  1  0.82106200  0.50000000  0.13691900  1
  Se  Se18  1  0.46296300  0.00000000  0.78239300  1
  Se  Se19  1  0.89721300  0.00000000  0.97621700  1
  Se  Se20  1  0.53703700  0.00000000  0.21760700  1
  Se  Se21  1  0.67893800  0.00000000  0.86308100  1
  Se  Se22  1  0.10278700  0.00000000  0.02378300  1
  Se  Se23  1  0.32106200  0.00000000  0.13691900  1
  Br  Br24  1  0.10302800  0.00000000  0.53839100  1
  Br  Br25  1  0.89697200  0.00000000  0.46160900  1
  Br  Br26  1  0.71019700  0.50000000  0.35289600  1
  Br  Br27  1  0.28980300  0.50000000  0.64710400  1
  Br  Br28  1  0.60302800  0.50000000  0.53839100  1
  Br  Br29  1  0.39697200  0.50000000  0.46160900  1
  Br  Br30  1  0.21019700  0.00000000  0.35289600  1
  Br  Br31  1  0.78980300  0.00000000  0.64710400  1
