# generated using pymatgen
data_RbLi7(SiO4)2
_symmetry_space_group_name_H-M   'P 1'
_cell_length_a   15.75826600
_cell_length_b   6.40959400
_cell_length_c   7.82926813
_cell_angle_alpha   90.00000000
_cell_angle_beta   90.51732724
_cell_angle_gamma   90.00000000
_symmetry_Int_Tables_number   1
_chemical_formula_structural   RbLi7(SiO4)2
_chemical_formula_sum   'Rb4 Li28 Si8 O32'
_cell_volume   790.75584751
_cell_formula_units_Z   4
loop_
 _symmetry_equiv_pos_site_id
 _symmetry_equiv_pos_as_xyz
  1  'x, y, z'
loop_
 _atom_site_type_symbol
 _atom_site_label
 _atom_site_symmetry_multiplicity
 _atom_site_fract_x
 _atom_site_fract_y
 _atom_site_fract_z
 _atom_site_occupancy
  Rb  Rb0  1  0.75517400  0.00000000  0.53047300  1
  Rb  Rb1  1  0.74482600  0.50000000  0.46952700  1
  Rb  Rb2  1  0.25517400  0.50000000  0.53047300  1
  Rb  Rb3  1  0.24482600  0.00000000  0.46952700  1
  Li  Li4  1  0.56706400  0.75433100  0.63139400  1
  Li  Li5  1  0.93293600  0.25433100  0.36860600  1
  Li  Li6  1  0.56706400  0.24566900  0.63139400  1
  Li  Li7  1  0.56773700  0.50000000  0.28697300  1
  Li  Li8  1  0.68479400  0.24216300  0.12957200  1
  Li  Li9  1  0.93293600  0.74566900  0.36860600  1
  Li  Li10  1  0.93226300  0.00000000  0.71302700  1
  Li  Li11  1  0.00000000  0.50000000  0.00000000  1
  Li  Li12  1  0.68479400  0.75783700  0.12957200  1
  Li  Li13  1  0.85767600  0.50000000  0.13543800  1
  Li  Li14  1  0.81520600  0.74216300  0.87042800  1
  Li  Li15  1  0.81520600  0.25783700  0.87042800  1
  Li  Li16  1  0.64232400  0.00000000  0.86456200  1
  Li  Li17  1  0.00000000  0.00000000  0.00000000  1
  Li  Li18  1  0.06706400  0.25433100  0.63139400  1
  Li  Li19  1  0.43293600  0.75433100  0.36860600  1
  Li  Li20  1  0.06706400  0.74566900  0.63139400  1
  Li  Li21  1  0.06773700  0.00000000  0.28697300  1
  Li  Li22  1  0.18479400  0.74216300  0.12957200  1
  Li  Li23  1  0.43293600  0.24566900  0.36860600  1
  Li  Li24  1  0.43226300  0.50000000  0.71302700  1
  Li  Li25  1  0.50000000  0.00000000  0.00000000  1
  Li  Li26  1  0.18479400  0.25783700  0.12957200  1
  Li  Li27  1  0.35767600  0.00000000  0.13543800  1
  Li  Li28  1  0.31520600  0.24216300  0.87042800  1
  Li  Li29  1  0.31520600  0.75783700  0.87042800  1
  Li  Li30  1  0.14232400  0.50000000  0.86456200  1
  Li  Li31  1  0.50000000  0.50000000  0.00000000  1
  Si  Si32  1  0.57063800  0.00000000  0.29271400  1
  Si  Si33  1  0.92936200  0.50000000  0.70728600  1
  Si  Si34  1  0.64657600  0.50000000  0.85998300  1
  Si  Si35  1  0.85342400  0.00000000  0.14001700  1
  Si  Si36  1  0.07063800  0.50000000  0.29271400  1
  Si  Si37  1  0.42936200  0.00000000  0.70728600  1
  Si  Si38  1  0.14657600  0.00000000  0.85998300  1
  Si  Si39  1  0.35342400  0.50000000  0.14001700  1
  O  O40  1  0.62778200  0.50000000  0.06830400  1
  O  O41  1  0.90180300  0.71689600  0.60629300  1
  O  O42  1  0.55215200  0.50000000  0.76353200  1
  O  O43  1  0.53252600  0.00000000  0.74985100  1
  O  O44  1  0.80356750  0.21722850  0.19378800  1
  O  O45  1  0.88404400  0.50000000  0.89789400  1
  O  O46  1  0.94784800  0.00000000  0.23646800  1
  O  O47  1  0.87221800  0.00000000  0.93169600  1
  O  O48  1  0.69643250  0.71722850  0.80621200  1
  O  O49  1  0.59819700  0.21689600  0.39370700  1
  O  O50  1  0.61595600  0.00000000  0.10210600  1
  O  O51  1  0.59819700  0.78310400  0.39370700  1
  O  O52  1  0.90180300  0.28310400  0.60629300  1
  O  O53  1  0.69643250  0.28277150  0.80621200  1
  O  O54  1  0.80356750  0.78277150  0.19378800  1
  O  O55  1  0.96747400  0.50000000  0.25014900  1
  O  O56  1  0.12778200  0.00000000  0.06830400  1
  O  O57  1  0.40180300  0.21689600  0.60629300  1
  O  O58  1  0.05215200  0.00000000  0.76353200  1
  O  O59  1  0.03252600  0.50000000  0.74985100  1
  O  O60  1  0.30356750  0.71722850  0.19378800  1
  O  O61  1  0.38404400  0.00000000  0.89789400  1
  O  O62  1  0.44784800  0.50000000  0.23646800  1
  O  O63  1  0.37221800  0.50000000  0.93169600  1
  O  O64  1  0.19643250  0.21722850  0.80621200  1
  O  O65  1  0.09819700  0.71689600  0.39370700  1
  O  O66  1  0.11595600  0.50000000  0.10210600  1
  O  O67  1  0.09819700  0.28310400  0.39370700  1
  O  O68  1  0.40180300  0.78310400  0.60629300  1
  O  O69  1  0.19643250  0.78277150  0.80621200  1
  O  O70  1  0.30356750  0.28277150  0.19378800  1
  O  O71  1  0.46747400  0.00000000  0.25014900  1
