# generated using pymatgen
data_Na2TeSe3
_symmetry_space_group_name_H-M   'P 1'
_cell_length_a   22.00847600
_cell_length_b   6.06333800
_cell_length_c   12.17095102
_cell_angle_alpha   90.00000000
_cell_angle_beta   121.14623759
_cell_angle_gamma   90.00000000
_symmetry_Int_Tables_number   1
_chemical_formula_structural   Na2TeSe3
_chemical_formula_sum   'Na16 Te8 Se24'
_cell_volume   1390.02912730
_cell_formula_units_Z   8
loop_
 _symmetry_equiv_pos_site_id
 _symmetry_equiv_pos_as_xyz
  1  'x, y, z'
loop_
 _atom_site_type_symbol
 _atom_site_label
 _atom_site_symmetry_multiplicity
 _atom_site_fract_x
 _atom_site_fract_y
 _atom_site_fract_z
 _atom_site_occupancy
  Na  Na0  1  0.75185200  0.98871400  0.12415000  1
  Na  Na1  1  0.92810950  0.53478350  0.80929300  1
  Na  Na2  1  0.25185200  0.51128600  0.62415000  1
  Na  Na3  1  0.74814800  0.48871400  0.37585000  1
  Na  Na4  1  0.07189050  0.53478350  0.69070700  1
  Na  Na5  1  0.24814800  0.01128600  0.87585000  1
  Na  Na6  1  0.92810950  0.46521650  0.30929300  1
  Na  Na7  1  0.07189050  0.46521650  0.19070700  1
  Na  Na8  1  0.25185200  0.48871400  0.12415000  1
  Na  Na9  1  0.42810950  0.03478350  0.80929300  1
  Na  Na10  1  0.75185200  0.01128600  0.62415000  1
  Na  Na11  1  0.24814800  0.98871400  0.37585000  1
  Na  Na12  1  0.57189050  0.03478350  0.69070700  1
  Na  Na13  1  0.74814800  0.51128600  0.87585000  1
  Na  Na14  1  0.42810950  0.96521650  0.30929300  1
  Na  Na15  1  0.57189050  0.96521650  0.19070700  1
  Te  Te16  1  0.39333250  0.55057450  0.99234800  1
  Te  Te17  1  0.60666750  0.44942550  0.00765200  1
  Te  Te18  1  0.10666750  0.05057450  0.50765200  1
  Te  Te19  1  0.89333250  0.94942550  0.49234800  1
  Te  Te20  1  0.89333250  0.05057450  0.99234800  1
  Te  Te21  1  0.10666750  0.94942550  0.00765200  1
  Te  Te22  1  0.60666750  0.55057450  0.50765200  1
  Te  Te23  1  0.39333250  0.44942550  0.49234800  1
  Se  Se24  1  0.75985400  0.99094700  0.38328900  1
  Se  Se25  1  0.91037450  0.46323650  0.04262700  1
  Se  Se26  1  0.24014600  0.00905300  0.61671100  1
  Se  Se27  1  0.08962550  0.53676350  0.95737300  1
  Se  Se28  1  0.08557100  0.96722700  0.19398700  1
  Se  Se29  1  0.25985400  0.50905300  0.88328900  1
  Se  Se30  1  0.91037450  0.53676350  0.54262700  1
  Se  Se31  1  0.08962550  0.46323650  0.45737300  1
  Se  Se32  1  0.08557100  0.03277300  0.69398700  1
  Se  Se33  1  0.74014600  0.49094700  0.11671100  1
  Se  Se34  1  0.91442900  0.03277300  0.80601300  1
  Se  Se35  1  0.91442900  0.96722700  0.30601300  1
  Se  Se36  1  0.25985400  0.49094700  0.38328900  1
  Se  Se37  1  0.41037450  0.96323650  0.04262700  1
  Se  Se38  1  0.74014600  0.50905300  0.61671100  1
  Se  Se39  1  0.58962550  0.03676350  0.95737300  1
  Se  Se40  1  0.58557100  0.46722700  0.19398700  1
  Se  Se41  1  0.75985400  0.00905300  0.88328900  1
  Se  Se42  1  0.41037450  0.03676350  0.54262700  1
  Se  Se43  1  0.58962550  0.96323650  0.45737300  1
  Se  Se44  1  0.58557100  0.53277300  0.69398700  1
  Se  Se45  1  0.24014600  0.99094700  0.11671100  1
  Se  Se46  1  0.41442900  0.53277300  0.80601300  1
  Se  Se47  1  0.41442900  0.46722700  0.30601300  1
