# generated using pymatgen
data_KCuPO4
_symmetry_space_group_name_H-M   'P 1'
_cell_length_a   5.08520100
_cell_length_b   9.69380800
_cell_length_c   8.23467486
_cell_angle_alpha   90.00000000
_cell_angle_beta   93.24997441
_cell_angle_gamma   90.00000000
_symmetry_Int_Tables_number   1
_chemical_formula_structural   KCuPO4
_chemical_formula_sum   'K4 Cu4 P4 O16'
_cell_volume   405.27512984
_cell_formula_units_Z   4
loop_
 _symmetry_equiv_pos_site_id
 _symmetry_equiv_pos_as_xyz
  1  'x, y, z'
loop_
 _atom_site_type_symbol
 _atom_site_label
 _atom_site_symmetry_multiplicity
 _atom_site_fract_x
 _atom_site_fract_y
 _atom_site_fract_z
 _atom_site_occupancy
  K  K0  1  0.77249600  0.77026700  0.74140700  1
  K  K1  1  0.22750400  0.27026700  0.25859300  1
  K  K2  1  0.79958400  0.61307900  0.22221400  1
  K  K3  1  0.20041600  0.11307900  0.77778600  1
  Cu  Cu4  1  0.23181500  0.91048900  0.42581500  1
  Cu  Cu5  1  0.76818500  0.41048900  0.57418500  1
  Cu  Cu6  1  0.63896600  0.00535600  0.09459000  1
  Cu  Cu7  1  0.36103400  0.50535600  0.90541000  1
  P  P8  1  0.25925500  0.59218600  0.54011600  1
  P  P9  1  0.74074500  0.09218600  0.45988400  1
  P  P10  1  0.26878000  0.81058300  0.07051400  1
  P  P11  1  0.73122000  0.31058300  0.92948600  1
  O  O12  1  0.55866400  0.57434500  0.51038600  1
  O  O13  1  0.44133600  0.07434500  0.48961400  1
  O  O14  1  0.22223500  0.61558800  0.72465200  1
  O  O15  1  0.77776500  0.11558800  0.27534800  1
  O  O16  1  0.14517100  0.71966800  0.44869600  1
  O  O17  1  0.85482900  0.21966800  0.55130400  1
  O  O18  1  0.89956400  0.96589600  0.52826500  1
  O  O19  1  0.10043600  0.46589600  0.47173500  1
  O  O20  1  0.31206200  0.65287000  0.07274300  1
  O  O21  1  0.68793800  0.15287000  0.92725700  1
  O  O22  1  0.97702900  0.84682200  0.06345900  1
  O  O23  1  0.02297100  0.34682200  0.93654100  1
  O  O24  1  0.42466700  0.87758100  0.22843600  1
  O  O25  1  0.57533300  0.37758100  0.77156400  1
  O  O26  1  0.42290700  0.88680900  0.93764600  1
  O  O27  1  0.57709300  0.38680900  0.06235400  1
