# generated using pymatgen
data_ZnS
_symmetry_space_group_name_H-M   'P 1'
_cell_length_a   3.85179967
_cell_length_b   3.85179967
_cell_length_c   47.28162963
_cell_angle_alpha   90.00000000
_cell_angle_beta   90.00000000
_cell_angle_gamma   120.00000000
_symmetry_Int_Tables_number   1
_chemical_formula_structural   ZnS
_chemical_formula_sum   'Zn15 S15'
_cell_volume   607.50583084
_cell_formula_units_Z   15
loop_
 _symmetry_equiv_pos_site_id
 _symmetry_equiv_pos_as_xyz
  1  'x, y, z'
loop_
 _atom_site_type_symbol
 _atom_site_label
 _atom_site_symmetry_multiplicity
 _atom_site_fract_x
 _atom_site_fract_y
 _atom_site_fract_z
 _atom_site_occupancy
  Zn  Zn0  1  0.33333333  0.66666667  0.26666967  1
  Zn  Zn1  1  0.66666667  0.33333333  0.20000133  1
  Zn  Zn2  1  0.33333333  0.66666667  0.13331967  1
  Zn  Zn3  1  0.00000000  0.00000000  0.00000600  1
  Zn  Zn4  1  0.66666667  0.33333333  0.06667333  1
  Zn  Zn5  1  0.00000000  0.00000000  0.60000300  1
  Zn  Zn6  1  0.33333333  0.66666667  0.53333467  1
  Zn  Zn7  1  0.00000000  0.00000000  0.46665300  1
  Zn  Zn8  1  0.66666667  0.33333333  0.33333933  1
  Zn  Zn9  1  0.33333333  0.66666667  0.40000667  1
  Zn  Zn10  1  0.66666667  0.33333333  0.93333633  1
  Zn  Zn11  1  0.00000000  0.00000000  0.86666800  1
  Zn  Zn12  1  0.66666667  0.33333333  0.79998633  1
  Zn  Zn13  1  0.33333333  0.66666667  0.66667267  1
  Zn  Zn14  1  0.00000000  0.00000000  0.73334000  1
  S  S15  1  0.00000000  0.00000000  0.05003700  1
  S  S16  1  0.66666667  0.33333333  0.11663333  1
  S  S17  1  0.33333333  0.66666667  0.31666867  1
  S  S18  1  0.33333333  0.66666667  0.18333167  1
  S  S19  1  0.66666667  0.33333333  0.24999933  1
  S  S20  1  0.66666667  0.33333333  0.38337033  1
  S  S21  1  0.33333333  0.66666667  0.44996667  1
  S  S22  1  0.00000000  0.00000000  0.65000200  1
  S  S23  1  0.00000000  0.00000000  0.51666500  1
  S  S24  1  0.33333333  0.66666667  0.58333267  1
  S  S25  1  0.33333333  0.66666667  0.71670367  1
  S  S26  1  0.00000000  0.00000000  0.78330000  1
  S  S27  1  0.66666667  0.33333333  0.98333533  1
  S  S28  1  0.66666667  0.33333333  0.84999833  1
  S  S29  1  0.00000000  0.00000000  0.91666600  1
