# generated using pymatgen
data_CuSb2BrO3
_symmetry_space_group_name_H-M   'P 1'
_cell_length_a   8.02414400
_cell_length_b   13.94656800
_cell_length_c   19.34685500
_cell_angle_alpha   90.00000000
_cell_angle_beta   90.00000000
_cell_angle_gamma   90.00000000
_symmetry_Int_Tables_number   1
_chemical_formula_structural   CuSb2BrO3
_chemical_formula_sum   'Cu16 Sb32 Br16 O48'
_cell_volume   2165.09241864
_cell_formula_units_Z   16
loop_
 _symmetry_equiv_pos_site_id
 _symmetry_equiv_pos_as_xyz
  1  'x, y, z'
loop_
 _atom_site_type_symbol
 _atom_site_label
 _atom_site_symmetry_multiplicity
 _atom_site_fract_x
 _atom_site_fract_y
 _atom_site_fract_z
 _atom_site_occupancy
  Cu  Cu0  1  0.22940250  0.00328250  0.71707900  1
  Cu  Cu1  1  0.77059750  0.00328250  0.71707900  1
  Cu  Cu2  1  0.72940250  0.49671750  0.21707900  1
  Cu  Cu3  1  0.50000000  0.24413100  0.78488100  1
  Cu  Cu4  1  0.00000000  0.24434200  0.70986500  1
  Cu  Cu5  1  0.50000000  0.25565800  0.20986500  1
  Cu  Cu6  1  0.27059750  0.49671750  0.21707900  1
  Cu  Cu7  1  0.00000000  0.25586900  0.28488100  1
  Cu  Cu8  1  0.72940250  0.50328250  0.71707900  1
  Cu  Cu9  1  0.27059750  0.50328250  0.71707900  1
  Cu  Cu10  1  0.22940250  0.99671750  0.21707900  1
  Cu  Cu11  1  0.00000000  0.74413100  0.78488100  1
  Cu  Cu12  1  0.50000000  0.74434200  0.70986500  1
  Cu  Cu13  1  0.00000000  0.75565800  0.20986500  1
  Cu  Cu14  1  0.77059750  0.99671750  0.21707900  1
  Cu  Cu15  1  0.50000000  0.75586900  0.28488100  1
  Sb  Sb16  1  0.50000000  0.06757100  0.41828200  1
  Sb  Sb17  1  0.23046950  0.15783250  0.57660200  1
  Sb  Sb18  1  0.26953050  0.34216750  0.07660200  1
  Sb  Sb19  1  0.50000000  0.42003000  0.92172900  1
  Sb  Sb20  1  0.76953050  0.15783250  0.57660200  1
  Sb  Sb21  1  0.50000000  0.08231600  0.07429100  1
  Sb  Sb22  1  0.72910800  0.15720100  0.91885600  1
  Sb  Sb23  1  0.00000000  0.41768400  0.57429100  1
  Sb  Sb24  1  0.00000000  0.43242900  0.91828200  1
  Sb  Sb25  1  0.00000000  0.07997000  0.42172900  1
  Sb  Sb26  1  0.73046950  0.34216750  0.07660200  1
  Sb  Sb27  1  0.50000000  0.42909000  0.57818000  1
  Sb  Sb28  1  0.00000000  0.07091000  0.07818000  1
  Sb  Sb29  1  0.22910800  0.34279900  0.41885600  1
  Sb  Sb30  1  0.27089200  0.15720100  0.91885600  1
  Sb  Sb31  1  0.77089200  0.34279900  0.41885600  1
  Sb  Sb32  1  0.00000000  0.56757100  0.41828200  1
  Sb  Sb33  1  0.73046950  0.65783250  0.57660200  1
  Sb  Sb34  1  0.76953050  0.84216750  0.07660200  1
  Sb  Sb35  1  0.00000000  0.92003000  0.92172900  1
  Sb  Sb36  1  0.26953050  0.65783250  0.57660200  1
  Sb  Sb37  1  0.00000000  0.58231600  0.07429100  1
  Sb  Sb38  1  0.22910800  0.65720100  0.91885600  1
  Sb  Sb39  1  0.50000000  0.91768400  0.57429100  1
  Sb  Sb40  1  0.50000000  0.93242900  0.91828200  1
  Sb  Sb41  1  0.50000000  0.57997000  0.42172900  1
  Sb  Sb42  1  0.23046950  0.84216750  0.07660200  1
  Sb  Sb43  1  0.00000000  0.92909000  0.57818000  1
  Sb  Sb44  1  0.50000000  0.57091000  0.07818000  1
  Sb  Sb45  1  0.72910800  0.84279900  0.41885600  1
  Sb  Sb46  1  0.77089200  0.65720100  0.91885600  1
  Sb  Sb47  1  0.27089200  0.84279900  0.41885600  1
  Br  Br48  1  0.50000000  0.41152300  0.27252400  1
  Br  Br49  1  0.00000000  0.41191600  0.22154200  1
  Br  Br50  1  0.25040750  0.33396550  0.74784700  1
  Br  Br51  1  0.24959250  0.16603450  0.24784700  1
  Br  Br52  1  0.74959250  0.33396550  0.74784700  1
  Br  Br53  1  0.75040750  0.16603450  0.24784700  1
  Br  Br54  1  0.00000000  0.08847700  0.77252400  1
  Br  Br55  1  0.50000000  0.08808400  0.72154200  1
  Br  Br56  1  0.00000000  0.91152300  0.27252400  1
  Br  Br57  1  0.50000000  0.91191600  0.22154200  1
  Br  Br58  1  0.75040750  0.83396550  0.74784700  1
  Br  Br59  1  0.74959250  0.66603450  0.24784700  1
  Br  Br60  1  0.24959250  0.83396550  0.74784700  1
  Br  Br61  1  0.25040750  0.66603450  0.24784700  1
  Br  Br62  1  0.50000000  0.58847700  0.77252400  1
  Br  Br63  1  0.00000000  0.58808400  0.72154200  1
  O  O64  1  0.50000000  0.45575300  0.47636300  1
  O  O65  1  0.31522850  0.47803650  0.10565300  1
  O  O66  1  0.50000000  0.20543700  0.88961800  1
  O  O67  1  0.31182100  0.14737600  0.02097400  1
  O  O68  1  0.50000000  0.29625200  0.10594600  1
  O  O69  1  0.18817900  0.35262400  0.52097400  1
  O  O70  1  0.68817900  0.14737600  0.02097400  1
  O  O71  1  0.31276500  0.02282100  0.89502200  1
  O  O72  1  0.81332900  0.14457600  0.47605600  1
  O  O73  1  0.18667100  0.14457600  0.47605600  1
  O  O74  1  0.00000000  0.20374800  0.60594600  1
  O  O75  1  0.00000000  0.29456300  0.38961800  1
  O  O76  1  0.81276500  0.47717900  0.39502200  1
  O  O77  1  0.18477150  0.02196350  0.60565300  1
  O  O78  1  0.68723500  0.02282100  0.89502200  1
  O  O79  1  0.18723500  0.47717900  0.39502200  1
  O  O80  1  0.00000000  0.04424700  0.97636300  1
  O  O81  1  0.00000000  0.45643700  0.02164700  1
  O  O82  1  0.68667100  0.35542400  0.97605600  1
  O  O83  1  0.81182100  0.35262400  0.52097400  1
  O  O84  1  0.31332900  0.35542400  0.97605600  1
  O  O85  1  0.50000000  0.04356300  0.52164700  1
  O  O86  1  0.68477150  0.47803650  0.10565300  1
  O  O87  1  0.81522850  0.02196350  0.60565300  1
  O  O88  1  0.00000000  0.95575300  0.47636300  1
  O  O89  1  0.81522850  0.97803650  0.10565300  1
  O  O90  1  0.00000000  0.70543700  0.88961800  1
  O  O91  1  0.81182100  0.64737600  0.02097400  1
  O  O92  1  0.00000000  0.79625200  0.10594600  1
  O  O93  1  0.68817900  0.85262400  0.52097400  1
  O  O94  1  0.18817900  0.64737600  0.02097400  1
  O  O95  1  0.81276500  0.52282100  0.89502200  1
  O  O96  1  0.31332900  0.64457600  0.47605600  1
  O  O97  1  0.68667100  0.64457600  0.47605600  1
  O  O98  1  0.50000000  0.70374800  0.60594600  1
  O  O99  1  0.50000000  0.79456300  0.38961800  1
  O  O100  1  0.31276500  0.97717900  0.39502200  1
  O  O101  1  0.68477150  0.52196350  0.60565300  1
  O  O102  1  0.18723500  0.52282100  0.89502200  1
  O  O103  1  0.68723500  0.97717900  0.39502200  1
  O  O104  1  0.50000000  0.54424700  0.97636300  1
  O  O105  1  0.50000000  0.95643700  0.02164700  1
  O  O106  1  0.18667100  0.85542400  0.97605600  1
  O  O107  1  0.31182100  0.85262400  0.52097400  1
  O  O108  1  0.81332900  0.85542400  0.97605600  1
  O  O109  1  0.00000000  0.54356300  0.52164700  1
  O  O110  1  0.18477150  0.97803650  0.10565300  1
  O  O111  1  0.31522850  0.52196350  0.60565300  1
