# generated using pymatgen
data_Cu2WS4
_symmetry_space_group_name_H-M   'P 1'
_cell_length_a   5.45702000
_cell_length_b   5.45702000
_cell_length_c   10.61596800
_cell_angle_alpha   90.00000000
_cell_angle_beta   90.00000000
_cell_angle_gamma   90.00000000
_symmetry_Int_Tables_number   1
_chemical_formula_structural   Cu2WS4
_chemical_formula_sum   'Cu4 W2 S8'
_cell_volume   316.13362532
_cell_formula_units_Z   2
loop_
 _symmetry_equiv_pos_site_id
 _symmetry_equiv_pos_as_xyz
  1  'x, y, z'
loop_
 _atom_site_type_symbol
 _atom_site_label
 _atom_site_symmetry_multiplicity
 _atom_site_fract_x
 _atom_site_fract_y
 _atom_site_fract_z
 _atom_site_occupancy
  Cu  Cu0  1  0.00000000  0.50000000  0.00000000  1
  Cu  Cu1  1  0.50000000  0.00000000  0.00000000  1
  Cu  Cu2  1  0.50000000  0.00000000  0.50000000  1
  Cu  Cu3  1  0.00000000  0.50000000  0.50000000  1
  W  W4  1  0.00000000  0.00000000  0.00000000  1
  W  W5  1  0.50000000  0.50000000  0.50000000  1
  S  S6  1  0.23725750  0.76274250  0.12258750  1
  S  S7  1  0.76274250  0.23725750  0.12258750  1
  S  S8  1  0.73725750  0.73725750  0.37741250  1
  S  S9  1  0.26274250  0.26274250  0.37741250  1
  S  S10  1  0.73725750  0.26274250  0.62258750  1
  S  S11  1  0.26274250  0.73725750  0.62258750  1
  S  S12  1  0.23725750  0.23725750  0.87741250  1
  S  S13  1  0.76274250  0.76274250  0.87741250  1
