# generated using pymatgen
data_Ga(IO3)3
_symmetry_space_group_name_H-M   'P 1'
_cell_length_a   9.24005590
_cell_length_b   9.24005590
_cell_length_c   5.40635000
_cell_angle_alpha   90.00000000
_cell_angle_beta   90.00000000
_cell_angle_gamma   120.00000000
_symmetry_Int_Tables_number   1
_chemical_formula_structural   Ga(IO3)3
_chemical_formula_sum   'Ga2 I6 O18'
_cell_volume   399.74587131
_cell_formula_units_Z   2
loop_
 _symmetry_equiv_pos_site_id
 _symmetry_equiv_pos_as_xyz
  1  'x, y, z'
loop_
 _atom_site_type_symbol
 _atom_site_label
 _atom_site_symmetry_multiplicity
 _atom_site_fract_x
 _atom_site_fract_y
 _atom_site_fract_z
 _atom_site_occupancy
  Ga  Ga0  1  0.33333333  0.66666667  0.89507100  1
  Ga  Ga1  1  0.66666667  0.33333333  0.39507100  1
  I  I2  1  0.66216300  0.97756100  0.25338200  1
  I  I3  1  0.33783700  0.02243900  0.75338200  1
  I  I4  1  0.68460200  0.66216300  0.75338200  1
  I  I5  1  0.02243900  0.68460200  0.25338200  1
  I  I6  1  0.97756100  0.31539800  0.75338200  1
  I  I7  1  0.31539800  0.33783700  0.25338200  1
  O  O8  1  0.77874200  0.94863500  0.01013200  1
  O  O9  1  0.44917100  0.87421800  0.10423400  1
  O  O10  1  0.42504700  0.55082900  0.10423400  1
  O  O11  1  0.94863500  0.16989300  0.51013200  1
  O  O12  1  0.05136500  0.83010700  0.01013200  1
  O  O13  1  0.83010700  0.77874200  0.51013200  1
  O  O14  1  0.19261200  0.47762000  0.66563800  1
  O  O15  1  0.12578200  0.57495300  0.10423400  1
  O  O16  1  0.28500800  0.80738800  0.66563800  1
  O  O17  1  0.16989300  0.22125800  0.01013200  1
  O  O18  1  0.55082900  0.12578200  0.60423400  1
  O  O19  1  0.57495300  0.44917100  0.60423400  1
  O  O20  1  0.80738800  0.52238000  0.16563800  1
  O  O21  1  0.71499200  0.19261200  0.16563800  1
  O  O22  1  0.87421800  0.42504700  0.60423400  1
  O  O23  1  0.52238000  0.71499200  0.66563800  1
  O  O24  1  0.22125800  0.05136500  0.51013200  1
  O  O25  1  0.47762000  0.28500800  0.16563800  1
