# generated using pymatgen
data_Ag2NClO3
_symmetry_space_group_name_H-M   'P 1'
_cell_length_a   5.15050800
_cell_length_b   6.66386100
_cell_length_c   12.95491700
_cell_angle_alpha   90.00000000
_cell_angle_beta   90.00000000
_cell_angle_gamma   90.00000000
_symmetry_Int_Tables_number   1
_chemical_formula_structural   Ag2NClO3
_chemical_formula_sum   'Ag8 N4 Cl4 O12'
_cell_volume   444.64215122
_cell_formula_units_Z   4
loop_
 _symmetry_equiv_pos_site_id
 _symmetry_equiv_pos_as_xyz
  1  'x, y, z'
loop_
 _atom_site_type_symbol
 _atom_site_label
 _atom_site_symmetry_multiplicity
 _atom_site_fract_x
 _atom_site_fract_y
 _atom_site_fract_z
 _atom_site_occupancy
  Ag  Ag0  1  0.25000000  0.26332800  0.03246800  1
  Ag  Ag1  1  0.75000000  0.73667200  0.96753200  1
  Ag  Ag2  1  0.25000000  0.85373400  0.74816300  1
  Ag  Ag3  1  0.75000000  0.23667200  0.53246800  1
  Ag  Ag4  1  0.75000000  0.64626600  0.24816300  1
  Ag  Ag5  1  0.25000000  0.35373400  0.75183700  1
  Ag  Ag6  1  0.25000000  0.76332800  0.46753200  1
  Ag  Ag7  1  0.75000000  0.14626600  0.25183700  1
  N  N8  1  0.75000000  0.64223500  0.64700200  1
  N  N9  1  0.25000000  0.35776500  0.35299800  1
  N  N10  1  0.75000000  0.14223500  0.85299800  1
  N  N11  1  0.25000000  0.85776500  0.14700200  1
  Cl  Cl12  1  0.75000000  0.89648100  0.40854500  1
  Cl  Cl13  1  0.75000000  0.39648100  0.09145500  1
  Cl  Cl14  1  0.25000000  0.60351900  0.90854500  1
  Cl  Cl15  1  0.25000000  0.10351900  0.59145500  1
  O  O16  1  0.75000000  0.29091200  0.79218700  1
  O  O17  1  0.03680900  0.43404300  0.38365200  1
  O  O18  1  0.46319100  0.93404300  0.11634800  1
  O  O19  1  0.25000000  0.20908800  0.29218700  1
  O  O20  1  0.96319100  0.06595700  0.88365200  1
  O  O21  1  0.53680900  0.56595700  0.61634800  1
  O  O22  1  0.46319100  0.43404300  0.38365200  1
  O  O23  1  0.25000000  0.70908800  0.20781300  1
  O  O24  1  0.96319100  0.56595700  0.61634800  1
  O  O25  1  0.03680900  0.93404300  0.11634800  1
  O  O26  1  0.75000000  0.79091200  0.70781300  1
  O  O27  1  0.53680900  0.06595700  0.88365200  1
