# generated using pymatgen
data_NaZr2NiF11
_symmetry_space_group_name_H-M   'P 1'
_cell_length_a   9.20744800
_cell_length_b   6.78700800
_cell_length_c   7.87009535
_cell_angle_alpha   90.00000000
_cell_angle_beta   116.11653744
_cell_angle_gamma   90.00000000
_symmetry_Int_Tables_number   1
_chemical_formula_structural   NaZr2NiF11
_chemical_formula_sum   'Na2 Zr4 Ni2 F22'
_cell_volume   441.59675263
_cell_formula_units_Z   2
loop_
 _symmetry_equiv_pos_site_id
 _symmetry_equiv_pos_as_xyz
  1  'x, y, z'
loop_
 _atom_site_type_symbol
 _atom_site_label
 _atom_site_symmetry_multiplicity
 _atom_site_fract_x
 _atom_site_fract_y
 _atom_site_fract_z
 _atom_site_occupancy
  Na  Na0  1  0.00000000  0.00000000  0.00000000  1
  Na  Na1  1  0.50000000  0.50000000  0.00000000  1
  Zr  Zr2  1  0.00805300  0.50000000  0.23767900  1
  Zr  Zr3  1  0.99194700  0.50000000  0.76232100  1
  Zr  Zr4  1  0.50805300  0.00000000  0.23767900  1
  Zr  Zr5  1  0.49194700  0.00000000  0.76232100  1
  Ni  Ni6  1  0.00000000  0.00000000  0.50000000  1
  Ni  Ni7  1  0.50000000  0.50000000  0.50000000  1
  F  F8  1  0.01729000  0.79661100  0.31477100  1
  F  F9  1  0.98271000  0.79661100  0.68522900  1
  F  F10  1  0.98271000  0.20338900  0.68522900  1
  F  F11  1  0.01729000  0.20338900  0.31477100  1
  F  F12  1  0.00000000  0.50000000  0.50000000  1
  F  F13  1  0.00000000  0.32783300  0.00000000  1
  F  F14  1  0.00000000  0.67216700  0.00000000  1
  F  F15  1  0.74369300  0.50000000  0.64784100  1
  F  F16  1  0.25630700  0.50000000  0.35215900  1
  F  F17  1  0.76850000  0.50000000  0.11052500  1
  F  F18  1  0.23150000  0.50000000  0.88947500  1
  F  F19  1  0.51729000  0.29661100  0.31477100  1
  F  F20  1  0.48271000  0.29661100  0.68522900  1
  F  F21  1  0.48271000  0.70338900  0.68522900  1
  F  F22  1  0.51729000  0.70338900  0.31477100  1
  F  F23  1  0.50000000  0.00000000  0.50000000  1
  F  F24  1  0.50000000  0.82783300  0.00000000  1
  F  F25  1  0.50000000  0.17216700  0.00000000  1
  F  F26  1  0.24369300  0.00000000  0.64784100  1
  F  F27  1  0.75630700  0.00000000  0.35215900  1
  F  F28  1  0.26850000  0.00000000  0.11052500  1
  F  F29  1  0.73150000  0.00000000  0.88947500  1
