# generated using pymatgen
data_Li3Fe5O8
_symmetry_space_group_name_H-M   'P 1'
_cell_length_a   12.03426600
_cell_length_b   12.17780400
_cell_length_c   8.32208600
_cell_angle_alpha   90.00000000
_cell_angle_beta   90.00000000
_cell_angle_gamma   90.00000000
_symmetry_Int_Tables_number   1
_chemical_formula_structural   Li3Fe5O8
_chemical_formula_sum   'Li24 Fe40 O64'
_cell_volume   1219.60946474
_cell_formula_units_Z   8
loop_
 _symmetry_equiv_pos_site_id
 _symmetry_equiv_pos_as_xyz
  1  'x, y, z'
loop_
 _atom_site_type_symbol
 _atom_site_label
 _atom_site_symmetry_multiplicity
 _atom_site_fract_x
 _atom_site_fract_y
 _atom_site_fract_z
 _atom_site_occupancy
  Li  Li0  1  0.75163850  0.88077550  0.75000000  1
  Li  Li1  1  0.87144500  0.00000000  0.50000000  1
  Li  Li2  1  0.87144500  0.00000000  0.00000000  1
  Li  Li3  1  0.12855500  0.00000000  0.50000000  1
  Li  Li4  1  0.24836150  0.11922450  0.25000000  1
  Li  Li5  1  0.12855500  0.00000000  0.00000000  1
  Li  Li6  1  0.24836150  0.88077550  0.75000000  1
  Li  Li7  1  0.50000000  0.12084300  0.25000000  1
  Li  Li8  1  0.50000000  0.12093300  0.75000000  1
  Li  Li9  1  0.50000000  0.87915700  0.75000000  1
  Li  Li10  1  0.50000000  0.87906700  0.25000000  1
  Li  Li11  1  0.75163850  0.11922450  0.25000000  1
  Li  Li12  1  0.25163850  0.38077550  0.75000000  1
  Li  Li13  1  0.37144500  0.50000000  0.50000000  1
  Li  Li14  1  0.37144500  0.50000000  0.00000000  1
  Li  Li15  1  0.62855500  0.50000000  0.50000000  1
  Li  Li16  1  0.74836150  0.61922450  0.25000000  1
  Li  Li17  1  0.62855500  0.50000000  0.00000000  1
  Li  Li18  1  0.74836150  0.38077550  0.75000000  1
  Li  Li19  1  0.00000000  0.62084300  0.25000000  1
  Li  Li20  1  0.00000000  0.62093300  0.75000000  1
  Li  Li21  1  0.00000000  0.37915700  0.75000000  1
  Li  Li22  1  0.00000000  0.37906700  0.25000000  1
  Li  Li23  1  0.25163850  0.61922450  0.25000000  1
  Fe  Fe24  1  0.50000000  0.62023900  0.75000000  1
  Fe  Fe25  1  0.75066050  0.88109250  0.25000000  1
  Fe  Fe26  1  0.50000000  0.62215200  0.25000000  1
  Fe  Fe27  1  0.62651850  0.75069550  0.50032400  1
  Fe  Fe28  1  0.62651850  0.75069550  0.99967600  1
  Fe  Fe29  1  0.24933950  0.11890750  0.75000000  1
  Fe  Fe30  1  0.37348150  0.24930450  0.49967600  1
  Fe  Fe31  1  0.37348150  0.24930450  0.00032400  1
  Fe  Fe32  1  0.50000000  0.37976100  0.25000000  1
  Fe  Fe33  1  0.50000000  0.37784800  0.75000000  1
  Fe  Fe34  1  0.24933950  0.88109250  0.25000000  1
  Fe  Fe35  1  0.38154000  0.00000000  0.50000000  1
  Fe  Fe36  1  0.62651850  0.24930450  0.49967600  1
  Fe  Fe37  1  0.38154000  0.00000000  0.00000000  1
  Fe  Fe38  1  0.62651850  0.24930450  0.00032400  1
  Fe  Fe39  1  0.37348150  0.75069550  0.50032400  1
  Fe  Fe40  1  0.61846000  0.00000000  0.50000000  1
  Fe  Fe41  1  0.61846000  0.00000000  0.00000000  1
  Fe  Fe42  1  0.75066050  0.11890750  0.75000000  1
  Fe  Fe43  1  0.37348150  0.75069550  0.99967600  1
  Fe  Fe44  1  0.00000000  0.12023900  0.75000000  1
  Fe  Fe45  1  0.25066050  0.38109250  0.25000000  1
  Fe  Fe46  1  0.00000000  0.12215200  0.25000000  1
  Fe  Fe47  1  0.12651850  0.25069550  0.50032400  1
  Fe  Fe48  1  0.12651850  0.25069550  0.99967600  1
  Fe  Fe49  1  0.74933950  0.61890750  0.75000000  1
  Fe  Fe50  1  0.87348150  0.74930450  0.49967600  1
  Fe  Fe51  1  0.87348150  0.74930450  0.00032400  1
  Fe  Fe52  1  0.00000000  0.87976100  0.25000000  1
  Fe  Fe53  1  0.00000000  0.87784800  0.75000000  1
  Fe  Fe54  1  0.74933950  0.38109250  0.25000000  1
  Fe  Fe55  1  0.88154000  0.50000000  0.50000000  1
  Fe  Fe56  1  0.12651850  0.74930450  0.49967600  1
  Fe  Fe57  1  0.88154000  0.50000000  0.00000000  1
  Fe  Fe58  1  0.12651850  0.74930450  0.00032400  1
  Fe  Fe59  1  0.87348150  0.25069550  0.50032400  1
  Fe  Fe60  1  0.11846000  0.50000000  0.50000000  1
  Fe  Fe61  1  0.11846000  0.50000000  0.00000000  1
  Fe  Fe62  1  0.25066050  0.61890750  0.75000000  1
  Fe  Fe63  1  0.87348150  0.25069550  0.99967600  1
  O  O64  1  0.61990300  0.74383200  0.75000000  1
  O  O65  1  0.88104600  0.00655900  0.75000000  1
  O  O66  1  0.88104600  0.99344100  0.25000000  1
  O  O67  1  0.50000000  0.63767600  0.50554500  1
  O  O68  1  0.62600800  0.75122400  0.25000000  1
  O  O69  1  0.50000000  0.63767600  0.99445500  1
  O  O70  1  0.74627600  0.86725700  0.50584400  1
  O  O71  1  0.74627600  0.86725700  0.99415600  1
  O  O72  1  0.37399200  0.24877600  0.75000000  1
  O  O73  1  0.38009700  0.25616800  0.25000000  1
  O  O74  1  0.50000000  0.36232400  0.49445500  1
  O  O75  1  0.25372400  0.13274300  0.49415600  1
  O  O76  1  0.11895400  0.00655900  0.75000000  1
  O  O77  1  0.50000000  0.36232400  0.00554500  1
  O  O78  1  0.25372400  0.13274300  0.00584400  1
  O  O79  1  0.11895400  0.99344100  0.25000000  1
  O  O80  1  0.50000000  0.13001200  0.50041000  1
  O  O81  1  0.37585550  0.00118850  0.25000000  1
  O  O82  1  0.25372400  0.86725700  0.50584400  1
  O  O83  1  0.37585550  0.99881150  0.75000000  1
  O  O84  1  0.50000000  0.13001200  0.99959000  1
  O  O85  1  0.25372400  0.86725700  0.99415600  1
  O  O86  1  0.61990300  0.25616800  0.25000000  1
  O  O87  1  0.62600800  0.24877600  0.75000000  1
  O  O88  1  0.37399200  0.75122400  0.25000000  1
  O  O89  1  0.38009700  0.74383200  0.75000000  1
  O  O90  1  0.50000000  0.86998800  0.49959000  1
  O  O91  1  0.62414450  0.00118850  0.25000000  1
  O  O92  1  0.62414450  0.99881150  0.75000000  1
  O  O93  1  0.50000000  0.86998800  0.00041000  1
  O  O94  1  0.74627600  0.13274300  0.49415600  1
  O  O95  1  0.74627600  0.13274300  0.00584400  1
  O  O96  1  0.11990300  0.24383200  0.75000000  1
  O  O97  1  0.38104600  0.50655900  0.75000000  1
  O  O98  1  0.38104600  0.49344100  0.25000000  1
  O  O99  1  0.00000000  0.13767600  0.50554500  1
  O  O100  1  0.12600800  0.25122400  0.25000000  1
  O  O101  1  0.00000000  0.13767600  0.99445500  1
  O  O102  1  0.24627600  0.36725700  0.50584400  1
  O  O103  1  0.24627600  0.36725700  0.99415600  1
  O  O104  1  0.87399200  0.74877600  0.75000000  1
  O  O105  1  0.88009700  0.75616800  0.25000000  1
  O  O106  1  0.00000000  0.86232400  0.49445500  1
  O  O107  1  0.75372400  0.63274300  0.49415600  1
  O  O108  1  0.61895400  0.50655900  0.75000000  1
  O  O109  1  0.00000000  0.86232400  0.00554500  1
  O  O110  1  0.75372400  0.63274300  0.00584400  1
  O  O111  1  0.61895400  0.49344100  0.25000000  1
  O  O112  1  0.00000000  0.63001200  0.50041000  1
  O  O113  1  0.87585550  0.50118850  0.25000000  1
  O  O114  1  0.75372400  0.36725700  0.50584400  1
  O  O115  1  0.87585550  0.49881150  0.75000000  1
  O  O116  1  0.00000000  0.63001200  0.99959000  1
  O  O117  1  0.75372400  0.36725700  0.99415600  1
  O  O118  1  0.11990300  0.75616800  0.25000000  1
  O  O119  1  0.12600800  0.74877600  0.75000000  1
  O  O120  1  0.87399200  0.25122400  0.25000000  1
  O  O121  1  0.88009700  0.24383200  0.75000000  1
  O  O122  1  0.00000000  0.36998800  0.49959000  1
  O  O123  1  0.12414450  0.50118850  0.25000000  1
  O  O124  1  0.12414450  0.49881150  0.75000000  1
  O  O125  1  0.00000000  0.36998800  0.00041000  1
  O  O126  1  0.24627600  0.63274300  0.49415600  1
  O  O127  1  0.24627600  0.63274300  0.00584400  1
