# generated using pymatgen
data_ThCl4
_symmetry_space_group_name_H-M   'P 1'
_cell_length_a   6.55506400
_cell_length_b   6.55506400
_cell_length_c   12.98520800
_cell_angle_alpha   90.00000000
_cell_angle_beta   90.00000000
_cell_angle_gamma   90.00000000
_symmetry_Int_Tables_number   1
_chemical_formula_structural   ThCl4
_chemical_formula_sum   'Th4 Cl16'
_cell_volume   557.95963714
_cell_formula_units_Z   4
loop_
 _symmetry_equiv_pos_site_id
 _symmetry_equiv_pos_as_xyz
  1  'x, y, z'
loop_
 _atom_site_type_symbol
 _atom_site_label
 _atom_site_symmetry_multiplicity
 _atom_site_fract_x
 _atom_site_fract_y
 _atom_site_fract_z
 _atom_site_occupancy
  Th  Th0  1  0.00000000  0.50000000  0.25000000  1
  Th  Th1  1  0.00000000  0.00000000  0.00000000  1
  Th  Th2  1  0.50000000  0.00000000  0.75000000  1
  Th  Th3  1  0.50000000  0.50000000  0.50000000  1
  Cl  Cl4  1  0.21583100  0.33283300  0.07842500  1
  Cl  Cl5  1  0.16716700  0.71583100  0.42157500  1
  Cl  Cl6  1  0.66716700  0.71583100  0.32842500  1
  Cl  Cl7  1  0.33283300  0.28416900  0.32842500  1
  Cl  Cl8  1  0.83283300  0.28416900  0.42157500  1
  Cl  Cl9  1  0.78416900  0.16716700  0.17157500  1
  Cl  Cl10  1  0.21583100  0.83283300  0.17157500  1
  Cl  Cl11  1  0.78416900  0.66716700  0.07842500  1
  Cl  Cl12  1  0.71583100  0.83283300  0.57842500  1
  Cl  Cl13  1  0.66716700  0.21583100  0.92157500  1
  Cl  Cl14  1  0.16716700  0.21583100  0.82842500  1
  Cl  Cl15  1  0.83283300  0.78416900  0.82842500  1
  Cl  Cl16  1  0.33283300  0.78416900  0.92157500  1
  Cl  Cl17  1  0.28416900  0.66716700  0.67157500  1
  Cl  Cl18  1  0.71583100  0.33283300  0.67157500  1
  Cl  Cl19  1  0.28416900  0.16716700  0.57842500  1
