# generated using pymatgen
data_KBi(PS3)2
_symmetry_space_group_name_H-M   'P 1'
_cell_length_a   6.75892600
_cell_length_b   7.57116300
_cell_length_c   10.05756110
_cell_angle_alpha   90.00000000
_cell_angle_beta   92.21903723
_cell_angle_gamma   90.00000000
_symmetry_Int_Tables_number   1
_chemical_formula_structural   KBi(PS3)2
_chemical_formula_sum   'K2 Bi2 P4 S12'
_cell_volume   514.28892332
_cell_formula_units_Z   2
loop_
 _symmetry_equiv_pos_site_id
 _symmetry_equiv_pos_as_xyz
  1  'x, y, z'
loop_
 _atom_site_type_symbol
 _atom_site_label
 _atom_site_symmetry_multiplicity
 _atom_site_fract_x
 _atom_site_fract_y
 _atom_site_fract_z
 _atom_site_occupancy
  K  K0  1  0.70164600  0.52480500  0.50194400  1
  K  K1  1  0.29835400  0.02480500  0.49805600  1
  Bi  Bi2  1  0.21058900  0.77200500  0.01758100  1
  Bi  Bi3  1  0.78941100  0.27200500  0.98241900  1
  P  P4  1  0.31233300  0.31552900  0.17163300  1
  P  P5  1  0.79608000  0.04078000  0.70229000  1
  P  P6  1  0.68766700  0.81552900  0.82836700  1
  P  P7  1  0.20392000  0.54078000  0.29771000  1
  S  S8  1  0.57223800  0.22809300  0.24998900  1
  S  S9  1  0.17728100  0.46021000  0.48314600  1
  S  S10  1  0.58856600  0.23147100  0.73089600  1
  S  S11  1  0.34469000  0.42986300  0.98603900  1
  S  S12  1  0.95244400  0.62020100  0.19043800  1
  S  S13  1  0.41143400  0.73147100  0.26910400  1
  S  S14  1  0.65531000  0.92986300  0.01396100  1
  S  S15  1  0.04755600  0.12020100  0.80956200  1
  S  S16  1  0.82271900  0.96021000  0.51685400  1
  S  S17  1  0.90875700  0.62815200  0.83005500  1
  S  S18  1  0.09124300  0.12815200  0.16994500  1
  S  S19  1  0.42776200  0.72809300  0.75001100  1
