# generated using pymatgen
data_MgSiO3
_symmetry_space_group_name_H-M   'P 1'
_cell_length_a   16.43948800
_cell_length_b   11.56055800
_cell_length_c   16.39652185
_cell_angle_alpha   90.00000000
_cell_angle_beta   90.02720729
_cell_angle_gamma   90.00000000
_symmetry_Int_Tables_number   1
_chemical_formula_structural   MgSiO3
_chemical_formula_sum   'Mg64 Si64 O192'
_cell_volume   3116.15296124
_cell_formula_units_Z   64
loop_
 _symmetry_equiv_pos_site_id
 _symmetry_equiv_pos_as_xyz
  1  'x, y, z'
loop_
 _atom_site_type_symbol
 _atom_site_label
 _atom_site_symmetry_multiplicity
 _atom_site_fract_x
 _atom_site_fract_y
 _atom_site_fract_z
 _atom_site_occupancy
  Mg  Mg0  1  0.37458800  0.62617700  0.12291000  1
  Mg  Mg1  1  0.62383450  0.37387750  0.12375400  1
  Mg  Mg2  1  0.50000000  0.74761200  0.00000000  1
  Mg  Mg3  1  0.62541200  0.62617700  0.87709000  1
  Mg  Mg4  1  0.18308200  0.10739800  0.05573700  1
  Mg  Mg5  1  0.30337100  0.85875500  0.06881000  1
  Mg  Mg6  1  0.43057000  0.62941600  0.30802500  1
  Mg  Mg7  1  0.25113750  0.99667650  0.25062300  1
  Mg  Mg8  1  0.62616150  0.87663550  0.62607900  1
  Mg  Mg9  1  0.50000000  0.25552400  0.50000000  1
  Mg  Mg10  1  0.69662900  0.85875500  0.93119000  1
  Mg  Mg11  1  0.68341450  0.12447550  0.56222900  1
  Mg  Mg12  1  0.80994150  0.87621350  0.56155100  1
  Mg  Mg13  1  0.43317500  0.13600100  0.80873300  1
  Mg  Mg14  1  0.55563250  0.87811050  0.31661400  1
  Mg  Mg15  1  0.74886250  0.99667650  0.74937700  1
  Mg  Mg16  1  0.62520950  0.37309350  0.62197600  1
  Mg  Mg17  1  0.37479050  0.37309350  0.37802400  1
  Mg  Mg18  1  0.37616550  0.37387750  0.87624600  1
  Mg  Mg19  1  0.50000000  0.25216100  0.00000000  1
  Mg  Mg20  1  0.19005850  0.87621350  0.43844900  1
  Mg  Mg21  1  0.81691800  0.10739800  0.94426300  1
  Mg  Mg22  1  0.44480450  0.39218350  0.18605700  1
  Mg  Mg23  1  0.56682500  0.13600100  0.19126700  1
  Mg  Mg24  1  0.55519550  0.39218350  0.81394300  1
  Mg  Mg25  1  0.76026050  0.99673650  0.25109100  1
  Mg  Mg26  1  0.37383850  0.87663550  0.37392100  1
  Mg  Mg27  1  0.50000000  0.75447100  0.50000000  1
  Mg  Mg28  1  0.31658550  0.12447550  0.43777100  1
  Mg  Mg29  1  0.44436750  0.87811050  0.68338600  1
  Mg  Mg30  1  0.56943000  0.62941600  0.69197500  1
  Mg  Mg31  1  0.23973950  0.99673650  0.74890900  1
  Mg  Mg32  1  0.87458800  0.12617700  0.12291000  1
  Mg  Mg33  1  0.12383450  0.87387750  0.12375400  1
  Mg  Mg34  1  0.00000000  0.24761200  0.00000000  1
  Mg  Mg35  1  0.12541200  0.12617700  0.87709000  1
  Mg  Mg36  1  0.68308200  0.60739800  0.05573700  1
  Mg  Mg37  1  0.80337100  0.35875500  0.06881000  1
  Mg  Mg38  1  0.93057000  0.12941600  0.30802500  1
  Mg  Mg39  1  0.75113750  0.49667650  0.25062300  1
  Mg  Mg40  1  0.12616150  0.37663550  0.62607900  1
  Mg  Mg41  1  0.00000000  0.75552400  0.50000000  1
  Mg  Mg42  1  0.19662900  0.35875500  0.93119000  1
  Mg  Mg43  1  0.18341450  0.62447550  0.56222900  1
  Mg  Mg44  1  0.30994150  0.37621350  0.56155100  1
  Mg  Mg45  1  0.93317500  0.63600100  0.80873300  1
  Mg  Mg46  1  0.05563250  0.37811050  0.31661400  1
  Mg  Mg47  1  0.24886250  0.49667650  0.74937700  1
  Mg  Mg48  1  0.12520950  0.87309350  0.62197600  1
  Mg  Mg49  1  0.87479050  0.87309350  0.37802400  1
  Mg  Mg50  1  0.87616550  0.87387750  0.87624600  1
  Mg  Mg51  1  0.00000000  0.75216100  0.00000000  1
  Mg  Mg52  1  0.69005850  0.37621350  0.43844900  1
  Mg  Mg53  1  0.31691800  0.60739800  0.94426300  1
  Mg  Mg54  1  0.94480450  0.89218350  0.18605700  1
  Mg  Mg55  1  0.06682500  0.63600100  0.19126700  1
  Mg  Mg56  1  0.05519550  0.89218350  0.81394300  1
  Mg  Mg57  1  0.26026050  0.49673650  0.25109100  1
  Mg  Mg58  1  0.87383850  0.37663550  0.37392100  1
  Mg  Mg59  1  0.00000000  0.25447100  0.50000000  1
  Mg  Mg60  1  0.81658550  0.62447550  0.43777100  1
  Mg  Mg61  1  0.94436750  0.37811050  0.68338600  1
  Mg  Mg62  1  0.06943000  0.12941600  0.69197500  1
  Mg  Mg63  1  0.73973950  0.49673650  0.74890900  1
  Si  Si64  1  0.56229200  0.37720300  0.31527400  1
  Si  Si65  1  0.74945800  0.24891200  0.25452400  1
  Si  Si66  1  0.56538650  0.62870350  0.19189800  1
  Si  Si67  1  0.55810600  0.87814300  0.81777400  1
  Si  Si68  1  0.62394500  0.87624000  0.12724200  1
  Si  Si69  1  0.37605500  0.87624000  0.87275800  1
  Si  Si70  1  0.25054200  0.24891200  0.74547600  1
  Si  Si71  1  0.24858800  0.24723300  0.24769800  1
  Si  Si72  1  0.31763800  0.11939600  0.94316400  1
  Si  Si73  1  0.56272800  0.12833700  0.68892200  1
  Si  Si74  1  0.44189400  0.87814300  0.18222600  1
  Si  Si75  1  0.62424100  0.12432400  0.37389800  1
  Si  Si76  1  0.37419250  0.12214450  0.12594300  1
  Si  Si77  1  0.80707650  0.86919650  0.06888400  1
  Si  Si78  1  0.43727200  0.12833700  0.31107800  1
  Si  Si79  1  0.50000000  0.00019600  0.00000000  1
  Si  Si80  1  0.75141200  0.24723300  0.75230200  1
  Si  Si81  1  0.81037450  0.12399150  0.43891900  1
  Si  Si82  1  0.43770800  0.37720300  0.68472600  1
  Si  Si83  1  0.37588500  0.62736000  0.62422300  1
  Si  Si84  1  0.62580750  0.12214450  0.87405700  1
  Si  Si85  1  0.31314700  0.87593700  0.56319000  1
  Si  Si86  1  0.68236200  0.11939600  0.05683600  1
  Si  Si87  1  0.43461350  0.62870350  0.80810200  1
  Si  Si88  1  0.50000000  0.50413800  0.50000000  1
  Si  Si89  1  0.50000000  0.49945400  0.00000000  1
  Si  Si90  1  0.19292350  0.86919650  0.93111600  1
  Si  Si91  1  0.37575900  0.12432400  0.62610200  1
  Si  Si92  1  0.62411500  0.62736000  0.37577700  1
  Si  Si93  1  0.18962550  0.12399150  0.56108100  1
  Si  Si94  1  0.50000000  0.00284300  0.50000000  1
  Si  Si95  1  0.68685300  0.87593700  0.43681000  1
  Si  Si96  1  0.06229200  0.87720300  0.31527400  1
  Si  Si97  1  0.24945800  0.74891200  0.25452400  1
  Si  Si98  1  0.06538650  0.12870350  0.19189800  1
  Si  Si99  1  0.05810600  0.37814300  0.81777400  1
  Si  Si100  1  0.12394500  0.37624000  0.12724200  1
  Si  Si101  1  0.87605500  0.37624000  0.87275800  1
  Si  Si102  1  0.75054200  0.74891200  0.74547600  1
  Si  Si103  1  0.74858800  0.74723300  0.24769800  1
  Si  Si104  1  0.81763800  0.61939600  0.94316400  1
  Si  Si105  1  0.06272800  0.62833700  0.68892200  1
  Si  Si106  1  0.94189400  0.37814300  0.18222600  1
  Si  Si107  1  0.12424100  0.62432400  0.37389800  1
  Si  Si108  1  0.87419250  0.62214450  0.12594300  1
  Si  Si109  1  0.30707650  0.36919650  0.06888400  1
  Si  Si110  1  0.93727200  0.62833700  0.31107800  1
  Si  Si111  1  0.00000000  0.50019600  0.00000000  1
  Si  Si112  1  0.25141200  0.74723300  0.75230200  1
  Si  Si113  1  0.31037450  0.62399150  0.43891900  1
  Si  Si114  1  0.93770800  0.87720300  0.68472600  1
  Si  Si115  1  0.87588500  0.12736000  0.62422300  1
  Si  Si116  1  0.12580750  0.62214450  0.87405700  1
  Si  Si117  1  0.81314700  0.37593700  0.56319000  1
  Si  Si118  1  0.18236200  0.61939600  0.05683600  1
  Si  Si119  1  0.93461350  0.12870350  0.80810200  1
  Si  Si120  1  0.00000000  0.00413800  0.50000000  1
  Si  Si121  1  0.00000000  0.99945400  0.00000000  1
  Si  Si122  1  0.69292350  0.36919650  0.93111600  1
  Si  Si123  1  0.87575900  0.62432400  0.62610200  1
  Si  Si124  1  0.12411500  0.12736000  0.37577700  1
  Si  Si125  1  0.68962550  0.62399150  0.56108100  1
  Si  Si126  1  0.00000000  0.50284300  0.50000000  1
  Si  Si127  1  0.18685300  0.37593700  0.43681000  1
  O  O128  1  0.47188750  0.43444350  0.31700100  1
  O  O129  1  0.47350200  0.57693500  0.18739200  1
  O  O130  1  0.82353750  0.02816350  0.36813700  1
  O  O131  1  0.57541500  0.59293900  0.99033600  1
  O  O132  1  0.13048250  0.97898750  0.34098900  1
  O  O133  1  0.18960300  0.92012600  0.02412400  1
  O  O134  1  0.82232900  0.15694200  0.23476900  1
  O  O135  1  0.23427550  0.83897250  0.17822700  1
  O  O136  1  0.13883650  0.03966750  0.16795200  1
  O  O137  1  0.46223100  0.93211600  0.81505200  1
  O  O138  1  0.26156000  0.84180500  0.32899000  1
  O  O139  1  0.57990950  0.73576850  0.12544900  1
  O  O140  1  0.58237950  0.79181050  0.89304100  1
  O  O141  1  0.46493300  0.08240200  0.68638900  1
  O  O142  1  0.56897100  0.90885300  0.03469900  1
  O  O143  1  0.21621350  0.15513450  0.31879200  1
  O  O144  1  0.22650650  0.17541750  0.94123600  1
  O  O145  1  0.41762050  0.79181050  0.10695900  1
  O  O146  1  0.33258200  0.01910800  0.87042900  1
  O  O147  1  0.43943400  0.82309700  0.27395200  1
  O  O148  1  0.31664700  0.06742200  0.03909000  1
  O  O149  1  0.28011400  0.15092000  0.17889100  1
  O  O150  1  0.37163000  0.98027000  0.16720600  1
  O  O151  1  0.57066800  0.09824300  0.46911600  1
  O  O152  1  0.62837000  0.98027000  0.83279400  1
  O  O153  1  0.70956100  0.82295100  0.07006800  1
  O  O154  1  0.36176250  0.03929450  0.32779700  1
  O  O155  1  0.43102900  0.90885300  0.96530100  1
  O  O156  1  0.68456700  0.93881900  0.52567000  1
  O  O157  1  0.32548650  0.15204150  0.72311600  1
  O  O158  1  0.56563700  0.67306800  0.28952100  1
  O  O159  1  0.73844000  0.84180500  0.67101000  1
  O  O160  1  0.63823750  0.03929450  0.67220300  1
  O  O161  1  0.76572450  0.83897250  0.82177300  1
  O  O162  1  0.57426150  0.21597950  0.61169900  1
  O  O163  1  0.68335300  0.06742200  0.96091000  1
  O  O164  1  0.59114550  0.27398650  0.38192300  1
  O  O165  1  0.81994150  0.83485850  0.27303500  1
  O  O166  1  0.39193350  0.20735450  0.91963800  1
  O  O167  1  0.53776900  0.93211600  0.18494800  1
  O  O168  1  0.37447200  0.26371500  0.08508500  1
  O  O169  1  0.46659100  0.09222100  0.06967300  1
  O  O170  1  0.43716400  0.17056400  0.21243000  1
  O  O171  1  0.81039700  0.92012600  0.97587600  1
  O  O172  1  0.57526450  0.41360050  0.51283300  1
  O  O173  1  0.71988600  0.15092000  0.82110900  1
  O  O174  1  0.71174950  0.16415550  0.43435700  1
  O  O175  1  0.40885450  0.27398650  0.61807700  1
  O  O176  1  0.83271550  0.96125550  0.13962000  1
  O  O177  1  0.53506700  0.08240200  0.31361100  1
  O  O178  1  0.53340900  0.09222100  0.93032700  1
  O  O179  1  0.67537100  0.84175000  0.22183700  1
  O  O180  1  0.43532750  0.32032750  0.77570900  1
  O  O181  1  0.81258250  0.08598650  0.53819000  1
  O  O182  1  0.78378650  0.15513450  0.68120800  1
  O  O183  1  0.86951750  0.97898750  0.65901100  1
  O  O184  1  0.22416700  0.81300300  0.55992400  1
  O  O185  1  0.86116350  0.03966750  0.83204800  1
  O  O186  1  0.42473550  0.41360050  0.48716700  1
  O  O187  1  0.65764850  0.97394550  0.36568900  1
  O  O188  1  0.56283600  0.17056400  0.78757000  1
  O  O189  1  0.66741800  0.01910800  0.12957100  1
  O  O190  1  0.48970300  0.40542400  0.92461600  1
  O  O191  1  0.60806650  0.20735450  0.08036200  1
  O  O192  1  0.51029700  0.40542400  0.07538400  1
  O  O193  1  0.18741750  0.08598650  0.46181000  1
  O  O194  1  0.42458500  0.59293900  0.00966400  1
  O  O195  1  0.56467250  0.32032750  0.22429100  1
  O  O196  1  0.32462900  0.84175000  0.77816300  1
  O  O197  1  0.38410900  0.71510500  0.42067400  1
  O  O198  1  0.52811250  0.43444350  0.68299900  1
  O  O199  1  0.62552800  0.26371500  0.91491500  1
  O  O200  1  0.67451350  0.15204150  0.27688400  1
  O  O201  1  0.38268600  0.77591400  0.58870700  1
  O  O202  1  0.46953400  0.60143700  0.56979000  1
  O  O203  1  0.43436300  0.67306800  0.71047900  1
  O  O204  1  0.31543300  0.93881900  0.47433000  1
  O  O205  1  0.42009050  0.73576850  0.87455100  1
  O  O206  1  0.34235150  0.97394550  0.63431100  1
  O  O207  1  0.52649800  0.57693500  0.81260800  1
  O  O208  1  0.53046600  0.60143700  0.43021000  1
  O  O209  1  0.18005850  0.83485850  0.72696500  1
  O  O210  1  0.77349350  0.17541750  0.05876400  1
  O  O211  1  0.16728450  0.96125550  0.86038000  1
  O  O212  1  0.17646250  0.02816350  0.63186300  1
  O  O213  1  0.48340750  0.91262850  0.42514800  1
  O  O214  1  0.29043900  0.82295100  0.92993200  1
  O  O215  1  0.61589100  0.71510500  0.57932600  1
  O  O216  1  0.51659250  0.91262850  0.57485200  1
  O  O217  1  0.42933200  0.09824300  0.53088400  1
  O  O218  1  0.56056600  0.82309700  0.72604800  1
  O  O219  1  0.61731400  0.77591400  0.41129300  1
  O  O220  1  0.17767100  0.15694200  0.76523100  1
  O  O221  1  0.42573850  0.21597950  0.38830100  1
  O  O222  1  0.28825050  0.16415550  0.56564300  1
  O  O223  1  0.77583300  0.81300300  0.44007600  1
  O  O224  1  0.97188750  0.93444350  0.31700100  1
  O  O225  1  0.97350200  0.07693500  0.18739200  1
  O  O226  1  0.32353750  0.52816350  0.36813700  1
  O  O227  1  0.07541500  0.09293900  0.99033600  1
  O  O228  1  0.63048250  0.47898750  0.34098900  1
  O  O229  1  0.68960300  0.42012600  0.02412400  1
  O  O230  1  0.32232900  0.65694200  0.23476900  1
  O  O231  1  0.73427550  0.33897250  0.17822700  1
  O  O232  1  0.63883650  0.53966750  0.16795200  1
  O  O233  1  0.96223100  0.43211600  0.81505200  1
  O  O234  1  0.76156000  0.34180500  0.32899000  1
  O  O235  1  0.07990950  0.23576850  0.12544900  1
  O  O236  1  0.08237950  0.29181050  0.89304100  1
  O  O237  1  0.96493300  0.58240200  0.68638900  1
  O  O238  1  0.06897100  0.40885300  0.03469900  1
  O  O239  1  0.71621350  0.65513450  0.31879200  1
  O  O240  1  0.72650650  0.67541750  0.94123600  1
  O  O241  1  0.91762050  0.29181050  0.10695900  1
  O  O242  1  0.83258200  0.51910800  0.87042900  1
  O  O243  1  0.93943400  0.32309700  0.27395200  1
  O  O244  1  0.81664700  0.56742200  0.03909000  1
  O  O245  1  0.78011400  0.65092000  0.17889100  1
  O  O246  1  0.87163000  0.48027000  0.16720600  1
  O  O247  1  0.07066800  0.59824300  0.46911600  1
  O  O248  1  0.12837000  0.48027000  0.83279400  1
  O  O249  1  0.20956100  0.32295100  0.07006800  1
  O  O250  1  0.86176250  0.53929450  0.32779700  1
  O  O251  1  0.93102900  0.40885300  0.96530100  1
  O  O252  1  0.18456700  0.43881900  0.52567000  1
  O  O253  1  0.82548650  0.65204150  0.72311600  1
  O  O254  1  0.06563700  0.17306800  0.28952100  1
  O  O255  1  0.23844000  0.34180500  0.67101000  1
  O  O256  1  0.13823750  0.53929450  0.67220300  1
  O  O257  1  0.26572450  0.33897250  0.82177300  1
  O  O258  1  0.07426150  0.71597950  0.61169900  1
  O  O259  1  0.18335300  0.56742200  0.96091000  1
  O  O260  1  0.09114550  0.77398650  0.38192300  1
  O  O261  1  0.31994150  0.33485850  0.27303500  1
  O  O262  1  0.89193350  0.70735450  0.91963800  1
  O  O263  1  0.03776900  0.43211600  0.18494800  1
  O  O264  1  0.87447200  0.76371500  0.08508500  1
  O  O265  1  0.96659100  0.59222100  0.06967300  1
  O  O266  1  0.93716400  0.67056400  0.21243000  1
  O  O267  1  0.31039700  0.42012600  0.97587600  1
  O  O268  1  0.07526450  0.91360050  0.51283300  1
  O  O269  1  0.21988600  0.65092000  0.82110900  1
  O  O270  1  0.21174950  0.66415550  0.43435700  1
  O  O271  1  0.90885450  0.77398650  0.61807700  1
  O  O272  1  0.33271550  0.46125550  0.13962000  1
  O  O273  1  0.03506700  0.58240200  0.31361100  1
  O  O274  1  0.03340900  0.59222100  0.93032700  1
  O  O275  1  0.17537100  0.34175000  0.22183700  1
  O  O276  1  0.93532750  0.82032750  0.77570900  1
  O  O277  1  0.31258250  0.58598650  0.53819000  1
  O  O278  1  0.28378650  0.65513450  0.68120800  1
  O  O279  1  0.36951750  0.47898750  0.65901100  1
  O  O280  1  0.72416700  0.31300300  0.55992400  1
  O  O281  1  0.36116350  0.53966750  0.83204800  1
  O  O282  1  0.92473550  0.91360050  0.48716700  1
  O  O283  1  0.15764850  0.47394550  0.36568900  1
  O  O284  1  0.06283600  0.67056400  0.78757000  1
  O  O285  1  0.16741800  0.51910800  0.12957100  1
  O  O286  1  0.98970300  0.90542400  0.92461600  1
  O  O287  1  0.10806650  0.70735450  0.08036200  1
  O  O288  1  0.01029700  0.90542400  0.07538400  1
  O  O289  1  0.68741750  0.58598650  0.46181000  1
  O  O290  1  0.92458500  0.09293900  0.00966400  1
  O  O291  1  0.06467250  0.82032750  0.22429100  1
  O  O292  1  0.82462900  0.34175000  0.77816300  1
  O  O293  1  0.88410900  0.21510500  0.42067400  1
  O  O294  1  0.02811250  0.93444350  0.68299900  1
  O  O295  1  0.12552800  0.76371500  0.91491500  1
  O  O296  1  0.17451350  0.65204150  0.27688400  1
  O  O297  1  0.88268600  0.27591400  0.58870700  1
  O  O298  1  0.96953400  0.10143700  0.56979000  1
  O  O299  1  0.93436300  0.17306800  0.71047900  1
  O  O300  1  0.81543300  0.43881900  0.47433000  1
  O  O301  1  0.92009050  0.23576850  0.87455100  1
  O  O302  1  0.84235150  0.47394550  0.63431100  1
  O  O303  1  0.02649800  0.07693500  0.81260800  1
  O  O304  1  0.03046600  0.10143700  0.43021000  1
  O  O305  1  0.68005850  0.33485850  0.72696500  1
  O  O306  1  0.27349350  0.67541750  0.05876400  1
  O  O307  1  0.66728450  0.46125550  0.86038000  1
  O  O308  1  0.67646250  0.52816350  0.63186300  1
  O  O309  1  0.98340750  0.41262850  0.42514800  1
  O  O310  1  0.79043900  0.32295100  0.92993200  1
  O  O311  1  0.11589100  0.21510500  0.57932600  1
  O  O312  1  0.01659250  0.41262850  0.57485200  1
  O  O313  1  0.92933200  0.59824300  0.53088400  1
  O  O314  1  0.06056600  0.32309700  0.72604800  1
  O  O315  1  0.11731400  0.27591400  0.41129300  1
  O  O316  1  0.67767100  0.65694200  0.76523100  1
  O  O317  1  0.92573850  0.71597950  0.38830100  1
  O  O318  1  0.78825050  0.66415550  0.56564300  1
  O  O319  1  0.27583300  0.31300300  0.44007600  1
