# generated using pymatgen
data_In6Se7
_symmetry_space_group_name_H-M   'P 1'
_cell_length_a   9.61999400
_cell_length_b   4.13432700
_cell_length_c   18.02767185
_cell_angle_alpha   90.00000000
_cell_angle_beta   100.91087651
_cell_angle_gamma   90.00000000
_symmetry_Int_Tables_number   1
_chemical_formula_structural   In6Se7
_chemical_formula_sum   'In12 Se14'
_cell_volume   704.03883059
_cell_formula_units_Z   2
loop_
 _symmetry_equiv_pos_site_id
 _symmetry_equiv_pos_as_xyz
  1  'x, y, z'
loop_
 _atom_site_type_symbol
 _atom_site_label
 _atom_site_symmetry_multiplicity
 _atom_site_fract_x
 _atom_site_fract_y
 _atom_site_fract_z
 _atom_site_occupancy
  In  In0  1  0.47364700  0.75666300  0.27200100  1
  In  In1  1  0.32830100  0.75143800  0.46623900  1
  In  In2  1  0.98434100  0.24702300  0.39602900  1
  In  In3  1  0.64733400  0.74528700  0.95304000  1
  In  In4  1  0.93122100  0.24578500  0.87576600  1
  In  In5  1  0.06877900  0.74578500  0.12423400  1
  In  In6  1  0.67169900  0.25143800  0.53376100  1
  In  In7  1  0.01565900  0.74702300  0.60397100  1
  In  In8  1  0.81923600  0.74501300  0.18693000  1
  In  In9  1  0.18076400  0.24501300  0.81307000  1
  In  In10  1  0.35266600  0.24528700  0.04696000  1
  In  In11  1  0.52635300  0.25666300  0.72799900  1
  Se  Se12  1  0.24071400  0.74590700  0.72687200  1
  Se  Se13  1  0.24616300  0.24635800  0.17963000  1
  Se  Se14  1  0.47014100  0.25346600  0.40734800  1
  Se  Se15  1  0.55609600  0.74432100  0.09185700  1
  Se  Se16  1  0.75928600  0.24590700  0.27312800  1
  Se  Se17  1  0.12089600  0.74877700  0.34189500  1
  Se  Se18  1  0.75383700  0.74635800  0.82037000  1
  Se  Se19  1  0.52985900  0.75346600  0.59265200  1
  Se  Se20  1  0.16418200  0.74686700  0.99382800  1
  Se  Se21  1  0.87910400  0.24877700  0.65810500  1
  Se  Se22  1  0.44390400  0.24432100  0.90814300  1
  Se  Se23  1  0.83086200  0.75819500  0.46800700  1
  Se  Se24  1  0.16913800  0.25819500  0.53199300  1
  Se  Se25  1  0.83581800  0.24686700  0.00617200  1
