# generated using pymatgen
data_Ba3Nb2O8
_symmetry_space_group_name_H-M   'P 1'
_cell_length_a   6.17078250
_cell_length_b   6.17078250
_cell_length_c   21.57866183
_cell_angle_alpha   90.00000000
_cell_angle_beta   90.00000000
_cell_angle_gamma   120.00000000
_symmetry_Int_Tables_number   1
_chemical_formula_structural   Ba3Nb2O8
_chemical_formula_sum   'Ba9 Nb6 O24'
_cell_volume   711.59947493
_cell_formula_units_Z   3
loop_
 _symmetry_equiv_pos_site_id
 _symmetry_equiv_pos_as_xyz
  1  'x, y, z'
loop_
 _atom_site_type_symbol
 _atom_site_label
 _atom_site_symmetry_multiplicity
 _atom_site_fract_x
 _atom_site_fract_y
 _atom_site_fract_z
 _atom_site_occupancy
  Ba  Ba0  1  0.00000000  0.00000000  0.00000000  1
  Ba  Ba1  1  0.00000000  0.00000000  0.19918500  1
  Ba  Ba2  1  0.66666667  0.33333333  0.13414833  1
  Ba  Ba3  1  0.66666667  0.33333333  0.33333333  1
  Ba  Ba4  1  0.66666667  0.33333333  0.53251833  1
  Ba  Ba5  1  0.33333333  0.66666667  0.46748167  1
  Ba  Ba6  1  0.33333333  0.66666667  0.66666667  1
  Ba  Ba7  1  0.33333333  0.66666667  0.86585167  1
  Ba  Ba8  1  0.00000000  0.00000000  0.80081500  1
  Nb  Nb9  1  0.33333333  0.66666667  0.26086567  1
  Nb  Nb10  1  0.33333333  0.66666667  0.07246767  1
  Nb  Nb11  1  0.00000000  0.00000000  0.59419900  1
  Nb  Nb12  1  0.00000000  0.00000000  0.40580100  1
  Nb  Nb13  1  0.66666667  0.33333333  0.92753233  1
  Nb  Nb14  1  0.66666667  0.33333333  0.73913433  1
  O  O15  1  0.00050800  0.50025400  0.23221500  1
  O  O16  1  0.49974600  0.50025400  0.23221500  1
  O  O17  1  0.49974600  0.99949200  0.23221500  1
  O  O18  1  0.66615867  0.83307933  0.10111833  1
  O  O19  1  0.16692067  0.83307933  0.10111833  1
  O  O20  1  0.16692067  0.33384133  0.10111833  1
  O  O21  1  0.66666667  0.33333333  0.01384433  1
  O  O22  1  0.00000000  0.00000000  0.31948900  1
  O  O23  1  0.66717467  0.83358733  0.56554833  1
  O  O24  1  0.16641267  0.83358733  0.56554833  1
  O  O25  1  0.16641267  0.33282533  0.56554833  1
  O  O26  1  0.33282533  0.16641267  0.43445167  1
  O  O27  1  0.83358733  0.16641267  0.43445167  1
  O  O28  1  0.83358733  0.66717467  0.43445167  1
  O  O29  1  0.33333333  0.66666667  0.34717767  1
  O  O30  1  0.66666667  0.33333333  0.65282233  1
  O  O31  1  0.33384133  0.16692067  0.89888167  1
  O  O32  1  0.83307933  0.16692067  0.89888167  1
  O  O33  1  0.83307933  0.66615867  0.89888167  1
  O  O34  1  0.99949200  0.49974600  0.76778500  1
  O  O35  1  0.50025400  0.49974600  0.76778500  1
  O  O36  1  0.50025400  0.00050800  0.76778500  1
  O  O37  1  0.00000000  0.00000000  0.68051100  1
  O  O38  1  0.33333333  0.66666667  0.98615567  1
