# generated using pymatgen
data_Cs2MnS2
_symmetry_space_group_name_H-M   'P 1'
_cell_length_a   6.52926200
_cell_length_b   7.45929800
_cell_length_c   13.91639000
_cell_angle_alpha   90.00000000
_cell_angle_beta   90.00000000
_cell_angle_gamma   90.00000000
_symmetry_Int_Tables_number   1
_chemical_formula_structural   Cs2MnS2
_chemical_formula_sum   'Cs8 Mn4 S8'
_cell_volume   677.77983642
_cell_formula_units_Z   4
loop_
 _symmetry_equiv_pos_site_id
 _symmetry_equiv_pos_as_xyz
  1  'x, y, z'
loop_
 _atom_site_type_symbol
 _atom_site_label
 _atom_site_symmetry_multiplicity
 _atom_site_fract_x
 _atom_site_fract_y
 _atom_site_fract_z
 _atom_site_occupancy
  Cs  Cs0  1  0.50000000  0.16061600  0.35129400  1
  Cs  Cs1  1  0.00000000  0.33938400  0.14870600  1
  Cs  Cs2  1  0.00000000  0.83938400  0.35129400  1
  Cs  Cs3  1  0.50000000  0.66061600  0.14870600  1
  Cs  Cs4  1  0.00000000  0.66061600  0.85129400  1
  Cs  Cs5  1  0.50000000  0.83938400  0.64870600  1
  Cs  Cs6  1  0.50000000  0.33938400  0.85129400  1
  Cs  Cs7  1  0.00000000  0.16061600  0.64870600  1
  Mn  Mn8  1  0.25000000  0.00000000  0.00000000  1
  Mn  Mn9  1  0.75000000  0.00000000  0.00000000  1
  Mn  Mn10  1  0.75000000  0.50000000  0.50000000  1
  Mn  Mn11  1  0.25000000  0.50000000  0.50000000  1
  S  S12  1  0.50000000  0.17357600  0.09342200  1
  S  S13  1  0.00000000  0.32642400  0.40657800  1
  S  S14  1  0.00000000  0.82642400  0.09342200  1
  S  S15  1  0.50000000  0.67357600  0.40657800  1
  S  S16  1  0.00000000  0.67357600  0.59342200  1
  S  S17  1  0.50000000  0.82642400  0.90657800  1
  S  S18  1  0.50000000  0.32642400  0.59342200  1
  S  S19  1  0.00000000  0.17357600  0.90657800  1
