# generated using pymatgen
data_Mg3BeAl8O16
_symmetry_space_group_name_H-M   'P 1'
_cell_length_a   5.72392966
_cell_length_b   5.72392966
_cell_length_c   18.56697500
_cell_angle_alpha   90.00000000
_cell_angle_beta   90.00000000
_cell_angle_gamma   120.00000000
_symmetry_Int_Tables_number   1
_chemical_formula_structural   Mg3BeAl8O16
_chemical_formula_sum   'Mg6 Be2 Al16 O32'
_cell_volume   526.81770300
_cell_formula_units_Z   2
loop_
 _symmetry_equiv_pos_site_id
 _symmetry_equiv_pos_as_xyz
  1  'x, y, z'
loop_
 _atom_site_type_symbol
 _atom_site_label
 _atom_site_symmetry_multiplicity
 _atom_site_fract_x
 _atom_site_fract_y
 _atom_site_fract_z
 _atom_site_occupancy
  Mg  Mg0  1  0.33333333  0.66666667  0.14270700  1
  Mg  Mg1  1  0.66666667  0.33333333  0.45509400  1
  Mg  Mg2  1  0.66666667  0.33333333  0.64270700  1
  Mg  Mg3  1  0.00000000  0.00000000  0.39196300  1
  Mg  Mg4  1  0.00000000  0.00000000  0.89196300  1
  Mg  Mg5  1  0.33333333  0.66666667  0.95509400  1
  Be  Be6  1  0.33333333  0.66666667  0.69184300  1
  Be  Be7  1  0.66666667  0.33333333  0.19184300  1
  Al  Al8  1  0.16494600  0.32989200  0.55194100  1
  Al  Al9  1  0.67010800  0.83505400  0.55194100  1
  Al  Al10  1  0.83505400  0.16494600  0.05194100  1
  Al  Al11  1  0.16494600  0.83505400  0.55194100  1
  Al  Al12  1  0.83505400  0.67010800  0.05194100  1
  Al  Al13  1  0.00000000  0.00000000  0.68190000  1
  Al  Al14  1  0.50187800  0.00375600  0.79730900  1
  Al  Al15  1  0.99624400  0.49812200  0.79730900  1
  Al  Al16  1  0.00000000  0.00000000  0.18190000  1
  Al  Al17  1  0.32989200  0.16494600  0.05194100  1
  Al  Al18  1  0.00375600  0.50187800  0.29730900  1
  Al  Al19  1  0.66666667  0.33333333  0.92535900  1
  Al  Al20  1  0.49812200  0.50187800  0.29730900  1
  Al  Al21  1  0.49812200  0.99624400  0.29730900  1
  Al  Al22  1  0.50187800  0.49812200  0.79730900  1
  Al  Al23  1  0.33333333  0.66666667  0.42535900  1
  O  O24  1  0.03564500  0.51782250  0.49237100  1
  O  O25  1  0.48217750  0.51782250  0.49237100  1
  O  O26  1  0.70479400  0.85239700  0.11111300  1
  O  O27  1  0.33333333  0.66666667  0.84815700  1
  O  O28  1  0.51782250  0.03564500  0.99237100  1
  O  O29  1  0.96435500  0.48217750  0.99237100  1
  O  O30  1  0.51782250  0.48217750  0.99237100  1
  O  O31  1  0.66666667  0.33333333  0.34815700  1
  O  O32  1  0.81508400  0.63016800  0.85834600  1
  O  O33  1  0.36983200  0.18491600  0.85834600  1
  O  O34  1  0.17889400  0.35778800  0.73536400  1
  O  O35  1  0.82110600  0.64221200  0.23536400  1
  O  O36  1  0.85239700  0.14760300  0.61111300  1
  O  O37  1  0.85239700  0.70479400  0.61111300  1
  O  O38  1  0.35778800  0.17889400  0.23536400  1
  O  O39  1  0.18491600  0.36983200  0.35834600  1
  O  O40  1  0.66666667  0.33333333  0.10692700  1
  O  O41  1  0.00000000  0.00000000  0.49728700  1
  O  O42  1  0.14760300  0.85239700  0.11111300  1
  O  O43  1  0.48217750  0.96435500  0.49237100  1
  O  O44  1  0.66666667  0.33333333  0.74633300  1
  O  O45  1  0.81508400  0.18491600  0.85834600  1
  O  O46  1  0.82110600  0.17889400  0.23536400  1
  O  O47  1  0.18491600  0.81508400  0.35834600  1
  O  O48  1  0.33333333  0.66666667  0.60692700  1
  O  O49  1  0.14760300  0.29520600  0.11111300  1
  O  O50  1  0.33333333  0.66666667  0.24633300  1
  O  O51  1  0.29520600  0.14760300  0.61111300  1
  O  O52  1  0.00000000  0.00000000  0.99728700  1
  O  O53  1  0.64221200  0.82110600  0.73536400  1
  O  O54  1  0.17889400  0.82110600  0.73536400  1
  O  O55  1  0.63016800  0.81508400  0.35834600  1
