# generated using pymatgen
data_Hg3AsS4Br
_symmetry_space_group_name_H-M   'P 1'
_cell_length_a   7.58720974
_cell_length_b   7.58720974
_cell_length_c   10.06009200
_cell_angle_alpha   90.00000000
_cell_angle_beta   90.00000000
_cell_angle_gamma   120.00000000
_symmetry_Int_Tables_number   1
_chemical_formula_structural   Hg3AsS4Br
_chemical_formula_sum   'Hg6 As2 S8 Br2'
_cell_volume   501.52982359
_cell_formula_units_Z   2
loop_
 _symmetry_equiv_pos_site_id
 _symmetry_equiv_pos_as_xyz
  1  'x, y, z'
loop_
 _atom_site_type_symbol
 _atom_site_label
 _atom_site_symmetry_multiplicity
 _atom_site_fract_x
 _atom_site_fract_y
 _atom_site_fract_z
 _atom_site_occupancy
  Hg  Hg0  1  0.99477800  0.49738900  0.74259100  1
  Hg  Hg1  1  0.49738900  0.50261100  0.24259100  1
  Hg  Hg2  1  0.50261100  0.49738900  0.74259100  1
  Hg  Hg3  1  0.49738900  0.99477800  0.24259100  1
  Hg  Hg4  1  0.00522200  0.50261100  0.24259100  1
  Hg  Hg5  1  0.50261100  0.00522200  0.74259100  1
  As  As6  1  0.00000000  0.00000000  0.23436700  1
  As  As7  1  0.00000000  0.00000000  0.73436700  1
  S  S8  1  0.85074850  0.14925150  0.35476400  1
  S  S9  1  0.33333333  0.66666667  0.11731500  1
  S  S10  1  0.14925150  0.29850300  0.85476400  1
  S  S11  1  0.29850300  0.14925150  0.35476400  1
  S  S12  1  0.14925150  0.85074850  0.85476400  1
  S  S13  1  0.70149700  0.85074850  0.85476400  1
  S  S14  1  0.85074850  0.70149700  0.35476400  1
  S  S15  1  0.66666667  0.33333333  0.61731500  1
  Br  Br16  1  0.33333333  0.66666667  0.53625600  1
  Br  Br17  1  0.66666667  0.33333333  0.03625600  1
