# generated using pymatgen
data_CeF4
_symmetry_space_group_name_H-M   'P 1'
_cell_length_a   12.81032000
_cell_length_b   10.77891200
_cell_length_c   8.38321462
_cell_angle_alpha   90.00000000
_cell_angle_beta   126.11791332
_cell_angle_gamma   90.00000000
_symmetry_Int_Tables_number   1
_chemical_formula_structural   CeF4
_chemical_formula_sum   'Ce12 F48'
_cell_volume   935.08774932
_cell_formula_units_Z   12
loop_
 _symmetry_equiv_pos_site_id
 _symmetry_equiv_pos_as_xyz
  1  'x, y, z'
loop_
 _atom_site_type_symbol
 _atom_site_label
 _atom_site_symmetry_multiplicity
 _atom_site_fract_x
 _atom_site_fract_y
 _atom_site_fract_z
 _atom_site_occupancy
  Ce  Ce0  1  0.79623950  0.42770550  0.67068400  1
  Ce  Ce1  1  0.20376050  0.42770550  0.82931600  1
  Ce  Ce2  1  0.20376050  0.57229450  0.32931600  1
  Ce  Ce3  1  0.79623950  0.57229450  0.17068400  1
  Ce  Ce4  1  0.00000000  0.78791900  0.75000000  1
  Ce  Ce5  1  0.00000000  0.21208100  0.25000000  1
  Ce  Ce6  1  0.29623950  0.92770550  0.67068400  1
  Ce  Ce7  1  0.70376050  0.92770550  0.82931600  1
  Ce  Ce8  1  0.70376050  0.07229450  0.32931600  1
  Ce  Ce9  1  0.29623950  0.07229450  0.17068400  1
  Ce  Ce10  1  0.50000000  0.28791900  0.75000000  1
  Ce  Ce11  1  0.50000000  0.71208100  0.25000000  1
  F  F12  1  0.00000000  0.39627100  0.75000000  1
  F  F13  1  0.00000000  0.60372900  0.25000000  1
  F  F14  1  0.11786400  0.62086600  0.78227000  1
  F  F15  1  0.88213600  0.62086600  0.71773000  1
  F  F16  1  0.88213600  0.37913400  0.21773000  1
  F  F17  1  0.11786400  0.37913400  0.28227000  1
  F  F18  1  0.12372550  0.84721250  0.65242100  1
  F  F19  1  0.87627450  0.84721250  0.84757900  1
  F  F20  1  0.87627450  0.15278750  0.34757900  1
  F  F21  1  0.12372550  0.15278750  0.15242100  1
  F  F22  1  0.25000000  0.75000000  0.50000000  1
  F  F23  1  0.75000000  0.75000000  0.00000000  1
  F  F24  1  0.61944950  0.44608050  0.95535700  1
  F  F25  1  0.38055050  0.44608050  0.54464300  1
  F  F26  1  0.38055050  0.55391950  0.04464300  1
  F  F27  1  0.61944950  0.55391950  0.45535700  1
  F  F28  1  0.89055900  0.29476600  0.92700900  1
  F  F29  1  0.10944100  0.29476600  0.57299100  1
  F  F30  1  0.10944100  0.70523400  0.07299100  1
  F  F31  1  0.89055900  0.70523400  0.42700900  1
  F  F32  1  0.78881850  0.52898750  0.89523800  1
  F  F33  1  0.21118150  0.52898750  0.60476200  1
  F  F34  1  0.21118150  0.47101250  0.10476200  1
  F  F35  1  0.78881850  0.47101250  0.39523800  1
  F  F36  1  0.50000000  0.89627100  0.75000000  1
  F  F37  1  0.50000000  0.10372900  0.25000000  1
  F  F38  1  0.61786400  0.12086600  0.78227000  1
  F  F39  1  0.38213600  0.12086600  0.71773000  1
  F  F40  1  0.38213600  0.87913400  0.21773000  1
  F  F41  1  0.61786400  0.87913400  0.28227000  1
  F  F42  1  0.62372550  0.34721250  0.65242100  1
  F  F43  1  0.37627450  0.34721250  0.84757900  1
  F  F44  1  0.37627450  0.65278750  0.34757900  1
  F  F45  1  0.62372550  0.65278750  0.15242100  1
  F  F46  1  0.75000000  0.25000000  0.50000000  1
  F  F47  1  0.25000000  0.25000000  0.00000000  1
  F  F48  1  0.11944950  0.94608050  0.95535700  1
  F  F49  1  0.88055050  0.94608050  0.54464300  1
  F  F50  1  0.88055050  0.05391950  0.04464300  1
  F  F51  1  0.11944950  0.05391950  0.45535700  1
  F  F52  1  0.39055900  0.79476600  0.92700900  1
  F  F53  1  0.60944100  0.79476600  0.57299100  1
  F  F54  1  0.60944100  0.20523400  0.07299100  1
  F  F55  1  0.39055900  0.20523400  0.42700900  1
  F  F56  1  0.28881850  0.02898750  0.89523800  1
  F  F57  1  0.71118150  0.02898750  0.60476200  1
  F  F58  1  0.71118150  0.97101250  0.10476200  1
  F  F59  1  0.28881850  0.97101250  0.39523800  1
