# generated using pymatgen
data_LaNbO4
_symmetry_space_group_name_H-M   'P 1'
_cell_length_a   5.44788800
_cell_length_b   5.44788800
_cell_length_c   11.73815000
_cell_angle_alpha   90.00000000
_cell_angle_beta   90.00000000
_cell_angle_gamma   90.00000000
_symmetry_Int_Tables_number   1
_chemical_formula_structural   LaNbO4
_chemical_formula_sum   'La4 Nb4 O16'
_cell_volume   348.38223113
_cell_formula_units_Z   4
loop_
 _symmetry_equiv_pos_site_id
 _symmetry_equiv_pos_as_xyz
  1  'x, y, z'
loop_
 _atom_site_type_symbol
 _atom_site_label
 _atom_site_symmetry_multiplicity
 _atom_site_fract_x
 _atom_site_fract_y
 _atom_site_fract_z
 _atom_site_occupancy
  La  La0  1  0.50000000  0.50000000  0.00000000  1
  La  La1  1  0.50000000  0.00000000  0.25000000  1
  La  La2  1  0.00000000  0.00000000  0.50000000  1
  La  La3  1  0.00000000  0.50000000  0.75000000  1
  Nb  Nb4  1  0.00000000  0.00000000  0.00000000  1
  Nb  Nb5  1  0.00000000  0.50000000  0.25000000  1
  Nb  Nb6  1  0.50000000  0.50000000  0.50000000  1
  Nb  Nb7  1  0.50000000  0.00000000  0.75000000  1
  O  O8  1  0.66112400  0.74661500  0.41415700  1
  O  O9  1  0.75338500  0.66112400  0.16415700  1
  O  O10  1  0.24661500  0.33887600  0.16415700  1
  O  O11  1  0.33887600  0.25338500  0.41415700  1
  O  O12  1  0.16112400  0.74661500  0.33584300  1
  O  O13  1  0.75338500  0.16112400  0.08584300  1
  O  O14  1  0.24661500  0.83887600  0.08584300  1
  O  O15  1  0.83887600  0.25338500  0.33584300  1
  O  O16  1  0.16112400  0.24661500  0.91415700  1
  O  O17  1  0.25338500  0.16112400  0.66415700  1
  O  O18  1  0.74661500  0.83887600  0.66415700  1
  O  O19  1  0.83887600  0.75338500  0.91415700  1
  O  O20  1  0.66112400  0.24661500  0.83584300  1
  O  O21  1  0.25338500  0.66112400  0.58584300  1
  O  O22  1  0.74661500  0.33887600  0.58584300  1
  O  O23  1  0.33887600  0.75338500  0.83584300  1
