# generated using pymatgen
data_Pb3SeO5
_symmetry_space_group_name_H-M   'P 1'
_cell_length_a   10.77645400
_cell_length_b   11.11233200
_cell_length_c   5.89842100
_cell_angle_alpha   90.00000000
_cell_angle_beta   90.00000000
_cell_angle_gamma   90.00000000
_symmetry_Int_Tables_number   1
_chemical_formula_structural   Pb3SeO5
_chemical_formula_sum   'Pb12 Se4 O20'
_cell_volume   706.34496665
_cell_formula_units_Z   4
loop_
 _symmetry_equiv_pos_site_id
 _symmetry_equiv_pos_as_xyz
  1  'x, y, z'
loop_
 _atom_site_type_symbol
 _atom_site_label
 _atom_site_symmetry_multiplicity
 _atom_site_fract_x
 _atom_site_fract_y
 _atom_site_fract_z
 _atom_site_occupancy
  Pb  Pb0  1  0.50000000  0.61363300  0.81553100  1
  Pb  Pb1  1  0.50000000  0.38636700  0.31553100  1
  Pb  Pb2  1  0.75177000  0.89251000  0.81225300  1
  Pb  Pb3  1  0.24823000  0.10749000  0.31225300  1
  Pb  Pb4  1  0.24823000  0.89251000  0.81225300  1
  Pb  Pb5  1  0.75177000  0.10749000  0.31225300  1
  Pb  Pb6  1  0.00000000  0.11363300  0.81553100  1
  Pb  Pb7  1  0.00000000  0.88636700  0.31553100  1
  Pb  Pb8  1  0.25177000  0.39251000  0.81225300  1
  Pb  Pb9  1  0.74823000  0.60749000  0.31225300  1
  Pb  Pb10  1  0.74823000  0.39251000  0.81225300  1
  Pb  Pb11  1  0.25177000  0.60749000  0.31225300  1
  Se  Se12  1  0.50000000  0.12899000  0.85842400  1
  Se  Se13  1  0.50000000  0.87101000  0.35842400  1
  Se  Se14  1  0.00000000  0.62899000  0.85842400  1
  Se  Se15  1  0.00000000  0.37101000  0.35842400  1
  O  O16  1  0.86635750  0.00263850  0.04872100  1
  O  O17  1  0.13364250  0.99736150  0.54872100  1
  O  O18  1  0.13364250  0.00263850  0.04872100  1
  O  O19  1  0.86635750  0.99736150  0.54872100  1
  O  O20  1  0.50000000  0.27593700  0.76901300  1
  O  O21  1  0.50000000  0.72406300  0.26901300  1
  O  O22  1  0.37190250  0.06938350  0.71604200  1
  O  O23  1  0.62809750  0.93061650  0.21604200  1
  O  O24  1  0.62809750  0.06938350  0.71604200  1
  O  O25  1  0.37190250  0.93061650  0.21604200  1
  O  O26  1  0.36635750  0.50263850  0.04872100  1
  O  O27  1  0.63364250  0.49736150  0.54872100  1
  O  O28  1  0.63364250  0.50263850  0.04872100  1
  O  O29  1  0.36635750  0.49736150  0.54872100  1
  O  O30  1  0.00000000  0.77593700  0.76901300  1
  O  O31  1  0.00000000  0.22406300  0.26901300  1
  O  O32  1  0.87190250  0.56938350  0.71604200  1
  O  O33  1  0.12809750  0.43061650  0.21604200  1
  O  O34  1  0.12809750  0.56938350  0.71604200  1
  O  O35  1  0.87190250  0.43061650  0.21604200  1
