# generated using pymatgen
data_Tl2CdGeTe4
_symmetry_space_group_name_H-M   'P 1'
_cell_length_a   8.61656000
_cell_length_b   8.61656000
_cell_length_c   7.18628600
_cell_angle_alpha   90.00000000
_cell_angle_beta   90.00000000
_cell_angle_gamma   90.00000000
_symmetry_Int_Tables_number   1
_chemical_formula_structural   Tl2CdGeTe4
_chemical_formula_sum   'Tl4 Cd2 Ge2 Te8'
_cell_volume   533.54656750
_cell_formula_units_Z   2
loop_
 _symmetry_equiv_pos_site_id
 _symmetry_equiv_pos_as_xyz
  1  'x, y, z'
loop_
 _atom_site_type_symbol
 _atom_site_label
 _atom_site_symmetry_multiplicity
 _atom_site_fract_x
 _atom_site_fract_y
 _atom_site_fract_z
 _atom_site_occupancy
  Tl  Tl0  1  0.50000000  0.00000000  0.00000000  1
  Tl  Tl1  1  0.00000000  0.50000000  0.00000000  1
  Tl  Tl2  1  0.00000000  0.50000000  0.50000000  1
  Tl  Tl3  1  0.50000000  0.00000000  0.50000000  1
  Cd  Cd4  1  0.00000000  0.00000000  0.50000000  1
  Cd  Cd5  1  0.50000000  0.50000000  0.00000000  1
  Ge  Ge6  1  0.00000000  0.00000000  0.00000000  1
  Ge  Ge7  1  0.50000000  0.50000000  0.50000000  1
  Te  Te8  1  0.32678800  0.32678800  0.27603300  1
  Te  Te9  1  0.17321200  0.17321200  0.77603300  1
  Te  Te10  1  0.17321200  0.82678800  0.22396700  1
  Te  Te11  1  0.82678800  0.17321200  0.22396700  1
  Te  Te12  1  0.82678800  0.82678800  0.77603300  1
  Te  Te13  1  0.67321200  0.67321200  0.27603300  1
  Te  Te14  1  0.67321200  0.32678800  0.72396700  1
  Te  Te15  1  0.32678800  0.67321200  0.72396700  1
