# generated using pymatgen
data_Ba3NaNd3(Si3O10)2
_symmetry_space_group_name_H-M   'P 1'
_cell_length_a   5.65358000
_cell_length_b   24.45242000
_cell_length_c   15.00677400
_cell_angle_alpha   90.00000000
_cell_angle_beta   90.00000000
_cell_angle_gamma   90.00000000
_symmetry_Int_Tables_number   1
_chemical_formula_structural   Ba3NaNd3(Si3O10)2
_chemical_formula_sum   'Ba12 Na4 Nd12 Si24 O80'
_cell_volume   2074.59215286
_cell_formula_units_Z   4
loop_
 _symmetry_equiv_pos_site_id
 _symmetry_equiv_pos_as_xyz
  1  'x, y, z'
loop_
 _atom_site_type_symbol
 _atom_site_label
 _atom_site_symmetry_multiplicity
 _atom_site_fract_x
 _atom_site_fract_y
 _atom_site_fract_z
 _atom_site_occupancy
  Ba  Ba0  1  0.06887600  0.24327900  0.38672100  1
  Ba  Ba1  1  0.56887600  0.25672100  0.61327900  1
  Ba  Ba2  1  0.56887600  0.25672100  0.88672100  1
  Ba  Ba3  1  0.06924700  0.08318900  0.25000000  1
  Ba  Ba4  1  0.56924700  0.41681100  0.75000000  1
  Ba  Ba5  1  0.06887600  0.24327900  0.11327900  1
  Ba  Ba6  1  0.56887600  0.74327900  0.38672100  1
  Ba  Ba7  1  0.06887600  0.75672100  0.61327900  1
  Ba  Ba8  1  0.06887600  0.75672100  0.88672100  1
  Ba  Ba9  1  0.56924700  0.58318900  0.25000000  1
  Ba  Ba10  1  0.06924700  0.91681100  0.75000000  1
  Ba  Ba11  1  0.56887600  0.74327900  0.11327900  1
  Na  Na12  1  0.14419450  0.38805550  0.25000000  1
  Na  Na13  1  0.64419450  0.11194450  0.75000000  1
  Na  Na14  1  0.64419450  0.88805550  0.25000000  1
  Na  Na15  1  0.14419450  0.61194450  0.75000000  1
  Nd  Nd16  1  0.99795150  0.38907150  0.53120100  1
  Nd  Nd17  1  0.49795150  0.11092850  0.03120100  1
  Nd  Nd18  1  0.99795150  0.38907150  0.96879900  1
  Nd  Nd19  1  0.49795150  0.11092850  0.46879900  1
  Nd  Nd20  1  0.99143000  0.00000000  0.50000000  1
  Nd  Nd21  1  0.99143000  0.00000000  0.00000000  1
  Nd  Nd22  1  0.49795150  0.88907150  0.53120100  1
  Nd  Nd23  1  0.99795150  0.61092850  0.03120100  1
  Nd  Nd24  1  0.49795150  0.88907150  0.96879900  1
  Nd  Nd25  1  0.99795150  0.61092850  0.46879900  1
  Nd  Nd26  1  0.49143000  0.50000000  0.50000000  1
  Nd  Nd27  1  0.49143000  0.50000000  0.00000000  1
  Si  Si28  1  0.03742850  0.15224450  0.94221200  1
  Si  Si29  1  0.53742850  0.34775550  0.44221200  1
  Si  Si30  1  0.55781550  0.00074550  0.35880300  1
  Si  Si31  1  0.59631350  0.31071350  0.25000000  1
  Si  Si32  1  0.03742850  0.15224450  0.55778800  1
  Si  Si33  1  0.09631350  0.18928650  0.75000000  1
  Si  Si34  1  0.05781550  0.49925450  0.64119700  1
  Si  Si35  1  0.55781550  0.00074550  0.14119700  1
  Si  Si36  1  0.53742850  0.34775550  0.05778800  1
  Si  Si37  1  0.53727150  0.18153050  0.25000000  1
  Si  Si38  1  0.05781550  0.49925450  0.85880300  1
  Si  Si39  1  0.03727150  0.31846950  0.75000000  1
  Si  Si40  1  0.53742850  0.65224450  0.94221200  1
  Si  Si41  1  0.03742850  0.84775550  0.44221200  1
  Si  Si42  1  0.05781550  0.50074550  0.35880300  1
  Si  Si43  1  0.09631350  0.81071350  0.25000000  1
  Si  Si44  1  0.53742850  0.65224450  0.55778800  1
  Si  Si45  1  0.59631350  0.68928650  0.75000000  1
  Si  Si46  1  0.55781550  0.99925450  0.64119700  1
  Si  Si47  1  0.05781550  0.50074550  0.14119700  1
  Si  Si48  1  0.03742850  0.84775550  0.05778800  1
  Si  Si49  1  0.03727150  0.68153050  0.25000000  1
  Si  Si50  1  0.55781550  0.99925450  0.85880300  1
  Si  Si51  1  0.53727150  0.81846950  0.75000000  1
  O  O52  1  0.11901900  0.09034300  0.53167700  1
  O  O53  1  0.30378050  0.02686850  0.11033200  1
  O  O54  1  0.46853200  0.34295200  0.33419000  1
  O  O55  1  0.26828400  0.18980000  0.96716300  1
  O  O56  1  0.87948700  0.30974000  0.25000000  1
  O  O57  1  0.61901900  0.40965700  0.46832300  1
  O  O58  1  0.75818500  0.04853400  0.12023600  1
  O  O59  1  0.96554250  0.25053550  0.75000000  1
  O  O60  1  0.14340400  0.44707100  0.08564800  1
  O  O61  1  0.82386500  0.17719500  0.25000000  1
  O  O62  1  0.25818500  0.45146600  0.62023600  1
  O  O63  1  0.76828400  0.31020000  0.03283700  1
  O  O64  1  0.39799900  0.15687300  0.33724700  1
  O  O65  1  0.30445550  0.32582950  0.00411900  1
  O  O66  1  0.96853200  0.15704800  0.83419000  1
  O  O67  1  0.64340400  0.05292900  0.58564800  1
  O  O68  1  0.64340400  0.05292900  0.91435200  1
  O  O69  1  0.80378050  0.47313150  0.88966800  1
  O  O70  1  0.32386500  0.32280500  0.75000000  1
  O  O71  1  0.37948700  0.19026000  0.75000000  1
  O  O72  1  0.75818500  0.04853400  0.37976400  1
  O  O73  1  0.46853200  0.34295200  0.16581000  1
  O  O74  1  0.80378050  0.47313150  0.61033200  1
  O  O75  1  0.89799900  0.34312700  0.83724700  1
  O  O76  1  0.11901900  0.09034300  0.96832300  1
  O  O77  1  0.05298650  0.48485750  0.25000000  1
  O  O78  1  0.26828400  0.18980000  0.53283700  1
  O  O79  1  0.46554250  0.24946450  0.25000000  1
  O  O80  1  0.30445550  0.32582950  0.49588100  1
  O  O81  1  0.39799900  0.15687300  0.16275300  1
  O  O82  1  0.76828400  0.31020000  0.46716300  1
  O  O83  1  0.80445550  0.17417050  0.99588100  1
  O  O84  1  0.30378050  0.02686850  0.38966800  1
  O  O85  1  0.14340400  0.44707100  0.41435200  1
  O  O86  1  0.96853200  0.15704800  0.66581000  1
  O  O87  1  0.25818500  0.45146600  0.87976400  1
  O  O88  1  0.61901900  0.40965700  0.03167700  1
  O  O89  1  0.89799900  0.34312700  0.66275300  1
  O  O90  1  0.55298650  0.01514250  0.75000000  1
  O  O91  1  0.80445550  0.17417050  0.50411900  1
  O  O92  1  0.61901900  0.59034300  0.53167700  1
  O  O93  1  0.80378050  0.52686850  0.11033200  1
  O  O94  1  0.96853200  0.84295200  0.33419000  1
  O  O95  1  0.76828400  0.68980000  0.96716300  1
  O  O96  1  0.37948700  0.80974000  0.25000000  1
  O  O97  1  0.11901900  0.90965700  0.46832300  1
  O  O98  1  0.25818500  0.54853400  0.12023600  1
  O  O99  1  0.46554250  0.75053550  0.75000000  1
  O  O100  1  0.64340400  0.94707100  0.08564800  1
  O  O101  1  0.32386500  0.67719500  0.25000000  1
  O  O102  1  0.75818500  0.95146600  0.62023600  1
  O  O103  1  0.26828400  0.81020000  0.03283700  1
  O  O104  1  0.89799900  0.65687300  0.33724700  1
  O  O105  1  0.80445550  0.82582950  0.00411900  1
  O  O106  1  0.46853200  0.65704800  0.83419000  1
  O  O107  1  0.14340400  0.55292900  0.58564800  1
  O  O108  1  0.14340400  0.55292900  0.91435200  1
  O  O109  1  0.30378050  0.97313150  0.88966800  1
  O  O110  1  0.82386500  0.82280500  0.75000000  1
  O  O111  1  0.87948700  0.69026000  0.75000000  1
  O  O112  1  0.25818500  0.54853400  0.37976400  1
  O  O113  1  0.96853200  0.84295200  0.16581000  1
  O  O114  1  0.30378050  0.97313150  0.61033200  1
  O  O115  1  0.39799900  0.84312700  0.83724700  1
  O  O116  1  0.61901900  0.59034300  0.96832300  1
  O  O117  1  0.55298650  0.98485750  0.25000000  1
  O  O118  1  0.76828400  0.68980000  0.53283700  1
  O  O119  1  0.96554250  0.74946450  0.25000000  1
  O  O120  1  0.80445550  0.82582950  0.49588100  1
  O  O121  1  0.89799900  0.65687300  0.16275300  1
  O  O122  1  0.26828400  0.81020000  0.46716300  1
  O  O123  1  0.30445550  0.67417050  0.99588100  1
  O  O124  1  0.80378050  0.52686850  0.38966800  1
  O  O125  1  0.64340400  0.94707100  0.41435200  1
  O  O126  1  0.46853200  0.65704800  0.66581000  1
  O  O127  1  0.75818500  0.95146600  0.87976400  1
  O  O128  1  0.11901900  0.90965700  0.03167700  1
  O  O129  1  0.39799900  0.84312700  0.66275300  1
  O  O130  1  0.05298650  0.51514250  0.75000000  1
  O  O131  1  0.30445550  0.67417050  0.50411900  1
