# generated using pymatgen
data_K2PdSe10
_symmetry_space_group_name_H-M   'P 1'
_cell_length_a   16.43390600
_cell_length_b   16.43390600
_cell_length_c   12.61112000
_cell_angle_alpha   90.00000000
_cell_angle_beta   90.00000000
_cell_angle_gamma   90.00000000
_symmetry_Int_Tables_number   1
_chemical_formula_structural   K2PdSe10
_chemical_formula_sum   'K16 Pd8 Se80'
_cell_volume   3405.92637157
_cell_formula_units_Z   8
loop_
 _symmetry_equiv_pos_site_id
 _symmetry_equiv_pos_as_xyz
  1  'x, y, z'
loop_
 _atom_site_type_symbol
 _atom_site_label
 _atom_site_symmetry_multiplicity
 _atom_site_fract_x
 _atom_site_fract_y
 _atom_site_fract_z
 _atom_site_occupancy
  K  K0  1  0.60121150  0.90406550  0.00085350  1
  K  K1  1  0.89878850  0.90406550  0.24914650  1
  K  K2  1  0.90406550  0.10121150  0.75085350  1
  K  K3  1  0.10121150  0.09593450  0.24914650  1
  K  K4  1  0.09593450  0.89878850  0.75085350  1
  K  K5  1  0.09593450  0.60121150  0.99914650  1
  K  K6  1  0.39878850  0.09593450  0.00085350  1
  K  K7  1  0.90406550  0.39878850  0.99914650  1
  K  K8  1  0.10121150  0.40406550  0.50085350  1
  K  K9  1  0.39878850  0.40406550  0.74914650  1
  K  K10  1  0.40406550  0.60121150  0.25085350  1
  K  K11  1  0.60121150  0.59593450  0.74914650  1
  K  K12  1  0.59593450  0.39878850  0.25085350  1
  K  K13  1  0.59593450  0.10121150  0.49914650  1
  K  K14  1  0.89878850  0.59593450  0.50085350  1
  K  K15  1  0.40406550  0.89878850  0.49914650  1
  Pd  Pd16  1  0.00000000  0.00000000  0.50000000  1
  Pd  Pd17  1  0.00000000  0.00000000  0.00000000  1
  Pd  Pd18  1  0.50000000  0.00000000  0.75000000  1
  Pd  Pd19  1  0.50000000  0.00000000  0.25000000  1
  Pd  Pd20  1  0.50000000  0.50000000  0.00000000  1
  Pd  Pd21  1  0.50000000  0.50000000  0.50000000  1
  Pd  Pd22  1  0.00000000  0.50000000  0.25000000  1
  Pd  Pd23  1  0.00000000  0.50000000  0.75000000  1
  Se  Se24  1  0.13898100  0.68884700  0.69305000  1
  Se  Se25  1  0.15033150  0.00884250  0.00930850  1
  Se  Se26  1  0.73608050  0.18372450  0.33614750  1
  Se  Se27  1  0.26216500  0.04483300  0.71968400  1
  Se  Se28  1  0.18372450  0.23608050  0.08614750  1
  Se  Se29  1  0.04483300  0.73783500  0.28031600  1
  Se  Se30  1  0.76391950  0.18372450  0.91385250  1
  Se  Se31  1  0.23608050  0.81627550  0.91385250  1
  Se  Se32  1  0.13898100  0.81115300  0.05695000  1
  Se  Se33  1  0.99115750  0.15033150  0.99069150  1
  Se  Se34  1  0.81627550  0.76391950  0.08614750  1
  Se  Se35  1  0.84966850  0.99115750  0.00930850  1
  Se  Se36  1  0.31115300  0.13898100  0.30695000  1
  Se  Se37  1  0.63971900  0.05787800  0.75734200  1
  Se  Se38  1  0.18884700  0.13898100  0.94305000  1
  Se  Se39  1  0.05787800  0.13971900  0.50734200  1
  Se  Se40  1  0.65033150  0.99115750  0.24069150  1
  Se  Se41  1  0.86028100  0.05787800  0.49265800  1
  Se  Se42  1  0.81115300  0.86101900  0.94305000  1
  Se  Se43  1  0.04483300  0.76216500  0.46968400  1
  Se  Se44  1  0.86101900  0.18884700  0.05695000  1
  Se  Se45  1  0.00884250  0.84966850  0.99069150  1
  Se  Se46  1  0.95516700  0.23783500  0.46968400  1
  Se  Se47  1  0.26391950  0.81627550  0.33614750  1
  Se  Se48  1  0.00884250  0.65033150  0.75930850  1
  Se  Se49  1  0.36028100  0.94212200  0.75734200  1
  Se  Se50  1  0.13971900  0.94212200  0.49265800  1
  Se  Se51  1  0.05787800  0.36028100  0.24265800  1
  Se  Se52  1  0.99115750  0.34966850  0.75930850  1
  Se  Se53  1  0.76216500  0.95516700  0.53031600  1
  Se  Se54  1  0.81627550  0.73608050  0.66385250  1
  Se  Se55  1  0.86101900  0.31115300  0.69305000  1
  Se  Se56  1  0.95516700  0.26216500  0.28031600  1
  Se  Se57  1  0.94212200  0.63971900  0.24265800  1
  Se  Se58  1  0.94212200  0.86028100  0.50734200  1
  Se  Se59  1  0.34966850  0.00884250  0.24069150  1
  Se  Se60  1  0.18372450  0.26391950  0.66385250  1
  Se  Se61  1  0.73783500  0.95516700  0.71968400  1
  Se  Se62  1  0.23783500  0.04483300  0.53031600  1
  Se  Se63  1  0.68884700  0.86101900  0.30695000  1
  Se  Se64  1  0.63898100  0.18884700  0.19305000  1
  Se  Se65  1  0.65033150  0.50884250  0.50930850  1
  Se  Se66  1  0.23608050  0.68372450  0.83614750  1
  Se  Se67  1  0.76216500  0.54483300  0.21968400  1
  Se  Se68  1  0.68372450  0.73608050  0.58614750  1
  Se  Se69  1  0.54483300  0.23783500  0.78031600  1
  Se  Se70  1  0.26391950  0.68372450  0.41385250  1
  Se  Se71  1  0.73608050  0.31627550  0.41385250  1
  Se  Se72  1  0.63898100  0.31115300  0.55695000  1
  Se  Se73  1  0.49115750  0.65033150  0.49069150  1
  Se  Se74  1  0.31627550  0.26391950  0.58614750  1
  Se  Se75  1  0.34966850  0.49115750  0.50930850  1
  Se  Se76  1  0.81115300  0.63898100  0.80695000  1
  Se  Se77  1  0.13971900  0.55787800  0.25734200  1
  Se  Se78  1  0.68884700  0.63898100  0.44305000  1
  Se  Se79  1  0.55787800  0.63971900  0.00734200  1
  Se  Se80  1  0.15033150  0.49115750  0.74069150  1
  Se  Se81  1  0.36028100  0.55787800  0.99265800  1
  Se  Se82  1  0.31115300  0.36101900  0.44305000  1
  Se  Se83  1  0.54483300  0.26216500  0.96968400  1
  Se  Se84  1  0.36101900  0.68884700  0.55695000  1
  Se  Se85  1  0.50884250  0.34966850  0.49069150  1
  Se  Se86  1  0.45516700  0.73783500  0.96968400  1
  Se  Se87  1  0.76391950  0.31627550  0.83614750  1
  Se  Se88  1  0.50884250  0.15033150  0.25930850  1
  Se  Se89  1  0.86028100  0.44212200  0.25734200  1
  Se  Se90  1  0.63971900  0.44212200  0.99265800  1
  Se  Se91  1  0.55787800  0.86028100  0.74265800  1
  Se  Se92  1  0.49115750  0.84966850  0.25930850  1
  Se  Se93  1  0.26216500  0.45516700  0.03031600  1
  Se  Se94  1  0.31627550  0.23608050  0.16385250  1
  Se  Se95  1  0.36101900  0.81115300  0.19305000  1
  Se  Se96  1  0.45516700  0.76216500  0.78031600  1
  Se  Se97  1  0.44212200  0.13971900  0.74265800  1
  Se  Se98  1  0.44212200  0.36028100  0.00734200  1
  Se  Se99  1  0.84966850  0.50884250  0.74069150  1
  Se  Se100  1  0.68372450  0.76391950  0.16385250  1
  Se  Se101  1  0.23783500  0.45516700  0.21968400  1
  Se  Se102  1  0.73783500  0.54483300  0.03031600  1
  Se  Se103  1  0.18884700  0.36101900  0.80695000  1
