# generated using pymatgen
data_Na2Cu(PO3)4
_symmetry_space_group_name_H-M   'P 1'
_cell_length_a   9.51307000
_cell_length_b   13.50269200
_cell_length_c   7.91001819
_cell_angle_alpha   90.00000000
_cell_angle_beta   95.17819219
_cell_angle_gamma   90.00000000
_symmetry_Int_Tables_number   1
_chemical_formula_structural   Na2Cu(PO3)4
_chemical_formula_sum   'Na8 Cu4 P16 O48'
_cell_volume   1011.91137152
_cell_formula_units_Z   4
loop_
 _symmetry_equiv_pos_site_id
 _symmetry_equiv_pos_as_xyz
  1  'x, y, z'
loop_
 _atom_site_type_symbol
 _atom_site_label
 _atom_site_symmetry_multiplicity
 _atom_site_fract_x
 _atom_site_fract_y
 _atom_site_fract_z
 _atom_site_occupancy
  Na  Na0  1  0.67296650  0.14349650  0.69403200  1
  Na  Na1  1  0.32703350  0.85650350  0.30596800  1
  Na  Na2  1  0.67296650  0.85650350  0.19403200  1
  Na  Na3  1  0.32703350  0.14349650  0.80596800  1
  Na  Na4  1  0.17296650  0.64349650  0.69403200  1
  Na  Na5  1  0.82703350  0.35650350  0.30596800  1
  Na  Na6  1  0.17296650  0.35650350  0.19403200  1
  Na  Na7  1  0.82703350  0.64349650  0.80596800  1
  Cu  Cu8  1  0.50000000  0.36260000  0.25000000  1
  Cu  Cu9  1  0.50000000  0.63740000  0.75000000  1
  Cu  Cu10  1  0.00000000  0.86260000  0.25000000  1
  Cu  Cu11  1  0.00000000  0.13740000  0.75000000  1
  P  P12  1  0.86181700  0.92594400  0.82349800  1
  P  P13  1  0.13818300  0.92594400  0.67650200  1
  P  P14  1  0.86181700  0.07405600  0.32349800  1
  P  P15  1  0.60456550  0.15570250  0.12472800  1
  P  P16  1  0.60456550  0.84429750  0.62472800  1
  P  P17  1  0.39543450  0.15570250  0.37527200  1
  P  P18  1  0.13818300  0.07405600  0.17650200  1
  P  P19  1  0.39543450  0.84429750  0.87527200  1
  P  P20  1  0.36181700  0.42594400  0.82349800  1
  P  P21  1  0.63818300  0.42594400  0.67650200  1
  P  P22  1  0.36181700  0.57405600  0.32349800  1
  P  P23  1  0.10456550  0.65570250  0.12472800  1
  P  P24  1  0.10456550  0.34429750  0.62472800  1
  P  P25  1  0.89543450  0.65570250  0.37527200  1
  P  P26  1  0.63818300  0.57405600  0.17650200  1
  P  P27  1  0.89543450  0.34429750  0.87527200  1
  O  O28  1  0.12277800  0.96263100  0.16015800  1
  O  O29  1  0.50000000  0.37849300  0.75000000  1
  O  O30  1  0.82676150  0.86710950  0.97322400  1
  O  O31  1  0.50000000  0.10413400  0.25000000  1
  O  O32  1  0.36455650  0.73889150  0.81503300  1
  O  O33  1  0.17323850  0.86710950  0.52677600  1
  O  O34  1  0.12277800  0.03736900  0.66015800  1
  O  O35  1  0.87722200  0.96263100  0.33984200  1
  O  O36  1  0.74463250  0.90966250  0.66345600  1
  O  O37  1  0.63544350  0.73889150  0.68496700  1
  O  O38  1  0.55122450  0.86240750  0.44464000  1
  O  O39  1  0.63544350  0.26110850  0.18496700  1
  O  O40  1  0.44877550  0.86240750  0.05536000  1
  O  O41  1  0.55122450  0.13759250  0.94464000  1
  O  O42  1  0.50000000  0.62150700  0.25000000  1
  O  O43  1  0.74463250  0.09033750  0.16345600  1
  O  O44  1  0.25536750  0.09033750  0.33654400  1
  O  O45  1  0.17323850  0.13289050  0.02677600  1
  O  O46  1  0.36455650  0.26110850  0.31503300  1
  O  O47  1  0.25536750  0.90966250  0.83654400  1
  O  O48  1  0.44877550  0.13759250  0.55536000  1
  O  O49  1  0.87722200  0.03736900  0.83984200  1
  O  O50  1  0.50000000  0.89586600  0.75000000  1
  O  O51  1  0.82676150  0.13289050  0.47322400  1
  O  O52  1  0.62277800  0.46263100  0.16015800  1
  O  O53  1  0.00000000  0.87849300  0.75000000  1
  O  O54  1  0.32676150  0.36710950  0.97322400  1
  O  O55  1  0.00000000  0.60413400  0.25000000  1
  O  O56  1  0.86455650  0.23889150  0.81503300  1
  O  O57  1  0.67323850  0.36710950  0.52677600  1
  O  O58  1  0.62277800  0.53736900  0.66015800  1
  O  O59  1  0.37722200  0.46263100  0.33984200  1
  O  O60  1  0.24463250  0.40966250  0.66345600  1
  O  O61  1  0.13544350  0.23889150  0.68496700  1
  O  O62  1  0.05122450  0.36240750  0.44464000  1
  O  O63  1  0.13544350  0.76110850  0.18496700  1
  O  O64  1  0.94877550  0.36240750  0.05536000  1
  O  O65  1  0.05122450  0.63759250  0.94464000  1
  O  O66  1  0.00000000  0.12150700  0.25000000  1
  O  O67  1  0.24463250  0.59033750  0.16345600  1
  O  O68  1  0.75536750  0.59033750  0.33654400  1
  O  O69  1  0.67323850  0.63289050  0.02677600  1
  O  O70  1  0.86455650  0.76110850  0.31503300  1
  O  O71  1  0.75536750  0.40966250  0.83654400  1
  O  O72  1  0.94877550  0.63759250  0.55536000  1
  O  O73  1  0.37722200  0.53736900  0.83984200  1
  O  O74  1  0.00000000  0.39586600  0.75000000  1
  O  O75  1  0.32676150  0.63289050  0.47322400  1
