# generated using pymatgen
data_SrMgF4
_symmetry_space_group_name_H-M   'P 1'
_cell_length_a   7.78929900
_cell_length_b   16.80398600
_cell_length_c   8.15280129
_cell_angle_alpha   90.00000000
_cell_angle_beta   105.18642384
_cell_angle_gamma   90.00000000
_symmetry_Int_Tables_number   1
_chemical_formula_structural   SrMgF4
_chemical_formula_sum   'Sr12 Mg12 F48'
_cell_volume   1029.86482673
_cell_formula_units_Z   12
loop_
 _symmetry_equiv_pos_site_id
 _symmetry_equiv_pos_as_xyz
  1  'x, y, z'
loop_
 _atom_site_type_symbol
 _atom_site_label
 _atom_site_symmetry_multiplicity
 _atom_site_fract_x
 _atom_site_fract_y
 _atom_site_fract_z
 _atom_site_occupancy
  Sr  Sr0  1  0.83941300  0.91803800  0.83501400  1
  Sr  Sr1  1  0.16058700  0.41803800  0.16498600  1
  Sr  Sr2  1  0.83625700  0.25000000  0.83355500  1
  Sr  Sr3  1  0.16415600  0.08467100  0.66634500  1
  Sr  Sr4  1  0.84385300  0.25000000  0.33631600  1
  Sr  Sr5  1  0.83584400  0.58467100  0.33365500  1
  Sr  Sr6  1  0.16374300  0.75000000  0.16644500  1
  Sr  Sr7  1  0.16415600  0.41532900  0.66634500  1
  Sr  Sr8  1  0.83941300  0.58196200  0.83501400  1
  Sr  Sr9  1  0.83584400  0.91532900  0.33365500  1
  Sr  Sr10  1  0.15614700  0.75000000  0.66368400  1
  Sr  Sr11  1  0.16058700  0.08196200  0.16498600  1
  Mg  Mg12  1  0.67579800  0.75000000  0.04377400  1
  Mg  Mg13  1  0.67900300  0.08276200  0.54475900  1
  Mg  Mg14  1  0.67713700  0.41670500  0.04441600  1
  Mg  Mg15  1  0.32286300  0.91670500  0.95558400  1
  Mg  Mg16  1  0.32833900  0.25000000  0.45716700  1
  Mg  Mg17  1  0.67166100  0.75000000  0.54283300  1
  Mg  Mg18  1  0.32099700  0.58276200  0.45524100  1
  Mg  Mg19  1  0.32286300  0.58329500  0.95558400  1
  Mg  Mg20  1  0.32099700  0.91723800  0.45524100  1
  Mg  Mg21  1  0.67713700  0.08329500  0.04441600  1
  Mg  Mg22  1  0.67900300  0.41723800  0.54475900  1
  Mg  Mg23  1  0.32420200  0.25000000  0.95622600  1
  F  F24  1  0.12749400  0.50008000  0.40898700  1
  F  F25  1  0.29953900  0.58458400  0.69990100  1
  F  F26  1  0.50668300  0.33245600  0.50972200  1
  F  F27  1  0.30830600  0.25000000  0.20228600  1
  F  F28  1  0.12419200  0.66544100  0.40626500  1
  F  F29  1  0.87250600  0.00008000  0.59101300  1
  F  F30  1  0.12749400  0.99992000  0.40898700  1
  F  F31  1  0.87236200  0.16598700  0.09331900  1
  F  F32  1  0.29274300  0.58093400  0.19800700  1
  F  F33  1  0.69169400  0.75000000  0.79771400  1
  F  F34  1  0.49927700  0.83345900  0.00725400  1
  F  F35  1  0.70725700  0.08093400  0.80199300  1
  F  F36  1  0.50072300  0.33345900  0.99274600  1
  F  F37  1  0.87580800  0.33455900  0.59373500  1
  F  F38  1  0.70046100  0.41541600  0.30009900  1
  F  F39  1  0.12851900  0.16759900  0.90947600  1
  F  F40  1  0.87230900  0.49949900  0.09515100  1
  F  F41  1  0.49331700  0.66754400  0.49027800  1
  F  F42  1  0.12763800  0.83401300  0.90668100  1
  F  F43  1  0.12763800  0.66598700  0.90668100  1
  F  F44  1  0.13284100  0.16744700  0.40596900  1
  F  F45  1  0.86715900  0.83255300  0.59403100  1
  F  F46  1  0.70046100  0.08458400  0.30009900  1
  F  F47  1  0.70644700  0.75000000  0.30165100  1
  F  F48  1  0.87148100  0.83240100  0.09052400  1
  F  F49  1  0.50000000  0.00000000  0.50000000  1
  F  F50  1  0.87580800  0.16544100  0.59373500  1
  F  F51  1  0.50072300  0.16654100  0.99274600  1
  F  F52  1  0.86715900  0.66744700  0.59403100  1
  F  F53  1  0.70725700  0.41906600  0.80199300  1
  F  F54  1  0.12851900  0.33240100  0.90947600  1
  F  F55  1  0.13284100  0.33255300  0.40596900  1
  F  F56  1  0.87148100  0.66759900  0.09052400  1
  F  F57  1  0.12769100  0.50050100  0.90484900  1
  F  F58  1  0.87230900  0.00050100  0.09515100  1
  F  F59  1  0.29953900  0.91541600  0.69990100  1
  F  F60  1  0.29274300  0.91906600  0.19800700  1
  F  F61  1  0.12769100  0.99949900  0.90484900  1
  F  F62  1  0.49927700  0.66654100  0.00725400  1
  F  F63  1  0.50000000  0.50000000  0.50000000  1
  F  F64  1  0.50668300  0.16754400  0.50972200  1
  F  F65  1  0.12419200  0.83455900  0.40626500  1
  F  F66  1  0.49331700  0.83245600  0.49027800  1
  F  F67  1  0.87236200  0.33401300  0.09331900  1
  F  F68  1  0.29355300  0.25000000  0.69834900  1
  F  F69  1  0.50000000  0.50000000  0.00000000  1
  F  F70  1  0.87250600  0.49992000  0.59101300  1
  F  F71  1  0.50000000  0.00000000  0.00000000  1
