# generated using pymatgen
data_KAl(SiO3)2
_symmetry_space_group_name_H-M   'P 1'
_cell_length_a   13.16486600
_cell_length_b   13.16486600
_cell_length_c   14.01660800
_cell_angle_alpha   90.00000000
_cell_angle_beta   90.00000000
_cell_angle_gamma   90.00000000
_symmetry_Int_Tables_number   1
_chemical_formula_structural   KAl(SiO3)2
_chemical_formula_sum   'K16 Al16 Si32 O96'
_cell_volume   2429.27014905
_cell_formula_units_Z   16
loop_
 _symmetry_equiv_pos_site_id
 _symmetry_equiv_pos_as_xyz
  1  'x, y, z'
loop_
 _atom_site_type_symbol
 _atom_site_label
 _atom_site_symmetry_multiplicity
 _atom_site_fract_x
 _atom_site_fract_y
 _atom_site_fract_z
 _atom_site_occupancy
  K  K0  1  0.60804800  0.37032800  0.76164700  1
  K  K1  1  0.37032800  0.39195200  0.23835300  1
  K  K2  1  0.62967200  0.10804800  0.01164700  1
  K  K3  1  0.87032800  0.39195200  0.51164700  1
  K  K4  1  0.89195200  0.12967200  0.26164700  1
  K  K5  1  0.10804800  0.37032800  0.98835300  1
  K  K6  1  0.39195200  0.12967200  0.48835300  1
  K  K7  1  0.12967200  0.10804800  0.73835300  1
  K  K8  1  0.10804800  0.87032800  0.26164700  1
  K  K9  1  0.87032800  0.89195200  0.73835300  1
  K  K10  1  0.12967200  0.60804800  0.51164700  1
  K  K11  1  0.37032800  0.89195200  0.01164700  1
  K  K12  1  0.39195200  0.62967200  0.76164700  1
  K  K13  1  0.60804800  0.87032800  0.48835300  1
  K  K14  1  0.89195200  0.62967200  0.98835300  1
  K  K15  1  0.62967200  0.60804800  0.23835300  1
  Al  Al16  1  0.63902700  0.33098600  0.24697700  1
  Al  Al17  1  0.33098600  0.36097300  0.75302300  1
  Al  Al18  1  0.33098600  0.86097300  0.49697700  1
  Al  Al19  1  0.16901400  0.13902700  0.25302300  1
  Al  Al20  1  0.86097300  0.16901400  0.74697700  1
  Al  Al21  1  0.13902700  0.33098600  0.50302300  1
  Al  Al22  1  0.36097300  0.16901400  0.00302300  1
  Al  Al23  1  0.16901400  0.63902700  0.99697700  1
  Al  Al24  1  0.13902700  0.83098600  0.74697700  1
  Al  Al25  1  0.83098600  0.86097300  0.25302300  1
  Al  Al26  1  0.83098600  0.36097300  0.99697700  1
  Al  Al27  1  0.66901400  0.63902700  0.75302300  1
  Al  Al28  1  0.36097300  0.66901400  0.24697700  1
  Al  Al29  1  0.63902700  0.83098600  0.00302300  1
  Al  Al30  1  0.86097300  0.66901400  0.50302300  1
  Al  Al31  1  0.66901400  0.13902700  0.49697700  1
  Si  Si32  1  0.39636700  0.11110300  0.21049400  1
  Si  Si33  1  0.11110300  0.10363300  0.46049400  1
  Si  Si34  1  0.89636700  0.11110300  0.53950600  1
  Si  Si35  1  0.14597350  0.05499050  0.04295050  1
  Si  Si36  1  0.60363300  0.38889700  0.03950600  1
  Si  Si37  1  0.60363300  0.88889700  0.21049400  1
  Si  Si38  1  0.35402650  0.44500950  0.54295050  1
  Si  Si39  1  0.14597350  0.55499050  0.20704950  1
  Si  Si40  1  0.44500950  0.64597350  0.45704950  1
  Si  Si41  1  0.05499050  0.85402650  0.95704950  1
  Si  Si42  1  0.38889700  0.89636700  0.28950600  1
  Si  Si43  1  0.94500950  0.64597350  0.29295050  1
  Si  Si44  1  0.85402650  0.44500950  0.20704950  1
  Si  Si45  1  0.38889700  0.39636700  0.96049400  1
  Si  Si46  1  0.05499050  0.35402650  0.29295050  1
  Si  Si47  1  0.61110300  0.10363300  0.28950600  1
  Si  Si48  1  0.89636700  0.61110300  0.71049400  1
  Si  Si49  1  0.61110300  0.60363300  0.96049400  1
  Si  Si50  1  0.39636700  0.61110300  0.03950600  1
  Si  Si51  1  0.64597350  0.55499050  0.54295050  1
  Si  Si52  1  0.10363300  0.88889700  0.53950600  1
  Si  Si53  1  0.10363300  0.38889700  0.71049400  1
  Si  Si54  1  0.85402650  0.94500950  0.04295050  1
  Si  Si55  1  0.64597350  0.05499050  0.70704950  1
  Si  Si56  1  0.94500950  0.14597350  0.95704950  1
  Si  Si57  1  0.55499050  0.35402650  0.45704950  1
  Si  Si58  1  0.88889700  0.39636700  0.78950600  1
  Si  Si59  1  0.44500950  0.14597350  0.79295050  1
  Si  Si60  1  0.35402650  0.94500950  0.70704950  1
  Si  Si61  1  0.88889700  0.89636700  0.46049400  1
  Si  Si62  1  0.55499050  0.85402650  0.79295050  1
  Si  Si63  1  0.11110300  0.60363300  0.78950600  1
  O  O64  1  0.14288900  0.06475200  0.35504200  1
  O  O65  1  0.08588450  0.74213650  0.99331850  1
  O  O66  1  0.06485250  0.62810450  0.26397150  1
  O  O67  1  0.51226350  0.86937250  0.28941350  1
  O  O68  1  0.63062750  0.01226350  0.21058650  1
  O  O69  1  0.25786350  0.58588450  0.24331850  1
  O  O70  1  0.41411550  0.75786350  0.49331850  1
  O  O71  1  0.35711100  0.93524800  0.39495800  1
  O  O72  1  0.36937250  0.98773650  0.21058650  1
  O  O73  1  0.29789800  0.17632000  0.24523500  1
  O  O74  1  0.06475200  0.35711100  0.60504200  1
  O  O75  1  0.24213650  0.41411550  0.50668150  1
  O  O76  1  0.14288900  0.56475200  0.89495800  1
  O  O77  1  0.35711100  0.43524800  0.85504200  1
  O  O78  1  0.25786350  0.08588450  0.00668150  1
  O  O79  1  0.93819850  0.13104650  0.84257950  1
  O  O80  1  0.12810450  0.43514750  0.23602850  1
  O  O81  1  0.13104650  0.06180150  0.15742050  1
  O  O82  1  0.43514750  0.37189550  0.48602850  1
  O  O83  1  0.56475200  0.35711100  0.14495800  1
  O  O84  1  0.41411550  0.25786350  0.75668150  1
  O  O85  1  0.08588450  0.24213650  0.25668150  1
  O  O86  1  0.32368000  0.79789800  0.25476500  1
  O  O87  1  0.36937250  0.48773650  0.03941350  1
  O  O88  1  0.87189550  0.56485250  0.23602850  1
  O  O89  1  0.43524800  0.14288900  0.10504200  1
  O  O90  1  0.24213650  0.91411550  0.74331850  1
  O  O91  1  0.13062750  0.01226350  0.53941350  1
  O  O92  1  0.36895350  0.43819850  0.65742050  1
  O  O93  1  0.98773650  0.13062750  0.46058650  1
  O  O94  1  0.48773650  0.13062750  0.28941350  1
  O  O95  1  0.67632000  0.20210200  0.25476500  1
  O  O96  1  0.06180150  0.36895350  0.40742050  1
  O  O97  1  0.51226350  0.36937250  0.96058650  1
  O  O98  1  0.43819850  0.13104650  0.90742050  1
  O  O99  1  0.06485250  0.12810450  0.98602850  1
  O  O100  1  0.20210200  0.82368000  0.50476500  1
  O  O101  1  0.17632000  0.20210200  0.49523500  1
  O  O102  1  0.93524800  0.14288900  0.64495800  1
  O  O103  1  0.93514750  0.37189550  0.26397150  1
  O  O104  1  0.87189550  0.06485250  0.01397150  1
  O  O105  1  0.62810450  0.43514750  0.51397150  1
  O  O106  1  0.13104650  0.56180150  0.09257950  1
  O  O107  1  0.56180150  0.36895350  0.34257950  1
  O  O108  1  0.32368000  0.29789800  0.99523500  1
  O  O109  1  0.36895350  0.93819850  0.59257950  1
  O  O110  1  0.70210200  0.82368000  0.24523500  1
  O  O111  1  0.29789800  0.67632000  0.00476500  1
  O  O112  1  0.64288900  0.56475200  0.85504200  1
  O  O113  1  0.58588450  0.24213650  0.49331850  1
  O  O114  1  0.56485250  0.12810450  0.76397150  1
  O  O115  1  0.01226350  0.36937250  0.78941350  1
  O  O116  1  0.13062750  0.51226350  0.71058650  1
  O  O117  1  0.75786350  0.08588450  0.74331850  1
  O  O118  1  0.91411550  0.25786350  0.99331850  1
  O  O119  1  0.85711100  0.43524800  0.89495800  1
  O  O120  1  0.86937250  0.48773650  0.71058650  1
  O  O121  1  0.79789800  0.67632000  0.74523500  1
  O  O122  1  0.56475200  0.85711100  0.10504200  1
  O  O123  1  0.74213650  0.91411550  0.00668150  1
  O  O124  1  0.64288900  0.06475200  0.39495800  1
  O  O125  1  0.85711100  0.93524800  0.35504200  1
  O  O126  1  0.75786350  0.58588450  0.50668150  1
  O  O127  1  0.43819850  0.63104650  0.34257950  1
  O  O128  1  0.62810450  0.93514750  0.73602850  1
  O  O129  1  0.63104650  0.56180150  0.65742050  1
  O  O130  1  0.93514750  0.87189550  0.98602850  1
  O  O131  1  0.06475200  0.85711100  0.64495800  1
  O  O132  1  0.91411550  0.75786350  0.25668150  1
  O  O133  1  0.58588450  0.74213650  0.75668150  1
  O  O134  1  0.82368000  0.29789800  0.75476500  1
  O  O135  1  0.86937250  0.98773650  0.53941350  1
  O  O136  1  0.37189550  0.06485250  0.73602850  1
  O  O137  1  0.93524800  0.64288900  0.60504200  1
  O  O138  1  0.74213650  0.41411550  0.24331850  1
  O  O139  1  0.63062750  0.51226350  0.03941350  1
  O  O140  1  0.86895350  0.93819850  0.15742050  1
  O  O141  1  0.48773650  0.63062750  0.96058650  1
  O  O142  1  0.98773650  0.63062750  0.78941350  1
  O  O143  1  0.17632000  0.70210200  0.75476500  1
  O  O144  1  0.56180150  0.86895350  0.90742050  1
  O  O145  1  0.01226350  0.86937250  0.46058650  1
  O  O146  1  0.93819850  0.63104650  0.40742050  1
  O  O147  1  0.56485250  0.62810450  0.48602850  1
  O  O148  1  0.70210200  0.32368000  0.00476500  1
  O  O149  1  0.67632000  0.70210200  0.99523500  1
  O  O150  1  0.43524800  0.64288900  0.14495800  1
  O  O151  1  0.43514750  0.87189550  0.76397150  1
  O  O152  1  0.37189550  0.56485250  0.51397150  1
  O  O153  1  0.12810450  0.93514750  0.01397150  1
  O  O154  1  0.63104650  0.06180150  0.59257950  1
  O  O155  1  0.06180150  0.86895350  0.84257950  1
  O  O156  1  0.82368000  0.79789800  0.49523500  1
  O  O157  1  0.86895350  0.43819850  0.09257950  1
  O  O158  1  0.20210200  0.32368000  0.74523500  1
  O  O159  1  0.79789800  0.17632000  0.50476500  1
