# generated using pymatgen
data_Rh2O3
_symmetry_space_group_name_H-M   'P 1'
_cell_length_a   5.21014994
_cell_length_b   5.21014994
_cell_length_c   14.08975454
_cell_angle_alpha   90.00000000
_cell_angle_beta   90.00000000
_cell_angle_gamma   120.00000000
_symmetry_Int_Tables_number   1
_chemical_formula_structural   Rh2O3
_chemical_formula_sum   'Rh12 O18'
_cell_volume   331.23369032
_cell_formula_units_Z   6
loop_
 _symmetry_equiv_pos_site_id
 _symmetry_equiv_pos_as_xyz
  1  'x, y, z'
loop_
 _atom_site_type_symbol
 _atom_site_label
 _atom_site_symmetry_multiplicity
 _atom_site_fract_x
 _atom_site_fract_y
 _atom_site_fract_z
 _atom_site_occupancy
  Rh  Rh0  1  0.66666667  0.33333333  0.18276833  1
  Rh  Rh1  1  0.33333333  0.66666667  0.31723167  1
  Rh  Rh2  1  0.00000000  0.00000000  0.15056500  1
  Rh  Rh3  1  0.33333333  0.66666667  0.01610167  1
  Rh  Rh4  1  0.33333333  0.66666667  0.51610167  1
  Rh  Rh5  1  0.00000000  0.00000000  0.65056500  1
  Rh  Rh6  1  0.66666667  0.33333333  0.48389833  1
  Rh  Rh7  1  0.00000000  0.00000000  0.34943500  1
  Rh  Rh8  1  0.00000000  0.00000000  0.84943500  1
  Rh  Rh9  1  0.66666667  0.33333333  0.98389833  1
  Rh  Rh10  1  0.33333333  0.66666667  0.81723167  1
  Rh  Rh11  1  0.66666667  0.33333333  0.68276833  1
  O  O12  1  0.96626367  0.63293033  0.08333333  1
  O  O13  1  0.66666667  0.03373633  0.08333333  1
  O  O14  1  0.36706967  0.33333333  0.08333333  1
  O  O15  1  0.70040300  0.70040300  0.25000000  1
  O  O16  1  0.00000000  0.29959700  0.25000000  1
  O  O17  1  0.29959700  1.00000000  0.25000000  1
  O  O18  1  0.63293033  0.96626367  0.41666667  1
  O  O19  1  0.33333333  0.36706967  0.41666667  1
  O  O20  1  0.03373633  0.66666667  0.41666667  1
  O  O21  1  0.36706967  0.03373633  0.58333333  1
  O  O22  1  0.66666667  0.63293033  0.58333333  1
  O  O23  1  0.96626367  0.33333333  0.58333333  1
  O  O24  1  0.29959700  0.29959700  0.75000000  1
  O  O25  1  0.00000000  0.70040300  0.75000000  1
  O  O26  1  0.70040300  0.00000000  0.75000000  1
  O  O27  1  0.03373633  0.36706967  0.91666667  1
  O  O28  1  0.33333333  0.96626367  0.91666667  1
  O  O29  1  0.63293033  0.66666667  0.91666667  1
