# generated using pymatgen
data_SbCSF11
_symmetry_space_group_name_H-M   'P 1'
_cell_length_a   17.16516600
_cell_length_b   7.50320400
_cell_length_c   13.62933753
_cell_angle_alpha   90.00000000
_cell_angle_beta   91.37535648
_cell_angle_gamma   90.00000000
_symmetry_Int_Tables_number   1
_chemical_formula_structural   SbCSF11
_chemical_formula_sum   'Sb8 C8 S8 F88'
_cell_volume   1754.86767159
_cell_formula_units_Z   8
loop_
 _symmetry_equiv_pos_site_id
 _symmetry_equiv_pos_as_xyz
  1  'x, y, z'
loop_
 _atom_site_type_symbol
 _atom_site_label
 _atom_site_symmetry_multiplicity
 _atom_site_fract_x
 _atom_site_fract_y
 _atom_site_fract_z
 _atom_site_occupancy
  Sb  Sb0  1  0.89125200  0.10578600  0.12104900  1
  Sb  Sb1  1  0.60874800  0.60578600  0.37895100  1
  Sb  Sb2  1  0.60874800  0.39421400  0.87895100  1
  Sb  Sb3  1  0.89125200  0.89421400  0.62104900  1
  Sb  Sb4  1  0.39125200  0.60578600  0.12104900  1
  Sb  Sb5  1  0.10874800  0.10578600  0.37895100  1
  Sb  Sb6  1  0.10874800  0.89421400  0.87895100  1
  Sb  Sb7  1  0.39125200  0.39421400  0.62104900  1
  C  C8  1  0.65155100  0.05951600  0.58085800  1
  C  C9  1  0.84844900  0.55951600  0.91914200  1
  C  C10  1  0.84844900  0.44048400  0.41914200  1
  C  C11  1  0.65155100  0.94048400  0.08085800  1
  C  C12  1  0.15155100  0.55951600  0.58085800  1
  C  C13  1  0.34844900  0.05951600  0.91914200  1
  C  C14  1  0.34844900  0.94048400  0.41914200  1
  C  C15  1  0.15155100  0.44048400  0.08085800  1
  S  S16  1  0.64842850  0.82342350  0.64923700  1
  S  S17  1  0.85157150  0.67657650  0.35076300  1
  S  S18  1  0.64842850  0.17657650  0.14923700  1
  S  S19  1  0.85157150  0.32342350  0.85076300  1
  S  S20  1  0.14842850  0.32342350  0.64923700  1
  S  S21  1  0.35157150  0.17657650  0.35076300  1
  S  S22  1  0.14842850  0.67657650  0.14923700  1
  S  S23  1  0.35157150  0.82342350  0.85076300  1
  F  F24  1  0.81618000  0.46480500  0.50565500  1
  F  F25  1  0.57850700  0.88452400  0.07127900  1
  F  F26  1  0.81618000  0.53519500  0.00565500  1
  F  F27  1  0.57850700  0.11547600  0.57127900  1
  F  F28  1  0.63861150  0.58947850  0.96075300  1
  F  F29  1  0.93889900  0.33858500  0.82067700  1
  F  F30  1  0.71644600  0.30748100  0.89323700  1
  F  F31  1  0.58638700  0.74430100  0.49696400  1
  F  F32  1  0.91361300  0.24430100  0.00303600  1
  F  F33  1  0.63980500  0.47686400  0.26460000  1
  F  F34  1  0.63980500  0.52313600  0.76460000  1
  F  F35  1  0.68473850  0.10847150  0.24945700  1
  F  F36  1  0.69428800  0.83082700  0.13685400  1
  F  F37  1  0.80571200  0.66917300  0.86314600  1
  F  F38  1  0.93889900  0.66141500  0.32067700  1
  F  F39  1  0.69428800  0.16917300  0.63685400  1
  F  F40  1  0.86019500  0.97686400  0.23540000  1
  F  F41  1  0.68382000  0.96480500  0.99434500  1
  F  F42  1  0.58638700  0.25569900  0.99696400  1
  F  F43  1  0.81526150  0.39152850  0.75054300  1
  F  F44  1  0.58495550  0.81314350  0.30368800  1
  F  F45  1  0.58495550  0.18685650  0.80368800  1
  F  F46  1  0.68382000  0.03519500  0.49434500  1
  F  F47  1  0.50427300  0.47546200  0.86971600  1
  F  F48  1  0.78355400  0.80748100  0.60676300  1
  F  F49  1  0.80571200  0.33082700  0.36314600  1
  F  F50  1  0.68473850  0.89152850  0.74945700  1
  F  F51  1  0.56110100  0.83858500  0.67932300  1
  F  F52  1  0.56110100  0.16141500  0.17932300  1
  F  F53  1  0.78355400  0.19251900  0.10676300  1
  F  F54  1  0.92149300  0.38452400  0.42872100  1
  F  F55  1  0.71644600  0.69251900  0.39323700  1
  F  F56  1  0.91504450  0.31314350  0.19631200  1
  F  F57  1  0.86019500  0.02313600  0.73540000  1
  F  F58  1  0.50427300  0.52453800  0.36971600  1
  F  F59  1  0.86138850  0.91052150  0.03924700  1
  F  F60  1  0.99572700  0.97546200  0.63028400  1
  F  F61  1  0.91504450  0.68685650  0.69631200  1
  F  F62  1  0.99572700  0.02453800  0.13028400  1
  F  F63  1  0.81526150  0.60847150  0.25054300  1
  F  F64  1  0.86138850  0.08947850  0.53924700  1
  F  F65  1  0.92149300  0.61547600  0.92872100  1
  F  F66  1  0.63861150  0.41052150  0.46075300  1
  F  F67  1  0.91361300  0.75569900  0.50303600  1
  F  F68  1  0.31618000  0.96480500  0.50565500  1
  F  F69  1  0.07850700  0.38452400  0.07127900  1
  F  F70  1  0.31618000  0.03519500  0.00565500  1
  F  F71  1  0.07850700  0.61547600  0.57127900  1
  F  F72  1  0.13861150  0.08947850  0.96075300  1
  F  F73  1  0.43889900  0.83858500  0.82067700  1
  F  F74  1  0.21644600  0.80748100  0.89323700  1
  F  F75  1  0.08638700  0.24430100  0.49696400  1
  F  F76  1  0.41361300  0.74430100  0.00303600  1
  F  F77  1  0.13980500  0.97686400  0.26460000  1
  F  F78  1  0.13980500  0.02313600  0.76460000  1
  F  F79  1  0.18473850  0.60847150  0.24945700  1
  F  F80  1  0.19428800  0.33082700  0.13685400  1
  F  F81  1  0.30571200  0.16917300  0.86314600  1
  F  F82  1  0.43889900  0.16141500  0.32067700  1
  F  F83  1  0.19428800  0.66917300  0.63685400  1
  F  F84  1  0.36019500  0.47686400  0.23540000  1
  F  F85  1  0.18382000  0.46480500  0.99434500  1
  F  F86  1  0.08638700  0.75569900  0.99696400  1
  F  F87  1  0.31526150  0.89152850  0.75054300  1
  F  F88  1  0.08495550  0.31314350  0.30368800  1
  F  F89  1  0.08495550  0.68685650  0.80368800  1
  F  F90  1  0.18382000  0.53519500  0.49434500  1
  F  F91  1  0.00427300  0.97546200  0.86971600  1
  F  F92  1  0.28355400  0.30748100  0.60676300  1
  F  F93  1  0.30571200  0.83082700  0.36314600  1
  F  F94  1  0.18473850  0.39152850  0.74945700  1
  F  F95  1  0.06110100  0.33858500  0.67932300  1
  F  F96  1  0.06110100  0.66141500  0.17932300  1
  F  F97  1  0.28355400  0.69251900  0.10676300  1
  F  F98  1  0.42149300  0.88452400  0.42872100  1
  F  F99  1  0.21644600  0.19251900  0.39323700  1
  F  F100  1  0.41504450  0.81314350  0.19631200  1
  F  F101  1  0.36019500  0.52313600  0.73540000  1
  F  F102  1  0.00427300  0.02453800  0.36971600  1
  F  F103  1  0.36138850  0.41052150  0.03924700  1
  F  F104  1  0.49572700  0.47546200  0.63028400  1
  F  F105  1  0.41504450  0.18685650  0.69631200  1
  F  F106  1  0.49572700  0.52453800  0.13028400  1
  F  F107  1  0.31526150  0.10847150  0.25054300  1
  F  F108  1  0.36138850  0.58947850  0.53924700  1
  F  F109  1  0.42149300  0.11547600  0.92872100  1
  F  F110  1  0.13861150  0.91052150  0.46075300  1
  F  F111  1  0.41361300  0.25569900  0.50303600  1
