# generated using pymatgen
data_Li3CrF6
_symmetry_space_group_name_H-M   'P 1'
_cell_length_a   14.66065400
_cell_length_b   8.76588400
_cell_length_c   10.23516472
_cell_angle_alpha   90.00000000
_cell_angle_beta   94.71982692
_cell_angle_gamma   90.00000000
_symmetry_Int_Tables_number   1
_chemical_formula_structural   Li3CrF6
_chemical_formula_sum   'Li36 Cr12 F72'
_cell_volume   1310.89737246
_cell_formula_units_Z   12
loop_
 _symmetry_equiv_pos_site_id
 _symmetry_equiv_pos_as_xyz
  1  'x, y, z'
loop_
 _atom_site_type_symbol
 _atom_site_label
 _atom_site_symmetry_multiplicity
 _atom_site_fract_x
 _atom_site_fract_y
 _atom_site_fract_z
 _atom_site_occupancy
  Li  Li0  1  0.63992600  0.64732400  0.76997500  1
  Li  Li1  1  0.36007400  0.64732400  0.73002500  1
  Li  Li2  1  0.36007400  0.35267600  0.23002500  1
  Li  Li3  1  0.63992600  0.35267600  0.26997500  1
  Li  Li4  1  0.52301300  0.15097300  0.03831600  1
  Li  Li5  1  0.47698700  0.15097300  0.46168400  1
  Li  Li6  1  0.33260050  0.79188650  0.44836500  1
  Li  Li7  1  0.66739950  0.79188650  0.05163500  1
  Li  Li8  1  0.66739950  0.20811350  0.55163500  1
  Li  Li9  1  0.33260050  0.20811350  0.94836500  1
  Li  Li10  1  0.79797150  0.14223150  0.06806400  1
  Li  Li11  1  0.20202850  0.14223150  0.43193600  1
  Li  Li12  1  0.20202850  0.85776850  0.93193600  1
  Li  Li13  1  0.79797150  0.85776850  0.56806400  1
  Li  Li14  1  0.50000000  0.31189300  0.75000000  1
  Li  Li15  1  0.50000000  0.68810700  0.25000000  1
  Li  Li16  1  0.47698700  0.84902700  0.96168400  1
  Li  Li17  1  0.52301300  0.84902700  0.53831600  1
  Li  Li18  1  0.13992600  0.14732400  0.76997500  1
  Li  Li19  1  0.86007400  0.14732400  0.73002500  1
  Li  Li20  1  0.86007400  0.85267600  0.23002500  1
  Li  Li21  1  0.13992600  0.85267600  0.26997500  1
  Li  Li22  1  0.02301300  0.65097300  0.03831600  1
  Li  Li23  1  0.97698700  0.65097300  0.46168400  1
  Li  Li24  1  0.83260050  0.29188650  0.44836500  1
  Li  Li25  1  0.16739950  0.29188650  0.05163500  1
  Li  Li26  1  0.16739950  0.70811350  0.55163500  1
  Li  Li27  1  0.83260050  0.70811350  0.94836500  1
  Li  Li28  1  0.29797150  0.64223150  0.06806400  1
  Li  Li29  1  0.70202850  0.64223150  0.43193600  1
  Li  Li30  1  0.70202850  0.35776850  0.93193600  1
  Li  Li31  1  0.29797150  0.35776850  0.56806400  1
  Li  Li32  1  0.00000000  0.81189300  0.75000000  1
  Li  Li33  1  0.00000000  0.18810700  0.25000000  1
  Li  Li34  1  0.97698700  0.34902700  0.96168400  1
  Li  Li35  1  0.02301300  0.34902700  0.53831600  1
  Cr  Cr36  1  0.33664100  0.99755000  0.20391600  1
  Cr  Cr37  1  0.66335900  0.99755000  0.29608400  1
  Cr  Cr38  1  0.66335900  0.00245000  0.79608400  1
  Cr  Cr39  1  0.33664100  0.00245000  0.70391600  1
  Cr  Cr40  1  0.00000000  0.00000000  0.50000000  1
  Cr  Cr41  1  0.00000000  0.00000000  0.00000000  1
  Cr  Cr42  1  0.83664100  0.49755000  0.20391600  1
  Cr  Cr43  1  0.16335900  0.49755000  0.29608400  1
  Cr  Cr44  1  0.16335900  0.50245000  0.79608400  1
  Cr  Cr45  1  0.83664100  0.50245000  0.70391600  1
  Cr  Cr46  1  0.50000000  0.50000000  0.50000000  1
  Cr  Cr47  1  0.50000000  0.50000000  0.00000000  1
  F  F48  1  0.60056350  0.15877250  0.19466100  1
  F  F49  1  0.75263100  0.02072100  0.66301300  1
  F  F50  1  0.75263100  0.97927900  0.16301300  1
  F  F51  1  0.24736900  0.97927900  0.33698700  1
  F  F52  1  0.57683950  0.66295250  0.93772700  1
  F  F53  1  0.42316050  0.66295250  0.56227300  1
  F  F54  1  0.42316050  0.33704750  0.06227300  1
  F  F55  1  0.57683950  0.33704750  0.43772700  1
  F  F56  1  0.24736900  0.02072100  0.83698700  1
  F  F57  1  0.57282900  0.66570400  0.43449000  1
  F  F58  1  0.57282900  0.33429600  0.93449000  1
  F  F59  1  0.42717100  0.33429600  0.56551000  1
  F  F60  1  0.39943650  0.15877250  0.30533900  1
  F  F61  1  0.57883750  0.99041250  0.93399700  1
  F  F62  1  0.57883750  0.00958750  0.43399700  1
  F  F63  1  0.42116250  0.00958750  0.06600300  1
  F  F64  1  0.26144350  0.15512350  0.60566200  1
  F  F65  1  0.73855650  0.15512350  0.89433800  1
  F  F66  1  0.73855650  0.84487650  0.39433800  1
  F  F67  1  0.26144350  0.84487650  0.10566200  1
  F  F68  1  0.07192200  0.00589700  0.16691000  1
  F  F69  1  0.92807800  0.00589700  0.33309000  1
  F  F70  1  0.92807800  0.99410300  0.83309000  1
  F  F71  1  0.07192200  0.99410300  0.66691000  1
  F  F72  1  0.39943650  0.84122750  0.80533900  1
  F  F73  1  0.60056350  0.84122750  0.69466100  1
  F  F74  1  0.73086600  0.16121400  0.38984100  1
  F  F75  1  0.42116250  0.99041250  0.56600300  1
  F  F76  1  0.26913400  0.83878600  0.61015900  1
  F  F77  1  0.73086600  0.83878600  0.88984100  1
  F  F78  1  0.59450700  0.16120500  0.69767300  1
  F  F79  1  0.40549300  0.16120500  0.80232700  1
  F  F80  1  0.40549300  0.83879500  0.30232700  1
  F  F81  1  0.59450700  0.83879500  0.19767300  1
  F  F82  1  0.42717100  0.66570400  0.06551000  1
  F  F83  1  0.26913400  0.16121400  0.11015900  1
  F  F84  1  0.10056350  0.65877250  0.19466100  1
  F  F85  1  0.25263100  0.52072100  0.66301300  1
  F  F86  1  0.25263100  0.47927900  0.16301300  1
  F  F87  1  0.74736900  0.47927900  0.33698700  1
  F  F88  1  0.07683950  0.16295250  0.93772700  1
  F  F89  1  0.92316050  0.16295250  0.56227300  1
  F  F90  1  0.92316050  0.83704750  0.06227300  1
  F  F91  1  0.07683950  0.83704750  0.43772700  1
  F  F92  1  0.74736900  0.52072100  0.83698700  1
  F  F93  1  0.07282900  0.16570400  0.43449000  1
  F  F94  1  0.07282900  0.83429600  0.93449000  1
  F  F95  1  0.92717100  0.83429600  0.56551000  1
  F  F96  1  0.89943650  0.65877250  0.30533900  1
  F  F97  1  0.07883750  0.49041250  0.93399700  1
  F  F98  1  0.07883750  0.50958750  0.43399700  1
  F  F99  1  0.92116250  0.50958750  0.06600300  1
  F  F100  1  0.76144350  0.65512350  0.60566200  1
  F  F101  1  0.23855650  0.65512350  0.89433800  1
  F  F102  1  0.23855650  0.34487650  0.39433800  1
  F  F103  1  0.76144350  0.34487650  0.10566200  1
  F  F104  1  0.57192200  0.50589700  0.16691000  1
  F  F105  1  0.42807800  0.50589700  0.33309000  1
  F  F106  1  0.42807800  0.49410300  0.83309000  1
  F  F107  1  0.57192200  0.49410300  0.66691000  1
  F  F108  1  0.89943650  0.34122750  0.80533900  1
  F  F109  1  0.10056350  0.34122750  0.69466100  1
  F  F110  1  0.23086600  0.66121400  0.38984100  1
  F  F111  1  0.92116250  0.49041250  0.56600300  1
  F  F112  1  0.76913400  0.33878600  0.61015900  1
  F  F113  1  0.23086600  0.33878600  0.88984100  1
  F  F114  1  0.09450700  0.66120500  0.69767300  1
  F  F115  1  0.90549300  0.66120500  0.80232700  1
  F  F116  1  0.90549300  0.33879500  0.30232700  1
  F  F117  1  0.09450700  0.33879500  0.19767300  1
  F  F118  1  0.92717100  0.16570400  0.06551000  1
  F  F119  1  0.76913400  0.66121400  0.11015900  1
