# generated using pymatgen
data_K2Ge2PbS6
_symmetry_space_group_name_H-M   'P 1'
_cell_length_a   9.46755400
_cell_length_b   14.61404400
_cell_length_c   9.15311291
_cell_angle_alpha   90.00000000
_cell_angle_beta   90.08432451
_cell_angle_gamma   90.00000000
_symmetry_Int_Tables_number   1
_chemical_formula_structural   K2Ge2PbS6
_chemical_formula_sum   'K8 Ge8 Pb4 S24'
_cell_volume   1266.41647292
_cell_formula_units_Z   4
loop_
 _symmetry_equiv_pos_site_id
 _symmetry_equiv_pos_as_xyz
  1  'x, y, z'
loop_
 _atom_site_type_symbol
 _atom_site_label
 _atom_site_symmetry_multiplicity
 _atom_site_fract_x
 _atom_site_fract_y
 _atom_site_fract_z
 _atom_site_occupancy
  K  K0  1  0.59912900  0.13723100  0.51826000  1
  K  K1  1  0.40087100  0.86276900  0.48174000  1
  K  K2  1  0.40087100  0.13723100  0.98174000  1
  K  K3  1  0.59912900  0.86276900  0.01826000  1
  K  K4  1  0.09912900  0.63723100  0.51826000  1
  K  K5  1  0.90087100  0.36276900  0.48174000  1
  K  K6  1  0.90087100  0.63723100  0.98174000  1
  K  K7  1  0.09912900  0.36276900  0.01826000  1
  Ge  Ge8  1  0.18393200  0.83986600  0.05929200  1
  Ge  Ge9  1  0.81606800  0.16013400  0.94070800  1
  Ge  Ge10  1  0.81606800  0.83986600  0.44070800  1
  Ge  Ge11  1  0.18393200  0.16013400  0.55929200  1
  Ge  Ge12  1  0.68393200  0.33986600  0.05929200  1
  Ge  Ge13  1  0.31606800  0.66013400  0.94070800  1
  Ge  Ge14  1  0.31606800  0.33986600  0.44070800  1
  Ge  Ge15  1  0.68393200  0.66013400  0.55929200  1
  Pb  Pb16  1  0.50000000  0.51132900  0.25000000  1
  Pb  Pb17  1  0.50000000  0.48867100  0.75000000  1
  Pb  Pb18  1  0.00000000  0.01132900  0.25000000  1
  Pb  Pb19  1  0.00000000  0.98867100  0.75000000  1
  S  S20  1  0.29800450  0.04823150  0.66530500  1
  S  S21  1  0.27958100  0.80093500  0.83734900  1
  S  S22  1  0.70199550  0.04823150  0.83469500  1
  S  S23  1  0.27958100  0.19906500  0.33734900  1
  S  S24  1  0.70199550  0.95176850  0.33469500  1
  S  S25  1  0.45640750  0.63285650  0.53807000  1
  S  S26  1  0.54359250  0.63285650  0.96193000  1
  S  S27  1  0.45640750  0.36714350  0.03807000  1
  S  S28  1  0.72041900  0.19906500  0.16265100  1
  S  S29  1  0.72041900  0.80093500  0.66265100  1
  S  S30  1  0.54359250  0.36714350  0.46193000  1
  S  S31  1  0.29800450  0.95176850  0.16530500  1
  S  S32  1  0.79800450  0.54823150  0.66530500  1
  S  S33  1  0.77958100  0.30093500  0.83734900  1
  S  S34  1  0.20199550  0.54823150  0.83469500  1
  S  S35  1  0.77958100  0.69906500  0.33734900  1
  S  S36  1  0.20199550  0.45176850  0.33469500  1
  S  S37  1  0.95640750  0.13285650  0.53807000  1
  S  S38  1  0.04359250  0.13285650  0.96193000  1
  S  S39  1  0.95640750  0.86714350  0.03807000  1
  S  S40  1  0.22041900  0.69906500  0.16265100  1
  S  S41  1  0.22041900  0.30093500  0.66265100  1
  S  S42  1  0.04359250  0.86714350  0.46193000  1
  S  S43  1  0.79800450  0.45176850  0.16530500  1
