# generated using pymatgen
data_Na5NbO5
_symmetry_space_group_name_H-M   'P 1'
_cell_length_a   6.36501600
_cell_length_b   10.36223800
_cell_length_c   10.14117185
_cell_angle_alpha   90.00000000
_cell_angle_beta   106.51297908
_cell_angle_gamma   90.00000000
_symmetry_Int_Tables_number   1
_chemical_formula_structural   Na5NbO5
_chemical_formula_sum   'Na20 Nb4 O20'
_cell_volume   641.28194939
_cell_formula_units_Z   4
loop_
 _symmetry_equiv_pos_site_id
 _symmetry_equiv_pos_as_xyz
  1  'x, y, z'
loop_
 _atom_site_type_symbol
 _atom_site_label
 _atom_site_symmetry_multiplicity
 _atom_site_fract_x
 _atom_site_fract_y
 _atom_site_fract_z
 _atom_site_occupancy
  Na  Na0  1  0.16251950  0.15866650  0.07706100  1
  Na  Na1  1  0.83748050  0.15866650  0.42293900  1
  Na  Na2  1  0.32959500  0.88599700  0.94922400  1
  Na  Na3  1  0.67040500  0.88599700  0.55077600  1
  Na  Na4  1  0.67040500  0.11400300  0.05077600  1
  Na  Na5  1  0.32959500  0.11400300  0.44922400  1
  Na  Na6  1  0.50000000  0.83252800  0.25000000  1
  Na  Na7  1  0.50000000  0.16747200  0.75000000  1
  Na  Na8  1  0.16251950  0.84133350  0.57706100  1
  Na  Na9  1  0.83748050  0.84133350  0.92293900  1
  Na  Na10  1  0.66251950  0.65866650  0.07706100  1
  Na  Na11  1  0.33748050  0.65866650  0.42293900  1
  Na  Na12  1  0.82959500  0.38599700  0.94922400  1
  Na  Na13  1  0.17040500  0.38599700  0.55077600  1
  Na  Na14  1  0.17040500  0.61400300  0.05077600  1
  Na  Na15  1  0.82959500  0.61400300  0.44922400  1
  Na  Na16  1  0.00000000  0.33252800  0.25000000  1
  Na  Na17  1  0.00000000  0.66747200  0.75000000  1
  Na  Na18  1  0.66251950  0.34133350  0.57706100  1
  Na  Na19  1  0.33748050  0.34133350  0.92293900  1
  Nb  Nb20  1  0.50000000  0.40760200  0.25000000  1
  Nb  Nb21  1  0.50000000  0.59239800  0.75000000  1
  Nb  Nb22  1  0.00000000  0.90760200  0.25000000  1
  Nb  Nb23  1  0.00000000  0.09239800  0.75000000  1
  O  O24  1  0.50000000  0.40696600  0.75000000  1
  O  O25  1  0.50000000  0.59303400  0.25000000  1
  O  O26  1  0.63301700  0.67141800  0.61879700  1
  O  O27  1  0.36698300  0.67141800  0.88120300  1
  O  O28  1  0.70315050  0.89258450  0.10398900  1
  O  O29  1  0.29684950  0.89258450  0.39601100  1
  O  O30  1  0.29684950  0.10741550  0.89601100  1
  O  O31  1  0.70315050  0.10741550  0.60398900  1
  O  O32  1  0.36698300  0.32858200  0.38120300  1
  O  O33  1  0.63301700  0.32858200  0.11879700  1
  O  O34  1  0.00000000  0.90696600  0.75000000  1
  O  O35  1  0.00000000  0.09303400  0.25000000  1
  O  O36  1  0.13301700  0.17141800  0.61879700  1
  O  O37  1  0.86698300  0.17141800  0.88120300  1
  O  O38  1  0.20315050  0.39258450  0.10398900  1
  O  O39  1  0.79684950  0.39258450  0.39601100  1
  O  O40  1  0.79684950  0.60741550  0.89601100  1
  O  O41  1  0.20315050  0.60741550  0.60398900  1
  O  O42  1  0.86698300  0.82858200  0.38120300  1
  O  O43  1  0.13301700  0.82858200  0.11879700  1
