# generated using pymatgen
data_Na4UO5
_symmetry_space_group_name_H-M   'P 1'
_cell_length_a   7.69946400
_cell_length_b   7.69946400
_cell_length_c   4.65335200
_cell_angle_alpha   90.00000000
_cell_angle_beta   90.00000000
_cell_angle_gamma   90.00000000
_symmetry_Int_Tables_number   1
_chemical_formula_structural   Na4UO5
_chemical_formula_sum   'Na8 U2 O10'
_cell_volume   275.85883079
_cell_formula_units_Z   2
loop_
 _symmetry_equiv_pos_site_id
 _symmetry_equiv_pos_as_xyz
  1  'x, y, z'
loop_
 _atom_site_type_symbol
 _atom_site_label
 _atom_site_symmetry_multiplicity
 _atom_site_fract_x
 _atom_site_fract_y
 _atom_site_fract_z
 _atom_site_occupancy
  Na  Na0  1  0.69775750  0.89665450  0.50000000  1
  Na  Na1  1  0.30224250  0.10334550  0.50000000  1
  Na  Na2  1  0.39665450  0.80224250  0.00000000  1
  Na  Na3  1  0.60334550  0.19775750  0.00000000  1
  Na  Na4  1  0.19775750  0.39665450  0.00000000  1
  Na  Na5  1  0.80224250  0.60334550  0.00000000  1
  Na  Na6  1  0.89665450  0.30224250  0.50000000  1
  Na  Na7  1  0.10334550  0.69775750  0.50000000  1
  U  U8  1  0.00000000  0.00000000  0.00000000  1
  U  U9  1  0.50000000  0.50000000  0.50000000  1
  O  O10  1  0.00000000  0.00000000  0.50000000  1
  O  O11  1  0.25359100  0.07505300  0.00000000  1
  O  O12  1  0.74640900  0.92494700  0.00000000  1
  O  O13  1  0.57505300  0.24640900  0.50000000  1
  O  O14  1  0.42494700  0.75359100  0.50000000  1
  O  O15  1  0.50000000  0.50000000  0.00000000  1
  O  O16  1  0.75359100  0.57505300  0.50000000  1
  O  O17  1  0.24640900  0.42494700  0.50000000  1
  O  O18  1  0.07505300  0.74640900  0.00000000  1
  O  O19  1  0.92494700  0.25359100  0.00000000  1
