# generated using pymatgen
data_KNa2CuO2
_symmetry_space_group_name_H-M   'P 1'
_cell_length_a   4.39037200
_cell_length_b   4.39037200
_cell_length_c   10.94419600
_cell_angle_alpha   90.00000000
_cell_angle_beta   90.00000000
_cell_angle_gamma   90.00000000
_symmetry_Int_Tables_number   1
_chemical_formula_structural   KNa2CuO2
_chemical_formula_sum   'K2 Na4 Cu2 O4'
_cell_volume   210.95338674
_cell_formula_units_Z   2
loop_
 _symmetry_equiv_pos_site_id
 _symmetry_equiv_pos_as_xyz
  1  'x, y, z'
loop_
 _atom_site_type_symbol
 _atom_site_label
 _atom_site_symmetry_multiplicity
 _atom_site_fract_x
 _atom_site_fract_y
 _atom_site_fract_z
 _atom_site_occupancy
  K  K0  1  0.50000000  0.50000000  0.07252100  1
  K  K1  1  0.00000000  0.00000000  0.57252100  1
  Na  Na2  1  0.00000000  0.50000000  0.27279000  1
  Na  Na3  1  0.50000000  0.00000000  0.27279000  1
  Na  Na4  1  0.50000000  0.00000000  0.77279000  1
  Na  Na5  1  0.00000000  0.50000000  0.77279000  1
  Cu  Cu6  1  0.50000000  0.50000000  0.49531100  1
  Cu  Cu7  1  0.00000000  0.00000000  0.99531100  1
  O  O8  1  0.00000000  0.00000000  0.16151300  1
  O  O9  1  0.50000000  0.50000000  0.33001400  1
  O  O10  1  0.50000000  0.50000000  0.66151300  1
  O  O11  1  0.00000000  0.00000000  0.83001400  1
