# generated using pymatgen
data_AgAs(S8F3)2
_symmetry_space_group_name_H-M   'P 1'
_cell_length_a   18.36078000
_cell_length_b   8.21480800
_cell_length_c   16.18068004
_cell_angle_alpha   90.00000000
_cell_angle_beta   101.37317231
_cell_angle_gamma   90.00000000
_symmetry_Int_Tables_number   1
_chemical_formula_structural   AgAs(S8F3)2
_chemical_formula_sum   'Ag4 As4 S64 F24'
_cell_volume   2392.61322868
_cell_formula_units_Z   4
loop_
 _symmetry_equiv_pos_site_id
 _symmetry_equiv_pos_as_xyz
  1  'x, y, z'
loop_
 _atom_site_type_symbol
 _atom_site_label
 _atom_site_symmetry_multiplicity
 _atom_site_fract_x
 _atom_site_fract_y
 _atom_site_fract_z
 _atom_site_occupancy
  Ag  Ag0  1  0.00000000  0.16444500  0.25000000  1
  Ag  Ag1  1  0.00000000  0.83555500  0.75000000  1
  Ag  Ag2  1  0.50000000  0.66444500  0.25000000  1
  Ag  Ag3  1  0.50000000  0.33555500  0.75000000  1
  As  As4  1  0.00000000  0.50000000  0.00000000  1
  As  As5  1  0.00000000  0.50000000  0.50000000  1
  As  As6  1  0.50000000  0.00000000  0.00000000  1
  As  As7  1  0.50000000  0.00000000  0.50000000  1
  S  S8  1  0.85519750  0.85721750  0.56250400  1
  S  S9  1  0.58236900  0.48373400  0.64929000  1
  S  S10  1  0.84058100  0.79767400  0.83474400  1
  S  S11  1  0.65941900  0.70232600  0.16525600  1
  S  S12  1  0.91763100  0.98373400  0.85071000  1
  S  S13  1  0.85519750  0.14278250  0.06250400  1
  S  S14  1  0.80255100  0.69516000  0.62750100  1
  S  S15  1  0.58236900  0.51626600  0.14929000  1
  S  S16  1  0.59872650  0.30059450  0.32988600  1
  S  S17  1  0.81989700  0.90938000  0.08073600  1
  S  S18  1  0.87303350  0.19198750  0.78646600  1
  S  S19  1  0.87303350  0.80801250  0.28646600  1
  S  S20  1  0.87055050  0.34970550  0.24351800  1
  S  S21  1  0.68010300  0.59062000  0.91926400  1
  S  S22  1  0.69744900  0.19516000  0.87249900  1
  S  S23  1  0.90127350  0.80059450  0.17011400  1
  S  S24  1  0.64480250  0.35721750  0.93749600  1
  S  S25  1  0.69744900  0.80484000  0.37249900  1
  S  S26  1  0.62696650  0.69198750  0.71353400  1
  S  S27  1  0.59872650  0.69940550  0.82988600  1
  S  S28  1  0.68010300  0.40938000  0.41926400  1
  S  S29  1  0.81989700  0.09062000  0.58073600  1
  S  S30  1  0.65941900  0.29767400  0.66525600  1
  S  S31  1  0.62944950  0.15029450  0.75648200  1
  S  S32  1  0.64480250  0.64278250  0.43749600  1
  S  S33  1  0.84058100  0.20232600  0.33474400  1
  S  S34  1  0.80255100  0.30484000  0.12750100  1
  S  S35  1  0.62696650  0.30801250  0.21353400  1
  S  S36  1  0.90127350  0.19940550  0.67011400  1
  S  S37  1  0.62944950  0.84970550  0.25648200  1
  S  S38  1  0.87055050  0.65029450  0.74351800  1
  S  S39  1  0.91763100  0.01626600  0.35071000  1
  S  S40  1  0.35519750  0.35721750  0.56250400  1
  S  S41  1  0.08236900  0.98373400  0.64929000  1
  S  S42  1  0.34058100  0.29767400  0.83474400  1
  S  S43  1  0.15941900  0.20232600  0.16525600  1
  S  S44  1  0.41763100  0.48373400  0.85071000  1
  S  S45  1  0.35519750  0.64278250  0.06250400  1
  S  S46  1  0.30255100  0.19516000  0.62750100  1
  S  S47  1  0.08236900  0.01626600  0.14929000  1
  S  S48  1  0.09872650  0.80059450  0.32988600  1
  S  S49  1  0.31989700  0.40938000  0.08073600  1
  S  S50  1  0.37303350  0.69198750  0.78646600  1
  S  S51  1  0.37303350  0.30801250  0.28646600  1
  S  S52  1  0.37055050  0.84970550  0.24351800  1
  S  S53  1  0.18010300  0.09062000  0.91926400  1
  S  S54  1  0.19744900  0.69516000  0.87249900  1
  S  S55  1  0.40127350  0.30059450  0.17011400  1
  S  S56  1  0.14480250  0.85721750  0.93749600  1
  S  S57  1  0.19744900  0.30484000  0.37249900  1
  S  S58  1  0.12696650  0.19198750  0.71353400  1
  S  S59  1  0.09872650  0.19940550  0.82988600  1
  S  S60  1  0.18010300  0.90938000  0.41926400  1
  S  S61  1  0.31989700  0.59062000  0.58073600  1
  S  S62  1  0.15941900  0.79767400  0.66525600  1
  S  S63  1  0.12944950  0.65029450  0.75648200  1
  S  S64  1  0.14480250  0.14278250  0.43749600  1
  S  S65  1  0.34058100  0.70232600  0.33474400  1
  S  S66  1  0.30255100  0.80484000  0.12750100  1
  S  S67  1  0.12696650  0.80801250  0.21353400  1
  S  S68  1  0.40127350  0.69940550  0.67011400  1
  S  S69  1  0.12944950  0.34970550  0.25648200  1
  S  S70  1  0.37055050  0.15029450  0.74351800  1
  S  S71  1  0.41763100  0.51626600  0.35071000  1
  F  F72  1  0.50610600  0.04715200  0.89377700  1
  F  F73  1  0.59723250  0.02984150  0.03176100  1
  F  F74  1  0.98501500  0.70951000  0.01885500  1
  F  F75  1  0.59723250  0.97015850  0.53176100  1
  F  F76  1  0.90276750  0.47015850  0.96823900  1
  F  F77  1  0.51498500  0.20951000  0.48114500  1
  F  F78  1  0.51498500  0.79049000  0.98114500  1
  F  F79  1  0.98501500  0.29049000  0.51885500  1
  F  F80  1  0.99389400  0.45284800  0.10622300  1
  F  F81  1  0.99389400  0.54715200  0.60622300  1
  F  F82  1  0.90276750  0.52984150  0.46823900  1
  F  F83  1  0.50610600  0.95284800  0.39377700  1
  F  F84  1  0.00610600  0.54715200  0.89377700  1
  F  F85  1  0.09723250  0.52984150  0.03176100  1
  F  F86  1  0.48501500  0.20951000  0.01885500  1
  F  F87  1  0.09723250  0.47015850  0.53176100  1
  F  F88  1  0.40276750  0.97015850  0.96823900  1
  F  F89  1  0.01498500  0.70951000  0.48114500  1
  F  F90  1  0.01498500  0.29049000  0.98114500  1
  F  F91  1  0.48501500  0.79049000  0.51885500  1
  F  F92  1  0.49389400  0.95284800  0.10622300  1
  F  F93  1  0.49389400  0.04715200  0.60622300  1
  F  F94  1  0.40276750  0.02984150  0.46823900  1
  F  F95  1  0.00610600  0.45284800  0.39377700  1
