# generated using pymatgen
data_AgBi(PSe3)2
_symmetry_space_group_name_H-M   'P 1'
_cell_length_a   6.75506955
_cell_length_b   6.75506955
_cell_length_c   43.02233094
_cell_angle_alpha   90.00000000
_cell_angle_beta   90.00000000
_cell_angle_gamma   120.00000000
_symmetry_Int_Tables_number   1
_chemical_formula_structural   AgBi(PSe3)2
_chemical_formula_sum   'Ag6 Bi6 P12 Se36'
_cell_volume   1700.13816900
_cell_formula_units_Z   6
loop_
 _symmetry_equiv_pos_site_id
 _symmetry_equiv_pos_as_xyz
  1  'x, y, z'
loop_
 _atom_site_type_symbol
 _atom_site_label
 _atom_site_symmetry_multiplicity
 _atom_site_fract_x
 _atom_site_fract_y
 _atom_site_fract_z
 _atom_site_occupancy
  Ag  Ag0  1  0.33333333  0.66666667  0.26080067  1
  Ag  Ag1  1  0.33333333  0.66666667  0.07253267  1
  Ag  Ag2  1  0.00000000  0.00000000  0.59413400  1
  Ag  Ag3  1  0.00000000  0.00000000  0.40586600  1
  Ag  Ag4  1  0.66666667  0.33333333  0.92746733  1
  Ag  Ag5  1  0.66666667  0.33333333  0.73919933  1
  Bi  Bi6  1  0.00000000  0.00000000  0.08736700  1
  Bi  Bi7  1  0.66666667  0.33333333  0.24596633  1
  Bi  Bi8  1  0.66666667  0.33333333  0.42070033  1
  Bi  Bi9  1  0.33333333  0.66666667  0.57929967  1
  Bi  Bi10  1  0.33333333  0.66666667  0.75403367  1
  Bi  Bi11  1  0.00000000  0.00000000  0.91263300  1
  P  P12  1  0.66666667  0.33333333  0.05751733  1
  P  P13  1  0.66666667  0.33333333  0.11070933  1
  P  P14  1  0.00000000  0.00000000  0.22262400  1
  P  P15  1  0.00000000  0.00000000  0.27581600  1
  P  P16  1  0.33333333  0.66666667  0.39085067  1
  P  P17  1  0.33333333  0.66666667  0.44404267  1
  P  P18  1  0.66666667  0.33333333  0.55595733  1
  P  P19  1  0.66666667  0.33333333  0.60914933  1
  P  P20  1  0.00000000  0.00000000  0.72418400  1
  P  P21  1  0.00000000  0.00000000  0.77737600  1
  P  P22  1  0.33333333  0.66666667  0.88929067  1
  P  P23  1  0.33333333  0.66666667  0.94248267  1
  Se  Se24  1  0.62685467  0.62614933  0.12472833  1
  Se  Se25  1  0.68898933  0.03332367  0.04109967  1
  Se  Se26  1  0.69999033  0.67766767  0.29223367  1
  Se  Se27  1  0.34433433  0.31101067  0.04109967  1
  Se  Se28  1  0.99929467  0.37314533  0.12472833  1
  Se  Se29  1  0.96667633  0.65566567  0.04109967  1
  Se  Se30  1  0.32233233  0.02232267  0.29223367  1
  Se  Se31  1  0.37385067  0.00070533  0.12472833  1
  Se  Se32  1  0.97767733  0.30000967  0.29223367  1
  Se  Se33  1  0.29281600  0.33262800  0.20860500  1
  Se  Se34  1  0.66737200  0.96018800  0.20860500  1
  Se  Se35  1  0.03981200  0.70718400  0.20860500  1
  Se  Se36  1  0.29352133  0.95948267  0.45806167  1
  Se  Se37  1  0.35565600  0.36665700  0.37443300  1
  Se  Se38  1  0.36665700  0.01100100  0.62556700  1
  Se  Se39  1  0.01100100  0.64434400  0.37443300  1
  Se  Se40  1  0.66596133  0.70647867  0.45806167  1
  Se  Se41  1  0.63334300  0.98899900  0.37443300  1
  Se  Se42  1  0.98899900  0.35565600  0.62556700  1
  Se  Se43  1  0.04051733  0.33403867  0.45806167  1
  Se  Se44  1  0.64434400  0.63334300  0.62556700  1
  Se  Se45  1  0.95948267  0.66596133  0.54193833  1
  Se  Se46  1  0.33403867  0.29352133  0.54193833  1
  Se  Se47  1  0.70647867  0.04051733  0.54193833  1
  Se  Se48  1  0.96018800  0.29281600  0.79139500  1
  Se  Se49  1  0.02232267  0.69999033  0.70776633  1
  Se  Se50  1  0.03332367  0.34433433  0.95890033  1
  Se  Se51  1  0.67766767  0.97767733  0.70776633  1
  Se  Se52  1  0.33262800  0.03981200  0.79139500  1
  Se  Se53  1  0.30000967  0.32233233  0.70776633  1
  Se  Se54  1  0.65566567  0.68898933  0.95890033  1
  Se  Se55  1  0.70718400  0.66737200  0.79139500  1
  Se  Se56  1  0.31101067  0.96667633  0.95890033  1
  Se  Se57  1  0.62614933  0.99929467  0.87527167  1
  Se  Se58  1  0.00070533  0.62685467  0.87527167  1
  Se  Se59  1  0.37314533  0.37385067  0.87527167  1
