# generated using pymatgen
data_Al(MoS2)4
_symmetry_space_group_name_H-M   'P 1'
_cell_length_a   6.97962427
_cell_length_b   6.97962427
_cell_length_c   16.83252117
_cell_angle_alpha   90.00000000
_cell_angle_beta   90.00000000
_cell_angle_gamma   120.00000000
_symmetry_Int_Tables_number   1
_chemical_formula_structural   Al(MoS2)4
_chemical_formula_sum   'Al3 Mo12 S24'
_cell_volume   710.13985868
_cell_formula_units_Z   3
loop_
 _symmetry_equiv_pos_site_id
 _symmetry_equiv_pos_as_xyz
  1  'x, y, z'
loop_
 _atom_site_type_symbol
 _atom_site_label
 _atom_site_symmetry_multiplicity
 _atom_site_fract_x
 _atom_site_fract_y
 _atom_site_fract_z
 _atom_site_occupancy
  Al  Al0  1  0.33333333  0.66666667  0.66423967  1
  Al  Al1  1  0.00000000  0.00000000  0.99757300  1
  Al  Al2  1  0.66666667  0.33333333  0.33090633  1
  Mo  Mo3  1  0.05741000  0.52870500  0.12940500  1
  Mo  Mo4  1  0.33333333  0.66666667  0.26180867  1
  Mo  Mo5  1  0.47129500  0.52870500  0.12940500  1
  Mo  Mo6  1  0.47129500  0.94259000  0.12940500  1
  Mo  Mo7  1  0.72407667  0.86203833  0.46273833  1
  Mo  Mo8  1  0.00000000  0.00000000  0.59514200  1
  Mo  Mo9  1  0.13796167  0.86203833  0.46273833  1
  Mo  Mo10  1  0.13796167  0.27592333  0.46273833  1
  Mo  Mo11  1  0.39074333  0.19537167  0.79607167  1
  Mo  Mo12  1  0.66666667  0.33333333  0.92847533  1
  Mo  Mo13  1  0.80462833  0.19537167  0.79607167  1
  Mo  Mo14  1  0.80462833  0.60925667  0.79607167  1
  S  S15  1  0.33333333  0.66666667  0.03150067  1
  S  S16  1  0.15362833  0.84637167  0.20615167  1
  S  S17  1  0.15362833  0.30725667  0.20615167  1
  S  S18  1  0.48663000  0.97326000  0.37338400  1
  S  S19  1  0.33333333  0.66666667  0.52829367  1
  S  S20  1  0.02674000  0.51337000  0.37338400  1
  S  S21  1  0.48663000  0.51337000  0.37338400  1
  S  S22  1  0.69274333  0.84637167  0.20615167  1
  S  S23  1  0.00000000  0.00000000  0.36483400  1
  S  S24  1  0.82029500  0.17970500  0.53948500  1
  S  S25  1  0.82029500  0.64059000  0.53948500  1
  S  S26  1  0.15329667  0.30659333  0.70671733  1
  S  S27  1  0.00000000  0.00000000  0.86162700  1
  S  S28  1  0.69340667  0.84670333  0.70671733  1
  S  S29  1  0.15329667  0.84670333  0.70671733  1
  S  S30  1  0.35941000  0.17970500  0.53948500  1
  S  S31  1  0.66666667  0.33333333  0.69816733  1
  S  S32  1  0.48696167  0.51303833  0.87281833  1
  S  S33  1  0.48696167  0.97392333  0.87281833  1
  S  S34  1  0.81996333  0.63992667  0.04005067  1
  S  S35  1  0.66666667  0.33333333  0.19496033  1
  S  S36  1  0.36007333  0.18003667  0.04005067  1
  S  S37  1  0.81996333  0.18003667  0.04005067  1
  S  S38  1  0.02607667  0.51303833  0.87281833  1
