# generated using pymatgen
data_CdSbS2Cl
_symmetry_space_group_name_H-M   'P 1'
_cell_length_a   3.94832200
_cell_length_b   9.74261100
_cell_length_c   12.71390900
_cell_angle_alpha   90.00000000
_cell_angle_beta   90.00000000
_cell_angle_gamma   90.00000000
_symmetry_Int_Tables_number   1
_chemical_formula_structural   CdSbS2Cl
_chemical_formula_sum   'Cd4 Sb4 S8 Cl4'
_cell_volume   489.06549695
_cell_formula_units_Z   4
loop_
 _symmetry_equiv_pos_site_id
 _symmetry_equiv_pos_as_xyz
  1  'x, y, z'
loop_
 _atom_site_type_symbol
 _atom_site_label
 _atom_site_symmetry_multiplicity
 _atom_site_fract_x
 _atom_site_fract_y
 _atom_site_fract_z
 _atom_site_occupancy
  Cd  Cd0  1  0.75000000  0.00042400  0.26933900  1
  Cd  Cd1  1  0.25000000  0.49957600  0.76933900  1
  Cd  Cd2  1  0.25000000  0.99957600  0.73066100  1
  Cd  Cd3  1  0.75000000  0.50042400  0.23066100  1
  Sb  Sb4  1  0.75000000  0.81679300  0.96729000  1
  Sb  Sb5  1  0.75000000  0.31679300  0.53271000  1
  Sb  Sb6  1  0.25000000  0.18320700  0.03271000  1
  Sb  Sb7  1  0.25000000  0.68320700  0.46729000  1
  S  S8  1  0.75000000  0.24035500  0.16597700  1
  S  S9  1  0.75000000  0.05173600  0.88948500  1
  S  S10  1  0.25000000  0.44826400  0.38948500  1
  S  S11  1  0.75000000  0.55173600  0.61051500  1
  S  S12  1  0.25000000  0.75964500  0.83402300  1
  S  S13  1  0.25000000  0.94826400  0.11051500  1
  S  S14  1  0.25000000  0.25964500  0.66597700  1
  S  S15  1  0.75000000  0.74035500  0.33402300  1
  Cl  Cl16  1  0.25000000  0.07281000  0.39378700  1
  Cl  Cl17  1  0.25000000  0.57281000  0.10621300  1
  Cl  Cl18  1  0.75000000  0.42719000  0.89378700  1
  Cl  Cl19  1  0.75000000  0.92719000  0.60621300  1
