# generated using pymatgen
data_Hg9(AsO4)4
_symmetry_space_group_name_H-M   'P 1'
_cell_length_a   17.15013530
_cell_length_b   17.15013530
_cell_length_c   11.13365293
_cell_angle_alpha   90.00000000
_cell_angle_beta   90.00000000
_cell_angle_gamma   120.00000000
_symmetry_Int_Tables_number   1
_chemical_formula_structural   Hg9(AsO4)4
_chemical_formula_sum   'Hg54 As24 O96'
_cell_volume   2835.98162076
_cell_formula_units_Z   6
loop_
 _symmetry_equiv_pos_site_id
 _symmetry_equiv_pos_as_xyz
  1  'x, y, z'
loop_
 _atom_site_type_symbol
 _atom_site_label
 _atom_site_symmetry_multiplicity
 _atom_site_fract_x
 _atom_site_fract_y
 _atom_site_fract_z
 _atom_site_occupancy
  Hg  Hg0  1  0.05725967  0.89333233  0.34529633  1
  Hg  Hg1  1  0.83607267  0.94274033  0.34529633  1
  Hg  Hg2  1  0.10666767  0.16392733  0.34529633  1
  Hg  Hg3  1  0.10666767  0.94274033  0.84529633  1
  Hg  Hg4  1  0.83607267  0.89333233  0.84529633  1
  Hg  Hg5  1  0.05725967  0.16392733  0.84529633  1
  Hg  Hg6  1  0.82626967  0.09673133  0.37057233  1
  Hg  Hg7  1  0.27046167  0.17373033  0.37057233  1
  Hg  Hg8  1  0.90326867  0.72953833  0.37057233  1
  Hg  Hg9  1  0.23660200  0.84039700  0.53723900  1
  Hg  Hg10  1  0.60379500  0.76339800  0.53723900  1
  Hg  Hg11  1  0.15960300  0.39620500  0.53723900  1
  Hg  Hg12  1  0.87607733  0.50920967  0.47538067  1
  Hg  Hg13  1  0.63313233  0.12392267  0.47538067  1
  Hg  Hg14  1  0.49079033  0.36686767  0.47538067  1
  Hg  Hg15  1  0.82412367  0.79058933  0.64204733  1
  Hg  Hg16  1  0.96646567  0.17587633  0.64204733  1
  Hg  Hg17  1  0.20941067  0.03353433  0.64204733  1
  Hg  Hg18  1  0.72392633  0.22666567  0.67862967  1
  Hg  Hg19  1  0.50273933  0.27607367  0.67862967  1
  Hg  Hg20  1  0.77333433  0.49726067  0.67862967  1
  Hg  Hg21  1  0.77333433  0.27607367  0.17862967  1
  Hg  Hg22  1  0.50273933  0.22666567  0.17862967  1
  Hg  Hg23  1  0.72392633  0.49726067  0.17862967  1
  Hg  Hg24  1  0.49293633  0.43006467  0.70390567  1
  Hg  Hg25  1  0.93712833  0.50706367  0.70390567  1
  Hg  Hg26  1  0.56993533  0.06287167  0.70390567  1
  Hg  Hg27  1  0.90326867  0.17373033  0.87057233  1
  Hg  Hg28  1  0.27046167  0.09673133  0.87057233  1
  Hg  Hg29  1  0.82626967  0.72953833  0.87057233  1
  Hg  Hg30  1  0.54274400  0.84254300  0.80871400  1
  Hg  Hg31  1  0.29979900  0.45725600  0.80871400  1
  Hg  Hg32  1  0.15745700  0.70020100  0.80871400  1
  Hg  Hg33  1  0.49079033  0.12392267  0.97538067  1
  Hg  Hg34  1  0.63313233  0.50920967  0.97538067  1
  Hg  Hg35  1  0.87607733  0.36686767  0.97538067  1
  Hg  Hg36  1  0.39059300  0.55999900  0.01196300  1
  Hg  Hg37  1  0.16940600  0.60940700  0.01196300  1
  Hg  Hg38  1  0.44000100  0.83059400  0.01196300  1
  Hg  Hg39  1  0.44000100  0.60940700  0.51196300  1
  Hg  Hg40  1  0.16940600  0.55999900  0.51196300  1
  Hg  Hg41  1  0.39059300  0.83059400  0.51196300  1
  Hg  Hg42  1  0.15960300  0.76339800  0.03723900  1
  Hg  Hg43  1  0.60379500  0.84039700  0.03723900  1
  Hg  Hg44  1  0.23660200  0.39620500  0.03723900  1
  Hg  Hg45  1  0.56993533  0.50706367  0.20390567  1
  Hg  Hg46  1  0.93712833  0.43006467  0.20390567  1
  Hg  Hg47  1  0.49293633  0.06287167  0.20390567  1
  Hg  Hg48  1  0.20941067  0.17587633  0.14204733  1
  Hg  Hg49  1  0.96646567  0.79058933  0.14204733  1
  Hg  Hg50  1  0.82412367  0.03353433  0.14204733  1
  Hg  Hg51  1  0.15745700  0.45725600  0.30871400  1
  Hg  Hg52  1  0.29979900  0.84254300  0.30871400  1
  Hg  Hg53  1  0.54274400  0.70020100  0.30871400  1
  As  As54  1  0.90526967  0.31262533  0.47749933  1
  As  As55  1  0.40735567  0.09473033  0.47749933  1
  As  As56  1  0.68737467  0.59264433  0.47749933  1
  As  As57  1  0.02070800  0.76139700  0.64416600  1
  As  As58  1  0.74068900  0.97929200  0.64416600  1
  As  As59  1  0.23860300  0.25931100  0.64416600  1
  As  As60  1  0.00000000  0.00000000  0.06255700  1
  As  As61  1  0.00000000  0.00000000  0.56255700  1
  As  As62  1  0.57193633  0.64595867  0.81083267  1
  As  As63  1  0.07402233  0.42806367  0.81083267  1
  As  As64  1  0.35404133  0.92597767  0.81083267  1
  As  As65  1  0.68737467  0.09473033  0.97749933  1
  As  As66  1  0.40735567  0.31262533  0.97749933  1
  As  As67  1  0.90526967  0.59264433  0.97749933  1
  As  As68  1  0.66666667  0.33333333  0.39589033  1
  As  As69  1  0.66666667  0.33333333  0.89589033  1
  As  As70  1  0.23860300  0.97929200  0.14416600  1
  As  As71  1  0.74068900  0.76139700  0.14416600  1
  As  As72  1  0.02070800  0.25931100  0.14416600  1
  As  As73  1  0.35404133  0.42806367  0.31083267  1
  As  As74  1  0.07402233  0.64595867  0.31083267  1
  As  As75  1  0.57193633  0.92597767  0.31083267  1
  As  As76  1  0.33333333  0.66666667  0.72922367  1
  As  As77  1  0.33333333  0.66666667  0.22922367  1
  O  O78  1  0.42970067  0.75728333  0.66649533  1
  O  O79  1  0.32758267  0.57029933  0.66649533  1
  O  O80  1  0.24271667  0.67241733  0.66649533  1
  O  O81  1  0.90938333  0.90363267  0.49982867  1
  O  O82  1  0.99424933  0.09061667  0.49982867  1
  O  O83  1  0.09636733  0.00575067  0.49982867  1
  O  O84  1  0.82821000  0.22979900  0.38084200  1
  O  O85  1  0.40158900  0.17179000  0.38084200  1
  O  O86  1  0.77020100  0.59841100  0.38084200  1
  O  O87  1  0.10353433  0.83845667  0.54750867  1
  O  O88  1  0.73492233  0.89646567  0.54750867  1
  O  O89  1  0.16154333  0.26507767  0.54750867  1
  O  O90  1  0.19044000  0.99202500  0.27296900  1
  O  O91  1  0.80158500  0.80956000  0.27296900  1
  O  O92  1  0.00797500  0.19841500  0.27296900  1
  O  O93  1  0.00797500  0.80956000  0.77296900  1
  O  O94  1  0.80158500  0.99202500  0.77296900  1
  O  O95  1  0.19044000  0.19841500  0.77296900  1
  O  O96  1  0.61905433  0.75132767  0.74275767  1
  O  O97  1  0.13227333  0.38094567  0.74275767  1
  O  O98  1  0.24867233  0.86772667  0.74275767  1
  O  O99  1  0.91533900  0.71427900  0.57609100  1
  O  O100  1  0.79894000  0.08466100  0.57609100  1
  O  O101  1  0.28572100  0.20106000  0.57609100  1
  O  O102  1  0.96549133  0.62054067  0.34532567  1
  O  O103  1  0.65504933  0.03450867  0.34532567  1
  O  O104  1  0.37945933  0.34495067  0.34532567  1
  O  O105  1  0.71279267  0.70117533  0.51199233  1
  O  O106  1  0.98838267  0.28720733  0.51199233  1
  O  O107  1  0.29882467  0.01161733  0.51199233  1
  O  O108  1  0.00000000  0.00000000  0.21480700  1
  O  O109  1  0.00000000  0.00000000  0.71480700  1
  O  O110  1  0.09636733  0.09061667  0.99982867  1
  O  O111  1  0.99424933  0.90363267  0.99982867  1
  O  O112  1  0.90938333  0.00575067  0.99982867  1
  O  O113  1  0.57605000  0.23696600  0.83316200  1
  O  O114  1  0.66091600  0.42395000  0.83316200  1
  O  O115  1  0.76303400  0.33908400  0.83316200  1
  O  O116  1  0.49487667  0.56313233  0.71417533  1
  O  O117  1  0.06825567  0.50512333  0.71417533  1
  O  O118  1  0.43686767  0.93174433  0.71417533  1
  O  O119  1  0.77020100  0.17179000  0.88084200  1
  O  O120  1  0.40158900  0.22979900  0.88084200  1
  O  O121  1  0.82821000  0.59841100  0.88084200  1
  O  O122  1  0.85710667  0.32535833  0.60630233  1
  O  O123  1  0.46825167  0.14289333  0.60630233  1
  O  O124  1  0.67464167  0.53174833  0.60630233  1
  O  O125  1  0.67464167  0.14289333  0.10630233  1
  O  O126  1  0.46825167  0.32535833  0.10630233  1
  O  O127  1  0.85710667  0.53174833  0.10630233  1
  O  O128  1  0.28572100  0.08466100  0.07609100  1
  O  O129  1  0.79894000  0.71427900  0.07609100  1
  O  O130  1  0.91533900  0.20106000  0.07609100  1
  O  O131  1  0.58200567  0.04761233  0.90942433  1
  O  O132  1  0.46560667  0.41799433  0.90942433  1
  O  O133  1  0.95238767  0.53439333  0.90942433  1
  O  O134  1  0.63215800  0.95387400  0.67865900  1
  O  O135  1  0.32171600  0.36784200  0.67865900  1
  O  O136  1  0.04612600  0.67828400  0.67865900  1
  O  O137  1  0.37945933  0.03450867  0.84532567  1
  O  O138  1  0.65504933  0.62054067  0.84532567  1
  O  O139  1  0.96549133  0.34495067  0.84532567  1
  O  O140  1  0.66666667  0.33333333  0.54814033  1
  O  O141  1  0.66666667  0.33333333  0.04814033  1
  O  O142  1  0.76303400  0.42395000  0.33316200  1
  O  O143  1  0.66091600  0.23696600  0.33316200  1
  O  O144  1  0.57605000  0.33908400  0.33316200  1
  O  O145  1  0.24271667  0.57029933  0.16649533  1
  O  O146  1  0.32758267  0.75728333  0.16649533  1
  O  O147  1  0.42970067  0.67241733  0.16649533  1
  O  O148  1  0.16154333  0.89646567  0.04750867  1
  O  O149  1  0.73492233  0.83845667  0.04750867  1
  O  O150  1  0.10353433  0.26507767  0.04750867  1
  O  O151  1  0.43686767  0.50512333  0.21417533  1
  O  O152  1  0.06825567  0.56313233  0.21417533  1
  O  O153  1  0.49487667  0.93174433  0.21417533  1
  O  O154  1  0.52377333  0.65869167  0.93963567  1
  O  O155  1  0.13491833  0.47622667  0.93963567  1
  O  O156  1  0.34130833  0.86508167  0.93963567  1
  O  O157  1  0.34130833  0.47622667  0.43963567  1
  O  O158  1  0.13491833  0.65869167  0.43963567  1
  O  O159  1  0.52377333  0.86508167  0.43963567  1
  O  O160  1  0.95238767  0.41799433  0.40942433  1
  O  O161  1  0.46560667  0.04761233  0.40942433  1
  O  O162  1  0.58200567  0.53439333  0.40942433  1
  O  O163  1  0.24867233  0.38094567  0.24275767  1
  O  O164  1  0.13227333  0.75132767  0.24275767  1
  O  O165  1  0.61905433  0.86772667  0.24275767  1
  O  O166  1  0.29882467  0.28720733  0.01199233  1
  O  O167  1  0.98838267  0.70117533  0.01199233  1
  O  O168  1  0.71279267  0.01161733  0.01199233  1
  O  O169  1  0.04612600  0.36784200  0.17865900  1
  O  O170  1  0.32171600  0.95387400  0.17865900  1
  O  O171  1  0.63215800  0.67828400  0.17865900  1
  O  O172  1  0.33333333  0.66666667  0.88147367  1
  O  O173  1  0.33333333  0.66666667  0.38147367  1
