# generated using pymatgen
data_SiO2
_symmetry_space_group_name_H-M   'P 1'
_cell_length_a   13.92061976
_cell_length_b   13.92061976
_cell_length_c   41.95766908
_cell_angle_alpha   90.00000000
_cell_angle_beta   90.00000000
_cell_angle_gamma   120.00000000
_symmetry_Int_Tables_number   1
_chemical_formula_structural   SiO2
_chemical_formula_sum   'Si120 O240'
_cell_volume   7041.40179922
_cell_formula_units_Z   120
loop_
 _symmetry_equiv_pos_site_id
 _symmetry_equiv_pos_as_xyz
  1  'x, y, z'
loop_
 _atom_site_type_symbol
 _atom_site_label
 _atom_site_symmetry_multiplicity
 _atom_site_fract_x
 _atom_site_fract_y
 _atom_site_fract_z
 _atom_site_occupancy
  Si  Si0  1  0.54583000  0.45128500  0.22412700  1
  Si  Si1  1  0.74418833  0.05962567  0.06921367  1
  Si  Si2  1  0.70517667  0.66757533  0.06764833  1
  Si  Si3  1  0.96239867  0.29482333  0.06764833  1
  Si  Si4  1  0.67826600  0.56808200  0.33323300  1
  Si  Si5  1  0.96149000  0.66575800  0.26568500  1
  Si  Si6  1  0.00000000  0.00000000  0.21359400  1
  Si  Si7  1  0.44994567  0.93185533  0.16566833  1
  Si  Si8  1  0.12083667  0.88204833  0.10920633  1
  Si  Si9  1  0.35122933  0.07752167  0.26411967  1
  Si  Si10  1  0.90545500  0.45417000  0.22412700  1
  Si  Si11  1  0.88981600  0.32173400  0.33323300  1
  Si  Si12  1  0.33424200  0.29573200  0.26568500  1
  Si  Si13  1  0.59852200  0.81524300  0.16766500  1
  Si  Si14  1  0.11795167  0.23878833  0.10920633  1
  Si  Si15  1  0.94037433  0.68456267  0.06921367  1
  Si  Si16  1  0.48190967  0.55005433  0.16566833  1
  Si  Si17  1  0.92544367  0.47199733  0.10091733  1
  Si  Si18  1  0.92247833  0.27370767  0.26411967  1
  Si  Si19  1  0.43191800  0.11018400  0.33323300  1
  Si  Si20  1  0.98840067  0.76525133  0.00010033  1
  Si  Si21  1  0.13866400  0.87988700  0.23241600  1
  Si  Si22  1  0.66666667  0.33333333  0.11973933  1
  Si  Si23  1  0.54871500  0.09454500  0.22412700  1
  Si  Si24  1  0.66666667  0.33333333  0.19648533  1
  Si  Si25  1  0.77685067  0.01159933  0.00010033  1
  Si  Si26  1  0.33242467  0.03760133  0.06764833  1
  Si  Si27  1  0.18475700  0.78327900  0.16766500  1
  Si  Si28  1  0.70426800  0.03851000  0.26568500  1
  Si  Si29  1  0.31543733  0.25581167  0.06921367  1
  Si  Si30  1  0.76121167  0.87916333  0.10920633  1
  Si  Si31  1  0.72629233  0.64877067  0.26411967  1
  Si  Si32  1  0.06814467  0.51809033  0.16566833  1
  Si  Si33  1  0.12011300  0.25877700  0.23241600  1
  Si  Si34  1  0.54655367  0.07455633  0.10091733  1
  Si  Si35  1  0.74122300  0.86133600  0.23241600  1
  Si  Si36  1  0.52800267  0.45344633  0.10091733  1
  Si  Si37  1  0.23474867  0.22314933  0.00010033  1
  Si  Si38  1  0.21672100  0.40147800  0.16766500  1
  Si  Si39  1  0.00000000  0.00000000  0.13684800  1
  Si  Si40  1  0.21249667  0.78461833  0.55746033  1
  Si  Si41  1  0.41085500  0.39295900  0.40254700  1
  Si  Si42  1  0.37184333  0.00090867  0.40098167  1
  Si  Si43  1  0.62906533  0.62815667  0.40098167  1
  Si  Si44  1  0.34493267  0.90141533  0.66656633  1
  Si  Si45  1  0.62815667  0.99909133  0.59901833  1
  Si  Si46  1  0.66666667  0.33333333  0.54692733  1
  Si  Si47  1  0.11661233  0.26518867  0.49900167  1
  Si  Si48  1  0.78750333  0.21538167  0.44253967  1
  Si  Si49  1  0.01789600  0.41085500  0.59745300  1
  Si  Si50  1  0.57212167  0.78750333  0.55746033  1
  Si  Si51  1  0.55648267  0.65506733  0.66656633  1
  Si  Si52  1  0.00090867  0.62906533  0.59901833  1
  Si  Si53  1  0.26518867  0.14857633  0.50099833  1
  Si  Si54  1  0.78461833  0.57212167  0.44253967  1
  Si  Si55  1  0.60704100  0.01789600  0.40254700  1
  Si  Si56  1  0.14857633  0.88338767  0.49900167  1
  Si  Si57  1  0.59211033  0.80533067  0.43425067  1
  Si  Si58  1  0.58914500  0.60704100  0.59745300  1
  Si  Si59  1  0.09858467  0.44351733  0.66656633  1
  Si  Si60  1  0.65506733  0.09858467  0.33343367  1
  Si  Si61  1  0.80533067  0.21322033  0.56574933  1
  Si  Si62  1  0.33333333  0.66666667  0.45307267  1
  Si  Si63  1  0.21538167  0.42787833  0.55746033  1
  Si  Si64  1  0.33333333  0.66666667  0.52981867  1
  Si  Si65  1  0.44351733  0.34493267  0.33343367  1
  Si  Si66  1  0.99909133  0.37093467  0.40098167  1
  Si  Si67  1  0.85142367  0.11661233  0.50099833  1
  Si  Si68  1  0.37093467  0.37184333  0.59901833  1
  Si  Si69  1  0.98210400  0.58914500  0.40254700  1
  Si  Si70  1  0.42787833  0.21249667  0.44253967  1
  Si  Si71  1  0.39295900  0.98210400  0.59745300  1
  Si  Si72  1  0.73481133  0.85142367  0.49900167  1
  Si  Si73  1  0.78677967  0.59211033  0.56574933  1
  Si  Si74  1  0.21322033  0.40788967  0.43425067  1
  Si  Si75  1  0.40788967  0.19466933  0.56574933  1
  Si  Si76  1  0.19466933  0.78677967  0.43425067  1
  Si  Si77  1  0.90141533  0.55648267  0.33343367  1
  Si  Si78  1  0.88338767  0.73481133  0.50099833  1
  Si  Si79  1  0.66666667  0.33333333  0.47018133  1
  Si  Si80  1  0.87916333  0.11795167  0.89079367  1
  Si  Si81  1  0.07752167  0.72629233  0.73588033  1
  Si  Si82  1  0.03851000  0.33424200  0.73431500  1
  Si  Si83  1  0.29573200  0.96149000  0.73431500  1
  Si  Si84  1  0.01159933  0.23474867  0.99989967  1
  Si  Si85  1  0.29482333  0.33242467  0.93235167  1
  Si  Si86  1  0.33333333  0.66666667  0.88026067  1
  Si  Si87  1  0.78327900  0.59852200  0.83233500  1
  Si  Si88  1  0.45417000  0.54871500  0.77587300  1
  Si  Si89  1  0.68456267  0.74418833  0.93078633  1
  Si  Si90  1  0.23878833  0.12083667  0.89079367  1
  Si  Si91  1  0.22314933  0.98840067  0.99989967  1
  Si  Si92  1  0.66757533  0.96239867  0.93235167  1
  Si  Si93  1  0.93185533  0.48190967  0.83433167  1
  Si  Si94  1  0.45128500  0.90545500  0.77587300  1
  Si  Si95  1  0.27370767  0.35122933  0.73588033  1
  Si  Si96  1  0.81524300  0.21672100  0.83233500  1
  Si  Si97  1  0.25877700  0.13866400  0.76758400  1
  Si  Si98  1  0.25581167  0.94037433  0.93078633  1
  Si  Si99  1  0.76525133  0.77685067  0.99989967  1
  Si  Si100  1  0.32173400  0.43191800  0.66676700  1
  Si  Si101  1  0.47199733  0.54655367  0.89908267  1
  Si  Si102  1  0.00000000  0.00000000  0.78640600  1
  Si  Si103  1  0.88204833  0.76121167  0.89079367  1
  Si  Si104  1  0.00000000  0.00000000  0.86315200  1
  Si  Si105  1  0.11018400  0.67826600  0.66676700  1
  Si  Si106  1  0.66575800  0.70426800  0.73431500  1
  Si  Si107  1  0.51809033  0.44994567  0.83433167  1
  Si  Si108  1  0.03760133  0.70517667  0.93235167  1
  Si  Si109  1  0.64877067  0.92247833  0.73588033  1
  Si  Si110  1  0.09454500  0.54583000  0.77587300  1
  Si  Si111  1  0.05962567  0.31543733  0.93078633  1
  Si  Si112  1  0.40147800  0.18475700  0.83233500  1
  Si  Si113  1  0.45344633  0.92544367  0.89908267  1
  Si  Si114  1  0.87988700  0.74122300  0.76758400  1
  Si  Si115  1  0.07455633  0.52800267  0.89908267  1
  Si  Si116  1  0.86133600  0.12011300  0.76758400  1
  Si  Si117  1  0.56808200  0.88981600  0.66676700  1
  Si  Si118  1  0.55005433  0.06814467  0.83433167  1
  Si  Si119  1  0.33333333  0.66666667  0.80351467  1
  O  O120  1  0.44913733  0.04247967  0.07475467  1
  O  O121  1  0.70914633  0.92667567  0.25857867  1
  O  O122  1  0.70465367  0.73976833  0.24674433  1
  O  O123  1  0.72115233  0.03425567  0.03121367  1
  O  O124  1  0.09896633  0.88485167  0.00565867  1
  O  O125  1  0.07332433  0.78247067  0.25857867  1
  O  O126  1  0.59573567  0.38860133  0.10697833  1
  O  O127  1  0.47294133  0.11691767  0.24906567  1
  O  O128  1  0.66666667  0.33333333  0.15814733  1
  O  O129  1  0.00000000  0.00000000  0.17518600  1
  O  O130  1  0.03511467  0.29534633  0.24674433  1
  O  O131  1  0.57094400  0.35835600  0.20909200  1
  O  O132  1  0.13817633  0.65124767  0.17087067  1
  O  O133  1  0.67815733  0.87435467  0.13706367  1
  O  O134  1  0.02502267  0.12074533  0.12424133  1
  O  O135  1  0.81272867  0.65415933  0.07481533  1
  O  O136  1  0.94551433  0.29907767  0.30211967  1
  O  O137  1  0.84143067  0.18727133  0.07481533  1
  O  O138  1  0.78358433  0.97730967  0.08426767  1
  O  O139  1  0.70585367  0.76100133  0.09092933  1
  O  O140  1  0.95752033  0.40665767  0.07475467  1
  O  O141  1  0.19372533  0.21641567  0.08426767  1
  O  O142  1  0.12564533  0.80380267  0.13706367  1
  O  O143  1  0.85393800  0.67917400  0.25851800  1
  O  O144  1  0.05514767  0.29414633  0.09092933  1
  O  O145  1  0.21752933  0.29085367  0.25857867  1
  O  O146  1  0.15288000  0.82796200  0.19936600  1
  O  O147  1  0.96403300  0.63387000  0.30280100  1
  O  O148  1  0.15359533  0.47150967  0.16246267  1
  O  O149  1  0.67508200  0.84712000  0.19936600  1
  O  O150  1  0.34875233  0.48692867  0.17087067  1
  O  O151  1  0.56770033  0.44848167  0.32767467  1
  O  O152  1  0.17203800  0.32491800  0.19936600  1
  O  O153  1  0.51307133  0.86182367  0.17087067  1
  O  O154  1  0.79286567  0.40426433  0.10697833  1
  O  O155  1  0.54102133  0.52953067  0.19626967  1
  O  O156  1  0.66983700  0.03596700  0.30280100  1
  O  O157  1  0.05526800  0.12619900  0.22635500  1
  O  O158  1  0.96201300  0.59356500  0.08658900  1
  O  O159  1  0.40643500  0.36844800  0.08658900  1
  O  O160  1  0.26023167  0.96488533  0.24674433  1
  O  O161  1  0.51378667  0.50537133  0.13396733  1
  O  O162  1  0.88078133  0.43229967  0.32767467  1
  O  O163  1  0.30053667  0.00317033  0.03053233  1
  O  O164  1  0.99158467  0.48621333  0.13396733  1
  O  O165  1  0.96081300  0.57233200  0.24240400  1
  O  O166  1  0.82523600  0.14606200  0.25851800  1
  O  O167  1  0.78741200  0.42905600  0.20909200  1
  O  O168  1  0.02269033  0.80627467  0.08426767  1
  O  O169  1  0.70263367  0.69946333  0.03053233  1
  O  O170  1  0.64397633  0.52705867  0.24906567  1
  O  O171  1  0.61151900  0.03918700  0.24240400  1
  O  O172  1  0.49462867  0.00841533  0.13396733  1
  O  O173  1  0.47046933  0.01149067  0.19626967  1
  O  O174  1  0.99682967  0.29736633  0.03053233  1
  O  O175  1  0.42766800  0.38848100  0.24240400  1
  O  O176  1  0.70092233  0.64643667  0.30211967  1
  O  O177  1  0.88308233  0.35602367  0.24906567  1
  O  O178  1  0.09572267  0.97497733  0.12424133  1
  O  O179  1  0.11514833  0.21411467  0.00565867  1
  O  O180  1  0.61139867  0.20713433  0.10697833  1
  O  O181  1  0.98850933  0.45897867  0.19626967  1
  O  O182  1  0.59334233  0.55086267  0.07475467  1
  O  O183  1  0.63155200  0.03798700  0.08658900  1
  O  O184  1  0.23899867  0.94485233  0.09092933  1
  O  O185  1  0.52849033  0.68208567  0.16246267  1
  O  O186  1  0.87925467  0.90427733  0.12424133  1
  O  O187  1  0.35356333  0.05448567  0.30211967  1
  O  O188  1  0.36613000  0.33016300  0.30280100  1
  O  O189  1  0.32082600  0.17476400  0.25851800  1
  O  O190  1  0.07093100  0.94473200  0.22635500  1
  O  O191  1  0.19619733  0.32184267  0.13706367  1
  O  O192  1  0.64164400  0.21258800  0.20909200  1
  O  O193  1  0.34584067  0.15856933  0.07481533  1
  O  O194  1  0.96574433  0.68689667  0.03121367  1
  O  O195  1  0.31310333  0.27884767  0.03121367  1
  O  O196  1  0.87380100  0.92906900  0.22635500  1
  O  O197  1  0.55151833  0.11921867  0.32767467  1
  O  O198  1  0.78588533  0.90103367  0.00565867  1
  O  O199  1  0.31791433  0.84640467  0.16246267  1
  O  O200  1  0.11580400  0.37581300  0.40808800  1
  O  O201  1  0.37581300  0.26000900  0.59191200  1
  O  O202  1  0.37132033  0.07310167  0.58007767  1
  O  O203  1  0.38781900  0.36758900  0.36454700  1
  O  O204  1  0.76563300  0.21818500  0.33899200  1
  O  O205  1  0.73999100  0.11580400  0.59191200  1
  O  O206  1  0.26240233  0.72193467  0.44031167  1
  O  O207  1  0.13960800  0.45025100  0.58239900  1
  O  O208  1  0.33333333  0.66666667  0.49148067  1
  O  O209  1  0.66666667  0.33333333  0.50851933  1
  O  O210  1  0.70178133  0.62867967  0.58007767  1
  O  O211  1  0.23761067  0.69168933  0.54242533  1
  O  O212  1  0.80484300  0.98458100  0.50420400  1
  O  O213  1  0.34482400  0.20768800  0.47039700  1
  O  O214  1  0.69168933  0.45407867  0.45757467  1
  O  O215  1  0.47939533  0.98749267  0.40814867  1
  O  O216  1  0.61218100  0.63241100  0.63545300  1
  O  O217  1  0.50809733  0.52060467  0.40814867  1
  O  O218  1  0.45025100  0.31064300  0.41760100  1
  O  O219  1  0.37252033  0.09433467  0.42426267  1
  O  O220  1  0.62418700  0.73999100  0.40808800  1
  O  O221  1  0.86039200  0.54974900  0.41760100  1
  O  O222  1  0.79231200  0.13713600  0.47039700  1
  O  O223  1  0.52060467  0.01250733  0.59185133  1
  O  O224  1  0.72181433  0.62747967  0.42426267  1
  O  O225  1  0.88419600  0.62418700  0.59191200  1
  O  O226  1  0.81954667  0.16129533  0.53269933  1
  O  O227  1  0.63069967  0.96720333  0.63613433  1
  O  O228  1  0.82026200  0.80484300  0.49579600  1
  O  O229  1  0.34174867  0.18045333  0.53269933  1
  O  O230  1  0.01541900  0.82026200  0.50420400  1
  O  O231  1  0.23436700  0.78181500  0.66100800  1
  O  O232  1  0.83870467  0.65825133  0.53269933  1
  O  O233  1  0.17973800  0.19515700  0.50420400  1
  O  O234  1  0.45953233  0.73759767  0.44031167  1
  O  O235  1  0.20768800  0.86286400  0.52960300  1
  O  O236  1  0.33650367  0.36930033  0.63613433  1
  O  O237  1  0.72193467  0.45953233  0.55968833  1
  O  O238  1  0.62867967  0.92689833  0.41992233  1
  O  O239  1  0.07310167  0.70178133  0.41992233  1
  O  O240  1  0.92689833  0.29821867  0.58007767  1
  O  O241  1  0.18045333  0.83870467  0.46730067  1
  O  O242  1  0.54744800  0.76563300  0.66100800  1
  O  O243  1  0.96720333  0.33650367  0.36386567  1
  O  O244  1  0.65825133  0.81954667  0.46730067  1
  O  O245  1  0.62747967  0.90566533  0.57573733  1
  O  O246  1  0.49190267  0.47939533  0.59185133  1
  O  O247  1  0.45407867  0.76238933  0.54242533  1
  O  O248  1  0.68935700  0.13960800  0.41760100  1
  O  O249  1  0.36930033  0.03279667  0.36386567  1
  O  O250  1  0.31064300  0.86039200  0.58239900  1
  O  O251  1  0.27818567  0.37252033  0.57573733  1
  O  O252  1  0.16129533  0.34174867  0.46730067  1
  O  O253  1  0.13713600  0.34482400  0.52960300  1
  O  O254  1  0.66349633  0.63069967  0.36386567  1
  O  O255  1  0.09433467  0.72181433  0.57573733  1
  O  O256  1  0.36758900  0.97977000  0.63545300  1
  O  O257  1  0.54974900  0.68935700  0.58239900  1
  O  O258  1  0.76238933  0.30831067  0.45757467  1
  O  O259  1  0.78181500  0.54744800  0.33899200  1
  O  O260  1  0.27806533  0.54046767  0.44031167  1
  O  O261  1  0.65517600  0.79231200  0.52960300  1
  O  O262  1  0.26000900  0.88419600  0.40808800  1
  O  O263  1  0.29821867  0.37132033  0.41992233  1
  O  O264  1  0.90566533  0.27818567  0.42426267  1
  O  O265  1  0.19515700  0.01541900  0.49579600  1
  O  O266  1  0.54592133  0.23761067  0.45757467  1
  O  O267  1  0.02023000  0.38781900  0.63545300  1
  O  O268  1  0.03279667  0.66349633  0.63613433  1
  O  O269  1  0.98749267  0.50809733  0.59185133  1
  O  O270  1  0.73759767  0.27806533  0.55968833  1
  O  O271  1  0.86286400  0.65517600  0.47039700  1
  O  O272  1  0.30831067  0.54592133  0.54242533  1
  O  O273  1  0.01250733  0.49190267  0.40814867  1
  O  O274  1  0.63241100  0.02023000  0.36454700  1
  O  O275  1  0.97977000  0.61218100  0.36454700  1
  O  O276  1  0.54046767  0.26240233  0.55968833  1
  O  O277  1  0.21818500  0.45255200  0.66100800  1
  O  O278  1  0.45255200  0.23436700  0.33899200  1
  O  O279  1  0.98458100  0.17973800  0.49579600  1
  O  O280  1  0.78247067  0.70914633  0.74142133  1
  O  O281  1  0.04247967  0.59334233  0.92524533  1
  O  O282  1  0.03798700  0.40643500  0.91341100  1
  O  O283  1  0.05448567  0.70092233  0.69788033  1
  O  O284  1  0.43229967  0.55151833  0.67232533  1
  O  O285  1  0.40665767  0.44913733  0.92524533  1
  O  O286  1  0.92906900  0.05526800  0.77364500  1
  O  O287  1  0.80627467  0.78358433  0.91573233  1
  O  O288  1  0.00000000  0.00000000  0.82481400  1
  O  O289  1  0.33333333  0.66666667  0.84185267  1
  O  O290  1  0.36844800  0.96201300  0.91341100  1
  O  O291  1  0.90427733  0.02502267  0.87575867  1
  O  O292  1  0.47150967  0.31791433  0.83753733  1
  O  O293  1  0.01149067  0.54102133  0.80373033  1
  O  O294  1  0.35835600  0.78741200  0.79090800  1
  O  O295  1  0.14606200  0.32082600  0.74148200  1
  O  O296  1  0.27884767  0.96574433  0.96878633  1
  O  O297  1  0.17476400  0.85393800  0.74148200  1
  O  O298  1  0.11691767  0.64397633  0.75093433  1
  O  O299  1  0.03918700  0.42766800  0.75759600  1
  O  O300  1  0.29085367  0.07332433  0.74142133  1
  O  O301  1  0.52705867  0.88308233  0.75093433  1
  O  O302  1  0.45897867  0.47046933  0.80373033  1
  O  O303  1  0.18727133  0.34584067  0.92518467  1
  O  O304  1  0.38848100  0.96081300  0.75759600  1
  O  O305  1  0.55086267  0.95752033  0.92524533  1
  O  O306  1  0.48621333  0.49462867  0.86603267  1
  O  O307  1  0.29736633  0.30053667  0.96946767  1
  O  O308  1  0.48692867  0.13817633  0.82912933  1
  O  O309  1  0.00841533  0.51378667  0.86603267  1
  O  O310  1  0.68208567  0.15359533  0.83753733  1
  O  O311  1  0.90103367  0.11514833  0.99434133  1
  O  O312  1  0.50537133  0.99158467  0.86603267  1
  O  O313  1  0.84640467  0.52849033  0.83753733  1
  O  O314  1  0.12619900  0.07093100  0.77364500  1
  O  O315  1  0.87435467  0.19619733  0.86293633  1
  O  O316  1  0.00317033  0.70263367  0.96946767  1
  O  O317  1  0.38860133  0.79286567  0.89302167  1
  O  O318  1  0.29534633  0.26023167  0.75325567  1
  O  O319  1  0.73976833  0.03511467  0.75325567  1
  O  O320  1  0.59356500  0.63155200  0.91341100  1
  O  O321  1  0.84712000  0.17203800  0.80063400  1
  O  O322  1  0.21411467  0.09896633  0.99434133  1
  O  O323  1  0.63387000  0.66983700  0.69719900  1
  O  O324  1  0.32491800  0.15288000  0.80063400  1
  O  O325  1  0.29414633  0.23899867  0.90907067  1
  O  O326  1  0.15856933  0.81272867  0.92518467  1
  O  O327  1  0.12074533  0.09572267  0.87575867  1
  O  O328  1  0.35602367  0.47294133  0.75093433  1
  O  O329  1  0.03596700  0.36613000  0.69719900  1
  O  O330  1  0.97730967  0.19372533  0.91573233  1
  O  O331  1  0.94485233  0.70585367  0.90907067  1
  O  O332  1  0.82796200  0.67508200  0.80063400  1
  O  O333  1  0.80380267  0.67815733  0.86293633  1
  O  O334  1  0.33016300  0.96403300  0.69719900  1
  O  O335  1  0.76100133  0.05514767  0.90907067  1
  O  O336  1  0.03425567  0.31310333  0.96878633  1
  O  O337  1  0.21641567  0.02269033  0.91573233  1
  O  O338  1  0.42905600  0.64164400  0.79090800  1
  O  O339  1  0.44848167  0.88078133  0.67232533  1
  O  O340  1  0.94473200  0.87380100  0.77364500  1
  O  O341  1  0.32184267  0.12564533  0.86293633  1
  O  O342  1  0.92667567  0.21752933  0.74142133  1
  O  O343  1  0.96488533  0.70465367  0.75325567  1
  O  O344  1  0.57233200  0.61151900  0.75759600  1
  O  O345  1  0.86182367  0.34875233  0.82912933  1
  O  O346  1  0.21258800  0.57094400  0.79090800  1
  O  O347  1  0.68689667  0.72115233  0.96878633  1
  O  O348  1  0.69946333  0.99682967  0.96946767  1
  O  O349  1  0.65415933  0.84143067  0.92518467  1
  O  O350  1  0.40426433  0.61139867  0.89302167  1
  O  O351  1  0.52953067  0.98850933  0.80373033  1
  O  O352  1  0.97497733  0.87925467  0.87575867  1
  O  O353  1  0.67917400  0.82523600  0.74148200  1
  O  O354  1  0.29907767  0.35356333  0.69788033  1
  O  O355  1  0.64643667  0.94551433  0.69788033  1
  O  O356  1  0.20713433  0.59573567  0.89302167  1
  O  O357  1  0.88485167  0.78588533  0.99434133  1
  O  O358  1  0.11921867  0.56770033  0.67232533  1
  O  O359  1  0.65124767  0.51307133  0.82912933  1
