# generated using pymatgen
data_Au2Se3O10
_symmetry_space_group_name_H-M   'P 1'
_cell_length_a   6.40896400
_cell_length_b   17.44625800
_cell_length_c   8.86195600
_cell_angle_alpha   90.00000000
_cell_angle_beta   90.00000000
_cell_angle_gamma   90.00000000
_symmetry_Int_Tables_number   1
_chemical_formula_structural   Au2Se3O10
_chemical_formula_sum   'Au8 Se12 O40'
_cell_volume   990.87691872
_cell_formula_units_Z   4
loop_
 _symmetry_equiv_pos_site_id
 _symmetry_equiv_pos_as_xyz
  1  'x, y, z'
loop_
 _atom_site_type_symbol
 _atom_site_label
 _atom_site_symmetry_multiplicity
 _atom_site_fract_x
 _atom_site_fract_y
 _atom_site_fract_z
 _atom_site_occupancy
  Au  Au0  1  0.02371400  0.65827500  0.81665800  1
  Au  Au1  1  0.47628600  0.84172500  0.31665800  1
  Au  Au2  1  0.97628600  0.65827500  0.31665800  1
  Au  Au3  1  0.52371400  0.84172500  0.81665800  1
  Au  Au4  1  0.52371400  0.15827500  0.81665800  1
  Au  Au5  1  0.97628600  0.34172500  0.31665800  1
  Au  Au6  1  0.47628600  0.15827500  0.31665800  1
  Au  Au7  1  0.02371400  0.34172500  0.81665800  1
  Se  Se8  1  0.35620500  0.00000000  0.96016300  1
  Se  Se9  1  0.96885900  0.83594800  0.20225200  1
  Se  Se10  1  0.03114100  0.83594800  0.70225200  1
  Se  Se11  1  0.64379500  0.00000000  0.46016300  1
  Se  Se12  1  0.46885900  0.66405200  0.20225200  1
  Se  Se13  1  0.53114100  0.66405200  0.70225200  1
  Se  Se14  1  0.85620500  0.50000000  0.96016300  1
  Se  Se15  1  0.46885900  0.33594800  0.20225200  1
  Se  Se16  1  0.53114100  0.33594800  0.70225200  1
  Se  Se17  1  0.14379500  0.50000000  0.46016300  1
  Se  Se18  1  0.96885900  0.16405200  0.20225200  1
  Se  Se19  1  0.03114100  0.16405200  0.70225200  1
  O  O20  1  0.66194650  0.65284450  0.33899400  1
  O  O21  1  0.47970700  0.76110100  0.15050400  1
  O  O22  1  0.78688300  0.83174500  0.35015100  1
  O  O23  1  0.25834800  0.00000000  0.78935600  1
  O  O24  1  0.97198200  0.57794700  0.48279300  1
  O  O25  1  0.28688300  0.66825500  0.35015100  1
  O  O26  1  0.79567400  0.00000000  0.60867800  1
  O  O27  1  0.16194650  0.84715550  0.33899400  1
  O  O28  1  0.47198200  0.92205300  0.48279300  1
  O  O29  1  0.97970700  0.73889900  0.15050400  1
  O  O30  1  0.33805350  0.65284450  0.83899400  1
  O  O31  1  0.52029300  0.76110100  0.65050400  1
  O  O32  1  0.71311700  0.66825500  0.85015100  1
  O  O33  1  0.21311700  0.83174500  0.85015100  1
  O  O34  1  0.74165200  0.00000000  0.28935600  1
  O  O35  1  0.20432600  0.00000000  0.10867800  1
  O  O36  1  0.02029300  0.73889900  0.65050400  1
  O  O37  1  0.52801800  0.92205300  0.98279300  1
  O  O38  1  0.83805350  0.84715550  0.83899400  1
  O  O39  1  0.02801800  0.57794700  0.98279300  1
  O  O40  1  0.16194650  0.15284450  0.33899400  1
  O  O41  1  0.97970700  0.26110100  0.15050400  1
  O  O42  1  0.28688300  0.33174500  0.35015100  1
  O  O43  1  0.75834800  0.50000000  0.78935600  1
  O  O44  1  0.47198200  0.07794700  0.48279300  1
  O  O45  1  0.78688300  0.16825500  0.35015100  1
  O  O46  1  0.29567400  0.50000000  0.60867800  1
  O  O47  1  0.66194650  0.34715550  0.33899400  1
  O  O48  1  0.97198200  0.42205300  0.48279300  1
  O  O49  1  0.47970700  0.23889900  0.15050400  1
  O  O50  1  0.83805350  0.15284450  0.83899400  1
  O  O51  1  0.02029300  0.26110100  0.65050400  1
  O  O52  1  0.21311700  0.16825500  0.85015100  1
  O  O53  1  0.71311700  0.33174500  0.85015100  1
  O  O54  1  0.24165200  0.50000000  0.28935600  1
  O  O55  1  0.70432600  0.50000000  0.10867800  1
  O  O56  1  0.52029300  0.23889900  0.65050400  1
  O  O57  1  0.02801800  0.42205300  0.98279300  1
  O  O58  1  0.33805350  0.34715550  0.83899400  1
  O  O59  1  0.52801800  0.07794700  0.98279300  1
