# generated using pymatgen
data_Sm3Re2O9
_symmetry_space_group_name_H-M   'P 1'
_cell_length_a   5.56107500
_cell_length_b   6.88128738
_cell_length_c   10.94235519
_cell_angle_alpha   76.75367758
_cell_angle_beta   75.48355205
_cell_angle_gamma   68.71731049
_symmetry_Int_Tables_number   1
_chemical_formula_structural   Sm3Re2O9
_chemical_formula_sum   'Sm6 Re4 O18'
_cell_volume   373.26505692
_cell_formula_units_Z   2
loop_
 _symmetry_equiv_pos_site_id
 _symmetry_equiv_pos_as_xyz
  1  'x, y, z'
loop_
 _atom_site_type_symbol
 _atom_site_label
 _atom_site_symmetry_multiplicity
 _atom_site_fract_x
 _atom_site_fract_y
 _atom_site_fract_z
 _atom_site_occupancy
  Sm  Sm0  1  0.01348000  0.20989500  0.26903100  1
  Sm  Sm1  1  0.98652000  0.79010500  0.73096900  1
  Sm  Sm2  1  0.23327000  0.15226000  0.88427000  1
  Sm  Sm3  1  0.76673000  0.84774000  0.11573000  1
  Sm  Sm4  1  0.29996100  0.60526500  0.36971900  1
  Sm  Sm5  1  0.70003900  0.39473500  0.63028100  1
  Re  Re6  1  0.34547400  0.12690300  0.56774900  1
  Re  Re7  1  0.65452600  0.87309700  0.43225100  1
  Re  Re8  1  0.52002900  0.38674000  0.09329100  1
  Re  Re9  1  0.47997100  0.61326000  0.90670900  1
  O  O10  1  0.05760900  0.11677700  0.72104200  1
  O  O11  1  0.94239100  0.88322300  0.27895800  1
  O  O12  1  0.07196700  0.20794800  0.47435100  1
  O  O13  1  0.92803300  0.79205200  0.52564900  1
  O  O14  1  0.18679500  0.49313500  0.20201800  1
  O  O15  1  0.81320500  0.50686500  0.79798200  1
  O  O16  1  0.29019300  0.42216900  0.57664600  1
  O  O17  1  0.70980700  0.57783100  0.42335400  1
  O  O18  1  0.39455000  0.16713900  0.07276300  1
  O  O19  1  0.60545000  0.83286100  0.92723700  1
  O  O20  1  0.58646300  0.07665000  0.68806400  1
  O  O21  1  0.41353700  0.92335000  0.31193600  1
  O  O22  1  0.59625300  0.18967800  0.40173500  1
  O  O23  1  0.40374700  0.81032200  0.59826500  1
  O  O24  1  0.65865700  0.52721300  0.18121300  1
  O  O25  1  0.34134300  0.47278700  0.81878700  1
  O  O26  1  0.87200800  0.18763800  0.05976200  1
  O  O27  1  0.12799200  0.81236200  0.94023800  1
