# generated using pymatgen
data_Na2NbAsO6
_symmetry_space_group_name_H-M   'P 1'
_cell_length_a   14.83843600
_cell_length_b   10.98684600
_cell_length_c   7.42882584
_cell_angle_alpha   90.00000000
_cell_angle_beta   108.43336351
_cell_angle_gamma   90.00000000
_symmetry_Int_Tables_number   1
_chemical_formula_structural   Na2NbAsO6
_chemical_formula_sum   'Na16 Nb8 As8 O48'
_cell_volume   1148.96447866
_cell_formula_units_Z   8
loop_
 _symmetry_equiv_pos_site_id
 _symmetry_equiv_pos_as_xyz
  1  'x, y, z'
loop_
 _atom_site_type_symbol
 _atom_site_label
 _atom_site_symmetry_multiplicity
 _atom_site_fract_x
 _atom_site_fract_y
 _atom_site_fract_z
 _atom_site_occupancy
  Na  Na0  1  0.64065650  0.28892050  0.05957200  1
  Na  Na1  1  0.64065650  0.71107950  0.55957200  1
  Na  Na2  1  0.35934350  0.71107950  0.94042800  1
  Na  Na3  1  0.50000000  0.49488500  0.25000000  1
  Na  Na4  1  0.35934350  0.28892050  0.44042800  1
  Na  Na5  1  0.50000000  0.95365000  0.75000000  1
  Na  Na6  1  0.50000000  0.50511500  0.75000000  1
  Na  Na7  1  0.50000000  0.04635000  0.25000000  1
  Na  Na8  1  0.14065650  0.78892050  0.05957200  1
  Na  Na9  1  0.14065650  0.21107950  0.55957200  1
  Na  Na10  1  0.85934350  0.21107950  0.94042800  1
  Na  Na11  1  0.00000000  0.99488500  0.25000000  1
  Na  Na12  1  0.85934350  0.78892050  0.44042800  1
  Na  Na13  1  0.00000000  0.45365000  0.75000000  1
  Na  Na14  1  0.00000000  0.00511500  0.75000000  1
  Na  Na15  1  0.00000000  0.54635000  0.25000000  1
  Nb  Nb16  1  0.71074250  0.00248550  0.61612800  1
  Nb  Nb17  1  0.71074250  0.99751450  0.11612800  1
  Nb  Nb18  1  0.28925750  0.00248550  0.88387200  1
  Nb  Nb19  1  0.28925750  0.99751450  0.38387200  1
  Nb  Nb20  1  0.21074250  0.50248550  0.61612800  1
  Nb  Nb21  1  0.21074250  0.49751450  0.11612800  1
  Nb  Nb22  1  0.78925750  0.50248550  0.88387200  1
  Nb  Nb23  1  0.78925750  0.49751450  0.38387200  1
  As  As24  1  0.37147950  0.31246650  0.95328900  1
  As  As25  1  0.37147950  0.68753350  0.45328900  1
  As  As26  1  0.62852050  0.31246650  0.54671100  1
  As  As27  1  0.62852050  0.68753350  0.04671100  1
  As  As28  1  0.87147950  0.81246650  0.95328900  1
  As  As29  1  0.87147950  0.18753350  0.45328900  1
  As  As30  1  0.12852050  0.81246650  0.54671100  1
  As  As31  1  0.12852050  0.18753350  0.04671100  1
  O  O32  1  0.60004300  0.08032500  0.06189600  1
  O  O33  1  0.39995700  0.91967500  0.93810400  1
  O  O34  1  0.36609050  0.84280750  0.49603800  1
  O  O35  1  0.48312800  0.35639900  0.97195900  1
  O  O36  1  0.26195250  0.05145050  0.62459700  1
  O  O37  1  0.73804750  0.94854950  0.37540300  1
  O  O38  1  0.79664600  0.84358900  0.72430800  1
  O  O39  1  0.48312800  0.64360100  0.47195900  1
  O  O40  1  0.73804750  0.05145050  0.87540300  1
  O  O41  1  0.26195250  0.94854950  0.12459700  1
  O  O42  1  0.20335400  0.84358900  0.77569200  1
  O  O43  1  0.39995700  0.08032500  0.43810400  1
  O  O44  1  0.63390950  0.84280750  0.00396200  1
  O  O45  1  0.83957800  0.88358700  0.13134400  1
  O  O46  1  0.83957800  0.11641300  0.63134400  1
  O  O47  1  0.51687200  0.64360100  0.02804100  1
  O  O48  1  0.36609050  0.15719250  0.99603800  1
  O  O49  1  0.16042200  0.11641300  0.86865600  1
  O  O50  1  0.51687200  0.35639900  0.52804100  1
  O  O51  1  0.60004300  0.91967500  0.56189600  1
  O  O52  1  0.20335400  0.15641100  0.27569200  1
  O  O53  1  0.16042200  0.88358700  0.36865600  1
  O  O54  1  0.63390950  0.15719250  0.50396200  1
  O  O55  1  0.79664600  0.15641100  0.22430800  1
  O  O56  1  0.10004300  0.58032500  0.06189600  1
  O  O57  1  0.89995700  0.41967500  0.93810400  1
  O  O58  1  0.86609050  0.34280750  0.49603800  1
  O  O59  1  0.98312800  0.85639900  0.97195900  1
  O  O60  1  0.76195250  0.55145050  0.62459700  1
  O  O61  1  0.23804750  0.44854950  0.37540300  1
  O  O62  1  0.29664600  0.34358900  0.72430800  1
  O  O63  1  0.98312800  0.14360100  0.47195900  1
  O  O64  1  0.23804750  0.55145050  0.87540300  1
  O  O65  1  0.76195250  0.44854950  0.12459700  1
  O  O66  1  0.70335400  0.34358900  0.77569200  1
  O  O67  1  0.89995700  0.58032500  0.43810400  1
  O  O68  1  0.13390950  0.34280750  0.00396200  1
  O  O69  1  0.33957800  0.38358700  0.13134400  1
  O  O70  1  0.33957800  0.61641300  0.63134400  1
  O  O71  1  0.01687200  0.14360100  0.02804100  1
  O  O72  1  0.86609050  0.65719250  0.99603800  1
  O  O73  1  0.66042200  0.61641300  0.86865600  1
  O  O74  1  0.01687200  0.85639900  0.52804100  1
  O  O75  1  0.10004300  0.41967500  0.56189600  1
  O  O76  1  0.70335400  0.65641100  0.27569200  1
  O  O77  1  0.66042200  0.38358700  0.36865600  1
  O  O78  1  0.13390950  0.65719250  0.50396200  1
  O  O79  1  0.29664600  0.65641100  0.22430800  1
