# generated using pymatgen
data_Na2UF6
_symmetry_space_group_name_H-M   'P 1'
_cell_length_a   6.15980645
_cell_length_b   6.15980645
_cell_length_c   7.25583700
_cell_angle_alpha   90.00000000
_cell_angle_beta   90.00000000
_cell_angle_gamma   120.00000000
_symmetry_Int_Tables_number   1
_chemical_formula_structural   Na2UF6
_chemical_formula_sum   'Na4 U2 F12'
_cell_volume   238.42526953
_cell_formula_units_Z   2
loop_
 _symmetry_equiv_pos_site_id
 _symmetry_equiv_pos_as_xyz
  1  'x, y, z'
loop_
 _atom_site_type_symbol
 _atom_site_label
 _atom_site_symmetry_multiplicity
 _atom_site_fract_x
 _atom_site_fract_y
 _atom_site_fract_z
 _atom_site_occupancy
  Na  Na0  1  0.00000000  0.00000000  0.03157300  1
  Na  Na1  1  0.66666667  0.33333333  0.62677600  1
  Na  Na2  1  0.00000000  0.00000000  0.51351700  1
  Na  Na3  1  0.33333333  0.66666667  0.37911700  1
  U  U4  1  0.33333333  0.66666667  0.85857100  1
  U  U5  1  0.66666667  0.33333333  0.14208300  1
  F  F6  1  0.90388633  0.62089367  0.35178800  1
  F  F7  1  0.61035133  0.70053267  0.64482500  1
  F  F8  1  0.31442133  0.91652967  0.10877500  1
  F  F9  1  0.91842433  0.61454367  0.89493300  1
  F  F10  1  0.69611933  0.08157567  0.89493300  1
  F  F11  1  0.60210833  0.68557867  0.10877500  1
  F  F12  1  0.71700733  0.09611367  0.35178800  1
  F  F13  1  0.08347033  0.39789167  0.10877500  1
  F  F14  1  0.38545633  0.30388067  0.89493300  1
  F  F15  1  0.37910633  0.28299267  0.35178800  1
  F  F16  1  0.29946733  0.90981867  0.64482500  1
  F  F17  1  0.09018133  0.38964867  0.64482500  1
