# generated using pymatgen
data_ZnSb2(XeF4)6
_symmetry_space_group_name_H-M   'P 1'
_cell_length_a   10.35587038
_cell_length_b   10.35587038
_cell_length_c   23.04575315
_cell_angle_alpha   90.00000000
_cell_angle_beta   90.00000000
_cell_angle_gamma   120.00000000
_symmetry_Int_Tables_number   1
_chemical_formula_structural   ZnSb2(XeF4)6
_chemical_formula_sum   'Zn3 Sb6 Xe18 F72'
_cell_volume   2140.39904765
_cell_formula_units_Z   3
loop_
 _symmetry_equiv_pos_site_id
 _symmetry_equiv_pos_as_xyz
  1  'x, y, z'
loop_
 _atom_site_type_symbol
 _atom_site_label
 _atom_site_symmetry_multiplicity
 _atom_site_fract_x
 _atom_site_fract_y
 _atom_site_fract_z
 _atom_site_occupancy
  Zn  Zn0  1  0.00000000  0.00000000  0.00000000  1
  Zn  Zn1  1  0.66666667  0.33333333  0.33333333  1
  Zn  Zn2  1  0.33333333  0.66666667  0.66666667  1
  Sb  Sb3  1  0.33333333  0.66666667  0.91933967  1
  Sb  Sb4  1  0.33333333  0.66666667  0.41399367  1
  Sb  Sb5  1  0.00000000  0.00000000  0.25267300  1
  Sb  Sb6  1  0.00000000  0.00000000  0.74732700  1
  Sb  Sb7  1  0.66666667  0.33333333  0.58600633  1
  Sb  Sb8  1  0.66666667  0.33333333  0.08066033  1
  Xe  Xe9  1  0.01739133  0.54863667  0.24914767  1
  Xe  Xe10  1  0.53124533  0.98260867  0.24914767  1
  Xe  Xe11  1  0.64927533  0.78469667  0.08418567  1
  Xe  Xe12  1  0.13542133  0.35072467  0.08418567  1
  Xe  Xe13  1  0.45136333  0.46875467  0.24914767  1
  Xe  Xe14  1  0.21530333  0.86457867  0.08418567  1
  Xe  Xe15  1  0.68405800  0.88197000  0.58248100  1
  Xe  Xe16  1  0.19791200  0.31594200  0.58248100  1
  Xe  Xe17  1  0.31594200  0.11803000  0.41751900  1
  Xe  Xe18  1  0.80208800  0.68405800  0.41751900  1
  Xe  Xe19  1  0.11803000  0.80208800  0.58248100  1
  Xe  Xe20  1  0.88197000  0.19791200  0.41751900  1
  Xe  Xe21  1  0.35072467  0.21530333  0.91581433  1
  Xe  Xe22  1  0.86457867  0.64927533  0.91581433  1
  Xe  Xe23  1  0.98260867  0.45136333  0.75085233  1
  Xe  Xe24  1  0.46875467  0.01739133  0.75085233  1
  Xe  Xe25  1  0.78469667  0.13542133  0.91581433  1
  Xe  Xe26  1  0.54863667  0.53124533  0.75085233  1
  F  F27  1  0.15801600  0.16856300  0.04975900  1
  F  F28  1  0.26837167  0.77408133  0.36486633  1
  F  F29  1  0.01054700  0.84198400  0.04975900  1
  F  F30  1  0.44074800  0.83904300  0.96846700  1
  F  F31  1  0.22960200  0.49230500  0.87133900  1
  F  F32  1  0.50570967  0.73162833  0.36486633  1
  F  F33  1  0.39829500  0.55925200  0.96846700  1
  F  F34  1  0.54749333  0.80962567  0.21657167  1
  F  F35  1  0.83522967  0.34388033  0.28357433  1
  F  F36  1  0.11917333  0.52370767  0.11676167  1
  F  F37  1  0.50865067  0.16477033  0.28357433  1
  F  F38  1  0.83143700  0.98945300  0.04975900  1
  F  F39  1  0.47629233  0.59546567  0.11676167  1
  F  F40  1  0.43706467  0.84102833  0.46199433  1
  F  F41  1  0.40396367  0.56293533  0.46199433  1
  F  F42  1  0.50769500  0.73729700  0.87133900  1
  F  F43  1  0.22591867  0.49429033  0.36486633  1
  F  F44  1  0.15897167  0.59603633  0.46199433  1
  F  F45  1  0.26270300  0.77039800  0.87133900  1
  F  F46  1  0.19037433  0.73786767  0.21657167  1
  F  F47  1  0.16095700  0.60170500  0.96846700  1
  F  F48  1  0.65611967  0.49134933  0.28357433  1
  F  F49  1  0.26213233  0.45250667  0.21657167  1
  F  F50  1  0.40453433  0.88082667  0.11676167  1
  F  F51  1  0.82468267  0.50189633  0.38309233  1
  F  F52  1  0.93503833  0.10741467  0.69819967  1
  F  F53  1  0.67721367  0.17531733  0.38309233  1
  F  F54  1  0.10741467  0.17237633  0.30180033  1
  F  F55  1  0.89626867  0.82563833  0.20467233  1
  F  F56  1  0.17237633  0.06496167  0.69819967  1
  F  F57  1  0.06496167  0.89258533  0.30180033  1
  F  F58  1  0.21416000  0.14295900  0.54990500  1
  F  F59  1  0.50189633  0.67721367  0.61690767  1
  F  F60  1  0.78584000  0.85704100  0.45009500  1
  F  F61  1  0.17531733  0.49810367  0.61690767  1
  F  F62  1  0.49810367  0.32278633  0.38309233  1
  F  F63  1  0.14295900  0.92879900  0.45009500  1
  F  F64  1  0.10373133  0.17436167  0.79532767  1
  F  F65  1  0.07063033  0.89626867  0.79532767  1
  F  F66  1  0.17436167  0.07063033  0.20467233  1
  F  F67  1  0.89258533  0.82762367  0.69819967  1
  F  F68  1  0.82563833  0.92936967  0.79532767  1
  F  F69  1  0.92936967  0.10373133  0.20467233  1
  F  F70  1  0.85704100  0.07120100  0.54990500  1
  F  F71  1  0.82762367  0.93503833  0.30180033  1
  F  F72  1  0.32278633  0.82468267  0.61690767  1
  F  F73  1  0.92879900  0.78584000  0.54990500  1
  F  F74  1  0.07120100  0.21416000  0.45009500  1
  F  F75  1  0.49134933  0.83522967  0.71642567  1
  F  F76  1  0.60170500  0.44074800  0.03153300  1
  F  F77  1  0.34388033  0.50865067  0.71642567  1
  F  F78  1  0.77408133  0.50570967  0.63513367  1
  F  F79  1  0.56293533  0.15897167  0.53800567  1
  F  F80  1  0.83904300  0.39829500  0.03153300  1
  F  F81  1  0.73162833  0.22591867  0.63513367  1
  F  F82  1  0.88082667  0.47629233  0.88323833  1
  F  F83  1  0.16856300  0.01054700  0.95024100  1
  F  F84  1  0.45250667  0.19037433  0.78342833  1
  F  F85  1  0.84198400  0.83143700  0.95024100  1
  F  F86  1  0.16477033  0.65611967  0.71642567  1
  F  F87  1  0.80962567  0.26213233  0.78342833  1
  F  F88  1  0.77039800  0.50769500  0.12866100  1
  F  F89  1  0.73729700  0.22960200  0.12866100  1
  F  F90  1  0.84102833  0.40396367  0.53800567  1
  F  F91  1  0.55925200  0.16095700  0.03153300  1
  F  F92  1  0.49230500  0.26270300  0.12866100  1
  F  F93  1  0.59603633  0.43706467  0.53800567  1
  F  F94  1  0.52370767  0.40453433  0.88323833  1
  F  F95  1  0.49429033  0.26837167  0.63513367  1
  F  F96  1  0.98945300  0.15801600  0.95024100  1
  F  F97  1  0.59546567  0.11917333  0.88323833  1
  F  F98  1  0.73786767  0.54749333  0.78342833  1
