# generated using pymatgen
data_Cs3LiF4
_symmetry_space_group_name_H-M   'P 1'
_cell_length_a   13.88398200
_cell_length_b   6.15823200
_cell_length_c   9.05053802
_cell_angle_alpha   90.00000000
_cell_angle_beta   103.74556033
_cell_angle_gamma   90.00000000
_symmetry_Int_Tables_number   1
_chemical_formula_structural   Cs3LiF4
_chemical_formula_sum   'Cs12 Li4 F16'
_cell_volume   751.66601943
_cell_formula_units_Z   4
loop_
 _symmetry_equiv_pos_site_id
 _symmetry_equiv_pos_as_xyz
  1  'x, y, z'
loop_
 _atom_site_type_symbol
 _atom_site_label
 _atom_site_symmetry_multiplicity
 _atom_site_fract_x
 _atom_site_fract_y
 _atom_site_fract_z
 _atom_site_occupancy
  Cs  Cs0  1  0.92756900  0.50000000  0.76680800  1
  Cs  Cs1  1  0.86600600  0.00000000  0.09783000  1
  Cs  Cs2  1  0.69080300  0.00000000  0.64634100  1
  Cs  Cs3  1  0.57243100  0.00000000  0.23319200  1
  Cs  Cs4  1  0.80919700  0.50000000  0.35365900  1
  Cs  Cs5  1  0.63399400  0.50000000  0.90217000  1
  Cs  Cs6  1  0.42756900  0.00000000  0.76680800  1
  Cs  Cs7  1  0.36600600  0.50000000  0.09783000  1
  Cs  Cs8  1  0.19080300  0.50000000  0.64634100  1
  Cs  Cs9  1  0.07243100  0.50000000  0.23319200  1
  Cs  Cs10  1  0.30919700  0.00000000  0.35365900  1
  Cs  Cs11  1  0.13399400  0.00000000  0.90217000  1
  Li  Li12  1  0.58016600  0.50000000  0.45740500  1
  Li  Li13  1  0.91983400  0.00000000  0.54259500  1
  Li  Li14  1  0.08016600  0.00000000  0.45740500  1
  Li  Li15  1  0.41983400  0.50000000  0.54259500  1
  F  F16  1  0.85646700  0.50000000  0.04957900  1
  F  F17  1  0.00000000  0.23362100  0.50000000  1
  F  F18  1  0.91217400  0.00000000  0.75453000  1
  F  F19  1  0.70504300  0.50000000  0.60491000  1
  F  F20  1  0.58782600  0.50000000  0.24547000  1
  F  F21  1  0.64353300  0.00000000  0.95042100  1
  F  F22  1  0.00000000  0.76637900  0.50000000  1
  F  F23  1  0.79495700  0.00000000  0.39509000  1
  F  F24  1  0.35646700  0.00000000  0.04957900  1
  F  F25  1  0.50000000  0.73362100  0.50000000  1
  F  F26  1  0.41217400  0.50000000  0.75453000  1
  F  F27  1  0.20504300  0.00000000  0.60491000  1
  F  F28  1  0.08782600  0.00000000  0.24547000  1
  F  F29  1  0.14353300  0.50000000  0.95042100  1
  F  F30  1  0.50000000  0.26637900  0.50000000  1
  F  F31  1  0.29495700  0.50000000  0.39509000  1
