# generated using pymatgen
data_MgH12SeO9
_symmetry_space_group_name_H-M   'P 1'
_cell_length_a   8.97659145
_cell_length_b   8.97659145
_cell_length_c   9.06372942
_cell_angle_alpha   90.00000000
_cell_angle_beta   90.00000000
_cell_angle_gamma   120.00000000
_symmetry_Int_Tables_number   1
_chemical_formula_structural   MgH12SeO9
_chemical_formula_sum   'Mg3 H36 Se3 O27'
_cell_volume   632.49993203
_cell_formula_units_Z   3
loop_
 _symmetry_equiv_pos_site_id
 _symmetry_equiv_pos_as_xyz
  1  'x, y, z'
loop_
 _atom_site_type_symbol
 _atom_site_label
 _atom_site_symmetry_multiplicity
 _atom_site_fract_x
 _atom_site_fract_y
 _atom_site_fract_z
 _atom_site_occupancy
  Mg  Mg0  1  0.00000000  0.00000000  0.99399300  1
  Mg  Mg1  1  0.66666667  0.33333333  0.32732633  1
  Mg  Mg2  1  0.33333333  0.66666667  0.66065967  1
  H  H3  1  0.55865033  0.03417967  0.48515567  1
  H  H4  1  0.96582033  0.52447067  0.48515567  1
  H  H5  1  0.47552933  0.44134967  0.48515567  1
  H  H6  1  0.76568967  0.13390833  0.49491433  1
  H  H7  1  0.86609167  0.63178133  0.49491433  1
  H  H8  1  0.36821867  0.23431033  0.49491433  1
  H  H9  1  0.97578267  0.15908233  0.74205633  1
  H  H10  1  0.84091767  0.81670033  0.74205633  1
  H  H11  1  0.18329967  0.02421733  0.74205633  1
  H  H12  1  0.27666300  0.92267000  0.54016100  1
  H  H13  1  0.07733000  0.35399300  0.54016100  1
  H  H14  1  0.64600700  0.72333700  0.54016100  1
  H  H15  1  0.22531700  0.36751300  0.81848900  1
  H  H16  1  0.63248700  0.85780400  0.81848900  1
  H  H17  1  0.14219600  0.77468300  0.81848900  1
  H  H18  1  0.43235633  0.46724167  0.82824767  1
  H  H19  1  0.53275833  0.96511467  0.82824767  1
  H  H20  1  0.03488533  0.56764367  0.82824767  1
  H  H21  1  0.64244933  0.49241567  0.07538967  1
  H  H22  1  0.50758433  0.15003367  0.07538967  1
  H  H23  1  0.84996633  0.35755067  0.07538967  1
  H  H24  1  0.94332967  0.25600333  0.87349433  1
  H  H25  1  0.74399667  0.68732633  0.87349433  1
  H  H26  1  0.31267367  0.05667033  0.87349433  1
  H  H27  1  0.89198367  0.70084633  0.15182233  1
  H  H28  1  0.29915367  0.19113733  0.15182233  1
  H  H29  1  0.80886267  0.10801633  0.15182233  1
  H  H30  1  0.09902300  0.80057500  0.16158100  1
  H  H31  1  0.19942500  0.29844800  0.16158100  1
  H  H32  1  0.70155200  0.90097700  0.16158100  1
  H  H33  1  0.30911600  0.82574900  0.40872300  1
  H  H34  1  0.17425100  0.48336700  0.40872300  1
  H  H35  1  0.51663300  0.69088400  0.40872300  1
  H  H36  1  0.60999633  0.58933667  0.20682767  1
  H  H37  1  0.41066333  0.02065967  0.20682767  1
  H  H38  1  0.97934033  0.39000367  0.20682767  1
  Se  Se39  1  0.00000000  0.00000000  0.47662900  1
  Se  Se40  1  0.66666667  0.33333333  0.80996233  1
  Se  Se41  1  0.33333333  0.66666667  0.14329567  1
  O  O42  1  0.94571600  0.13907700  0.56279900  1
  O  O43  1  0.86092300  0.80663900  0.56279900  1
  O  O44  1  0.19336100  0.05428400  0.56279900  1
  O  O45  1  0.66508633  0.13889167  0.45356467  1
  O  O46  1  0.86110833  0.52619467  0.45356467  1
  O  O47  1  0.47380533  0.33491367  0.45356467  1
  O  O48  1  0.33894967  0.85883733  0.51607533  1
  O  O49  1  0.14116267  0.48011233  0.51607533  1
  O  O50  1  0.51988767  0.66105033  0.51607533  1
  O  O51  1  0.61238267  0.47241033  0.89613233  1
  O  O52  1  0.52758967  0.13997233  0.89613233  1
  O  O53  1  0.86002767  0.38761733  0.89613233  1
  O  O54  1  0.33175300  0.47222500  0.78689800  1
  O  O55  1  0.52777500  0.85952800  0.78689800  1
  O  O56  1  0.14047200  0.66824700  0.78689800  1
  O  O57  1  0.00561633  0.19217067  0.84940867  1
  O  O58  1  0.80782933  0.81344567  0.84940867  1
  O  O59  1  0.18655433  0.99438367  0.84940867  1
  O  O60  1  0.27904933  0.80574367  0.22946567  1
  O  O61  1  0.19425633  0.47330567  0.22946567  1
  O  O62  1  0.52669433  0.72095067  0.22946567  1
  O  O63  1  0.99841967  0.80555833  0.12023133  1
  O  O64  1  0.19444167  0.19286133  0.12023133  1
  O  O65  1  0.80713867  0.00158033  0.12023133  1
  O  O66  1  0.67228300  0.52550400  0.18274200  1
  O  O67  1  0.47449600  0.14677900  0.18274200  1
  O  O68  1  0.85322100  0.32771700  0.18274200  1
