# generated using pymatgen
data_TlCuAsO4
_symmetry_space_group_name_H-M   'P 1'
_cell_length_a   7.08979800
_cell_length_b   7.27375200
_cell_length_c   18.53195308
_cell_angle_alpha   90.00000000
_cell_angle_beta   94.00656213
_cell_angle_gamma   90.00000000
_symmetry_Int_Tables_number   1
_chemical_formula_structural   TlCuAsO4
_chemical_formula_sum   'Tl8 Cu8 As8 O32'
_cell_volume   953.34666598
_cell_formula_units_Z   8
loop_
 _symmetry_equiv_pos_site_id
 _symmetry_equiv_pos_as_xyz
  1  'x, y, z'
loop_
 _atom_site_type_symbol
 _atom_site_label
 _atom_site_symmetry_multiplicity
 _atom_site_fract_x
 _atom_site_fract_y
 _atom_site_fract_z
 _atom_site_occupancy
  Tl  Tl0  1  0.49635000  0.29574200  0.43859800  1
  Tl  Tl1  1  0.50365000  0.29574200  0.06140200  1
  Tl  Tl2  1  0.50365000  0.70425800  0.56140200  1
  Tl  Tl3  1  0.49635000  0.70425800  0.93859800  1
  Tl  Tl4  1  0.99635000  0.79574200  0.43859800  1
  Tl  Tl5  1  0.00365000  0.79574200  0.06140200  1
  Tl  Tl6  1  0.00365000  0.20425800  0.56140200  1
  Tl  Tl7  1  0.99635000  0.20425800  0.93859800  1
  Cu  Cu8  1  0.75123250  0.08289550  0.25055200  1
  Cu  Cu9  1  0.24876750  0.08289550  0.24944800  1
  Cu  Cu10  1  0.24876750  0.91710450  0.74944800  1
  Cu  Cu11  1  0.75123250  0.91710450  0.75055200  1
  Cu  Cu12  1  0.25123250  0.58289550  0.25055200  1
  Cu  Cu13  1  0.74876750  0.58289550  0.24944800  1
  Cu  Cu14  1  0.74876750  0.41710450  0.74944800  1
  Cu  Cu15  1  0.25123250  0.41710450  0.75055200  1
  As  As16  1  0.52317900  0.83263100  0.35260300  1
  As  As17  1  0.47682100  0.83263100  0.14739700  1
  As  As18  1  0.47682100  0.16736900  0.64739700  1
  As  As19  1  0.52317900  0.16736900  0.85260300  1
  As  As20  1  0.02317900  0.33263100  0.35260300  1
  As  As21  1  0.97682100  0.33263100  0.14739700  1
  As  As22  1  0.97682100  0.66736900  0.64739700  1
  As  As23  1  0.02317900  0.66736900  0.85260300  1
  O  O24  1  0.69539750  0.83265150  0.28631000  1
  O  O25  1  0.30460250  0.83265150  0.21369000  1
  O  O26  1  0.30460250  0.16734850  0.71369000  1
  O  O27  1  0.69539750  0.16734850  0.78631000  1
  O  O28  1  0.36826650  0.16095750  0.56303400  1
  O  O29  1  0.63173350  0.16095750  0.93696600  1
  O  O30  1  0.63173350  0.83904250  0.43696600  1
  O  O31  1  0.36826650  0.83904250  0.06303400  1
  O  O32  1  0.39247000  0.03376500  0.33902500  1
  O  O33  1  0.60753000  0.03376500  0.16097500  1
  O  O34  1  0.60753000  0.96623500  0.66097500  1
  O  O35  1  0.39247000  0.96623500  0.83902500  1
  O  O36  1  0.39258150  0.63250550  0.34031700  1
  O  O37  1  0.60741850  0.63250550  0.15968300  1
  O  O38  1  0.60741850  0.36749450  0.65968300  1
  O  O39  1  0.39258150  0.36749450  0.84031700  1
  O  O40  1  0.19539750  0.33265150  0.28631000  1
  O  O41  1  0.80460250  0.33265150  0.21369000  1
  O  O42  1  0.80460250  0.66734850  0.71369000  1
  O  O43  1  0.19539750  0.66734850  0.78631000  1
  O  O44  1  0.86826650  0.66095750  0.56303400  1
  O  O45  1  0.13173350  0.66095750  0.93696600  1
  O  O46  1  0.13173350  0.33904250  0.43696600  1
  O  O47  1  0.86826650  0.33904250  0.06303400  1
  O  O48  1  0.89247000  0.53376500  0.33902500  1
  O  O49  1  0.10753000  0.53376500  0.16097500  1
  O  O50  1  0.10753000  0.46623500  0.66097500  1
  O  O51  1  0.89247000  0.46623500  0.83902500  1
  O  O52  1  0.89258150  0.13250550  0.34031700  1
  O  O53  1  0.10741850  0.13250550  0.15968300  1
  O  O54  1  0.10741850  0.86749450  0.65968300  1
  O  O55  1  0.89258150  0.86749450  0.84031700  1
