# generated using pymatgen
data_Cs3As11
_symmetry_space_group_name_H-M   'P 1'
_cell_length_a   13.55925000
_cell_length_b   15.73487400
_cell_length_c   19.91164114
_cell_angle_alpha   90.00000000
_cell_angle_beta   95.07752636
_cell_angle_gamma   90.00000000
_symmetry_Int_Tables_number   1
_chemical_formula_structural   Cs3As11
_chemical_formula_sum   'Cs24 As88'
_cell_volume   4231.53958292
_cell_formula_units_Z   8
loop_
 _symmetry_equiv_pos_site_id
 _symmetry_equiv_pos_as_xyz
  1  'x, y, z'
loop_
 _atom_site_type_symbol
 _atom_site_label
 _atom_site_symmetry_multiplicity
 _atom_site_fract_x
 _atom_site_fract_y
 _atom_site_fract_z
 _atom_site_occupancy
  Cs  Cs0  1  0.45690650  0.25391450  0.60940400  1
  Cs  Cs1  1  0.38763600  0.08276800  0.37120800  1
  Cs  Cs2  1  0.61236400  0.91723200  0.62879200  1
  Cs  Cs3  1  0.38477450  0.64016250  0.62041200  1
  Cs  Cs4  1  0.61522550  0.64016250  0.87958800  1
  Cs  Cs5  1  0.54309350  0.74608550  0.39059600  1
  Cs  Cs6  1  0.61236400  0.08276800  0.12879200  1
  Cs  Cs7  1  0.45690650  0.74608550  0.10940400  1
  Cs  Cs8  1  0.38763600  0.91723200  0.87120800  1
  Cs  Cs9  1  0.38477450  0.35983750  0.12041200  1
  Cs  Cs10  1  0.54309350  0.25391450  0.89059600  1
  Cs  Cs11  1  0.61522550  0.35983750  0.37958800  1
  Cs  Cs12  1  0.95690650  0.75391450  0.60940400  1
  Cs  Cs13  1  0.88763600  0.58276800  0.37120800  1
  Cs  Cs14  1  0.11236400  0.41723200  0.62879200  1
  Cs  Cs15  1  0.88477450  0.14016250  0.62041200  1
  Cs  Cs16  1  0.11522550  0.14016250  0.87958800  1
  Cs  Cs17  1  0.04309350  0.24608550  0.39059600  1
  Cs  Cs18  1  0.11236400  0.58276800  0.12879200  1
  Cs  Cs19  1  0.95690650  0.24608550  0.10940400  1
  Cs  Cs20  1  0.88763600  0.41723200  0.87120800  1
  Cs  Cs21  1  0.88477450  0.85983750  0.12041200  1
  Cs  Cs22  1  0.04309350  0.75391450  0.89059600  1
  Cs  Cs23  1  0.11522550  0.85983750  0.37958800  1
  As  As24  1  0.15479400  0.86948000  0.74478900  1
  As  As25  1  0.84520600  0.86948000  0.75521100  1
  As  As26  1  0.91799400  0.98790700  0.81893700  1
  As  As27  1  0.63331900  0.96953400  0.44592400  1
  As  As28  1  0.69589500  0.13802800  0.31365600  1
  As  As29  1  0.32355550  0.68644650  0.89730400  1
  As  As30  1  0.36367350  0.88798650  0.50625200  1
  As  As31  1  0.19463050  0.92348450  0.01958100  1
  As  As32  1  0.08200600  0.98790700  0.68106300  1
  As  As33  1  0.84520600  0.13052000  0.25521100  1
  As  As34  1  0.10078550  0.04823950  0.05945500  1
  As  As35  1  0.63632650  0.11201350  0.49374800  1
  As  As36  1  0.23000550  0.16220750  0.06971800  1
  As  As37  1  0.08200600  0.01209300  0.18106300  1
  As  As38  1  0.10078550  0.95176050  0.55945500  1
  As  As39  1  0.69589500  0.86197200  0.81365600  1
  As  As40  1  0.36254100  0.98696400  0.17899600  1
  As  As41  1  0.19463050  0.07651550  0.51958100  1
  As  As42  1  0.36668100  0.96953400  0.05407600  1
  As  As43  1  0.63745900  0.98696400  0.32100400  1
  As  As44  1  0.76999450  0.83779250  0.93028200  1
  As  As45  1  0.63745900  0.01303600  0.82100400  1
  As  As46  1  0.89921450  0.04823950  0.44054500  1
  As  As47  1  0.63632650  0.88798650  0.99374800  1
  As  As48  1  0.67644450  0.31355350  0.10269600  1
  As  As49  1  0.36254100  0.01303600  0.67899600  1
  As  As50  1  0.78789950  0.09809150  0.79855900  1
  As  As51  1  0.36668100  0.03046600  0.55407600  1
  As  As52  1  0.32355550  0.31355350  0.39730400  1
  As  As53  1  0.15479400  0.13052000  0.24478900  1
  As  As54  1  0.67644450  0.68644650  0.60269600  1
  As  As55  1  0.89921450  0.95176050  0.94054500  1
  As  As56  1  0.91799400  0.01209300  0.31893700  1
  As  As57  1  0.76999450  0.16220750  0.43028200  1
  As  As58  1  0.21210050  0.09809150  0.70144100  1
  As  As59  1  0.23000550  0.83779250  0.56971800  1
  As  As60  1  0.78789950  0.90190850  0.29855900  1
  As  As61  1  0.80536950  0.07651550  0.98041900  1
  As  As62  1  0.80536950  0.92348450  0.48041900  1
  As  As63  1  0.30410500  0.86197200  0.68634400  1
  As  As64  1  0.63331900  0.03046600  0.94592400  1
  As  As65  1  0.21210050  0.90190850  0.20144100  1
  As  As66  1  0.30410500  0.13802800  0.18634400  1
  As  As67  1  0.36367350  0.11201350  0.00625200  1
  As  As68  1  0.65479400  0.36948000  0.74478900  1
  As  As69  1  0.34520600  0.36948000  0.75521100  1
  As  As70  1  0.41799400  0.48790700  0.81893700  1
  As  As71  1  0.13331900  0.46953400  0.44592400  1
  As  As72  1  0.19589500  0.63802800  0.31365600  1
  As  As73  1  0.82355550  0.18644650  0.89730400  1
  As  As74  1  0.86367350  0.38798650  0.50625200  1
  As  As75  1  0.69463050  0.42348450  0.01958100  1
  As  As76  1  0.58200600  0.48790700  0.68106300  1
  As  As77  1  0.34520600  0.63052000  0.25521100  1
  As  As78  1  0.60078550  0.54823950  0.05945500  1
  As  As79  1  0.13632650  0.61201350  0.49374800  1
  As  As80  1  0.73000550  0.66220750  0.06971800  1
  As  As81  1  0.58200600  0.51209300  0.18106300  1
  As  As82  1  0.60078550  0.45176050  0.55945500  1
  As  As83  1  0.19589500  0.36197200  0.81365600  1
  As  As84  1  0.86254100  0.48696400  0.17899600  1
  As  As85  1  0.69463050  0.57651550  0.51958100  1
  As  As86  1  0.86668100  0.46953400  0.05407600  1
  As  As87  1  0.13745900  0.48696400  0.32100400  1
  As  As88  1  0.26999450  0.33779250  0.93028200  1
  As  As89  1  0.13745900  0.51303600  0.82100400  1
  As  As90  1  0.39921450  0.54823950  0.44054500  1
  As  As91  1  0.13632650  0.38798650  0.99374800  1
  As  As92  1  0.17644450  0.81355350  0.10269600  1
  As  As93  1  0.86254100  0.51303600  0.67899600  1
  As  As94  1  0.28789950  0.59809150  0.79855900  1
  As  As95  1  0.86668100  0.53046600  0.55407600  1
  As  As96  1  0.82355550  0.81355350  0.39730400  1
  As  As97  1  0.65479400  0.63052000  0.24478900  1
  As  As98  1  0.17644450  0.18644650  0.60269600  1
  As  As99  1  0.39921450  0.45176050  0.94054500  1
  As  As100  1  0.41799400  0.51209300  0.31893700  1
  As  As101  1  0.26999450  0.66220750  0.43028200  1
  As  As102  1  0.71210050  0.59809150  0.70144100  1
  As  As103  1  0.73000550  0.33779250  0.56971800  1
  As  As104  1  0.28789950  0.40190850  0.29855900  1
  As  As105  1  0.30536950  0.57651550  0.98041900  1
  As  As106  1  0.30536950  0.42348450  0.48041900  1
  As  As107  1  0.80410500  0.36197200  0.68634400  1
  As  As108  1  0.13331900  0.53046600  0.94592400  1
  As  As109  1  0.71210050  0.40190850  0.20144100  1
  As  As110  1  0.80410500  0.63802800  0.18634400  1
  As  As111  1  0.86367350  0.61201350  0.00625200  1
