# generated using pymatgen
data_Hg3SbAsS3
_symmetry_space_group_name_H-M   'P 1'
_cell_length_a   11.97738700
_cell_length_b   4.57962200
_cell_length_c   19.72718090
_cell_angle_alpha   90.00000000
_cell_angle_beta   125.69852993
_cell_angle_gamma   90.00000000
_symmetry_Int_Tables_number   1
_chemical_formula_structural   Hg3SbAsS3
_chemical_formula_sum   'Hg12 Sb4 As4 S12'
_cell_volume   878.75022691
_cell_formula_units_Z   4
loop_
 _symmetry_equiv_pos_site_id
 _symmetry_equiv_pos_as_xyz
  1  'x, y, z'
loop_
 _atom_site_type_symbol
 _atom_site_label
 _atom_site_symmetry_multiplicity
 _atom_site_fract_x
 _atom_site_fract_y
 _atom_site_fract_z
 _atom_site_occupancy
  Hg  Hg0  1  0.94238000  0.26790500  0.57609800  1
  Hg  Hg1  1  0.70103400  0.12368500  0.82063400  1
  Hg  Hg2  1  0.70103400  0.37631500  0.32063400  1
  Hg  Hg3  1  0.20644900  0.22127800  0.31228700  1
  Hg  Hg4  1  0.05762000  0.76790500  0.92390200  1
  Hg  Hg5  1  0.79355100  0.77872200  0.68771300  1
  Hg  Hg6  1  0.29896600  0.62368500  0.67936600  1
  Hg  Hg7  1  0.94238000  0.23209500  0.07609800  1
  Hg  Hg8  1  0.05762000  0.73209500  0.42390200  1
  Hg  Hg9  1  0.29896600  0.87631500  0.17936600  1
  Hg  Hg10  1  0.20644900  0.27872200  0.81228700  1
  Hg  Hg11  1  0.79355100  0.72127800  0.18771300  1
  Sb  Sb12  1  0.40376800  0.30822600  0.04965100  1
  Sb  Sb13  1  0.40376800  0.19177400  0.54965100  1
  Sb  Sb14  1  0.59623200  0.69177400  0.95034900  1
  Sb  Sb15  1  0.59623200  0.80822600  0.45034900  1
  As  As16  1  0.09839700  0.63745000  0.69176300  1
  As  As17  1  0.09839700  0.86255000  0.19176300  1
  As  As18  1  0.90160300  0.36255000  0.30823700  1
  As  As19  1  0.90160300  0.13745000  0.80823700  1
  S  S20  1  0.18384600  0.39652300  0.03451100  1
  S  S21  1  0.31003200  0.55770900  0.43074700  1
  S  S22  1  0.81615400  0.89652300  0.46548900  1
  S  S23  1  0.51087000  0.45632800  0.33441300  1
  S  S24  1  0.18384600  0.10347700  0.53451100  1
  S  S25  1  0.68996800  0.44229100  0.56925300  1
  S  S26  1  0.48913000  0.95632800  0.16558700  1
  S  S27  1  0.68996800  0.05770900  0.06925300  1
  S  S28  1  0.31003200  0.94229100  0.93074700  1
  S  S29  1  0.51087000  0.04367200  0.83441300  1
  S  S30  1  0.48913000  0.54367200  0.66558700  1
  S  S31  1  0.81615400  0.60347700  0.96548900  1
