# generated using pymatgen
data_Cs2LiF3
_symmetry_space_group_name_H-M   'P 1'
_cell_length_a   3.86838600
_cell_length_b   21.75680800
_cell_length_c   6.19181500
_cell_angle_alpha   90.00000000
_cell_angle_beta   90.00000000
_cell_angle_gamma   90.00000000
_symmetry_Int_Tables_number   1
_chemical_formula_structural   Cs2LiF3
_chemical_formula_sum   'Cs8 Li4 F12'
_cell_volume   521.12625498
_cell_formula_units_Z   4
loop_
 _symmetry_equiv_pos_site_id
 _symmetry_equiv_pos_as_xyz
  1  'x, y, z'
loop_
 _atom_site_type_symbol
 _atom_site_label
 _atom_site_symmetry_multiplicity
 _atom_site_fract_x
 _atom_site_fract_y
 _atom_site_fract_z
 _atom_site_occupancy
  Cs  Cs0  1  0.50000000  0.70160400  0.75000000  1
  Cs  Cs1  1  0.00000000  0.79839600  0.25000000  1
  Cs  Cs2  1  0.00000000  0.58421700  0.25000000  1
  Cs  Cs3  1  0.50000000  0.91578300  0.75000000  1
  Cs  Cs4  1  0.00000000  0.20160400  0.75000000  1
  Cs  Cs5  1  0.50000000  0.29839600  0.25000000  1
  Cs  Cs6  1  0.50000000  0.08421700  0.25000000  1
  Cs  Cs7  1  0.00000000  0.41578300  0.75000000  1
  Li  Li8  1  0.50000000  0.54719000  0.75000000  1
  Li  Li9  1  0.00000000  0.95281000  0.25000000  1
  Li  Li10  1  0.00000000  0.04719000  0.75000000  1
  Li  Li11  1  0.50000000  0.45281000  0.25000000  1
  F  F12  1  0.50000000  0.90884100  0.25000000  1
  F  F13  1  0.00000000  0.00000000  0.00000000  1
  F  F14  1  0.00000000  0.80233500  0.75000000  1
  F  F15  1  0.00000000  0.59115900  0.75000000  1
  F  F16  1  0.00000000  0.00000000  0.50000000  1
  F  F17  1  0.50000000  0.69766500  0.25000000  1
  F  F18  1  0.00000000  0.40884100  0.25000000  1
  F  F19  1  0.50000000  0.50000000  0.00000000  1
  F  F20  1  0.50000000  0.30233500  0.75000000  1
  F  F21  1  0.50000000  0.09115900  0.75000000  1
  F  F22  1  0.50000000  0.50000000  0.50000000  1
  F  F23  1  0.00000000  0.19766500  0.25000000  1
