# generated using pymatgen
data_Eu2I2O
_symmetry_space_group_name_H-M   'P 1'
_cell_length_a   6.43890200
_cell_length_b   7.47381000
_cell_length_c   12.93475200
_cell_angle_alpha   90.00000000
_cell_angle_beta   90.00000000
_cell_angle_gamma   90.00000000
_symmetry_Int_Tables_number   1
_chemical_formula_structural   Eu2I2O
_chemical_formula_sum   'Eu8 I8 O4'
_cell_volume   622.46075404
_cell_formula_units_Z   4
loop_
 _symmetry_equiv_pos_site_id
 _symmetry_equiv_pos_as_xyz
  1  'x, y, z'
loop_
 _atom_site_type_symbol
 _atom_site_label
 _atom_site_symmetry_multiplicity
 _atom_site_fract_x
 _atom_site_fract_y
 _atom_site_fract_z
 _atom_site_occupancy
  Eu  Eu0  1  0.00000000  0.67170800  0.08964800  1
  Eu  Eu1  1  0.00000000  0.17170800  0.41035200  1
  Eu  Eu2  1  0.50000000  0.32829200  0.08964800  1
  Eu  Eu3  1  0.50000000  0.82829200  0.41035200  1
  Eu  Eu4  1  0.50000000  0.17170800  0.58964800  1
  Eu  Eu5  1  0.50000000  0.67170800  0.91035200  1
  Eu  Eu6  1  0.00000000  0.82829200  0.58964800  1
  Eu  Eu7  1  0.00000000  0.32829200  0.91035200  1
  I  I8  1  0.50000000  0.34844700  0.34989700  1
  I  I9  1  0.00000000  0.65155300  0.34989700  1
  I  I10  1  0.50000000  0.84844700  0.15010300  1
  I  I11  1  0.00000000  0.15155300  0.15010300  1
  I  I12  1  0.00000000  0.84844700  0.84989700  1
  I  I13  1  0.50000000  0.15155300  0.84989700  1
  I  I14  1  0.00000000  0.34844700  0.65010300  1
  I  I15  1  0.50000000  0.65155300  0.65010300  1
  O  O16  1  0.25000000  0.50000000  0.00000000  1
  O  O17  1  0.75000000  0.50000000  0.00000000  1
  O  O18  1  0.75000000  0.00000000  0.50000000  1
  O  O19  1  0.25000000  0.00000000  0.50000000  1
