# generated using pymatgen
data_Ba17Y16Zn8Pt4O57
_symmetry_space_group_name_H-M   'P 1'
_cell_length_a   23.16878400
_cell_length_b   23.16878400
_cell_length_c   5.77969600
_cell_angle_alpha   90.00000000
_cell_angle_beta   90.00000000
_cell_angle_gamma   90.00000000
_symmetry_Int_Tables_number   1
_chemical_formula_structural   Ba17Y16Zn8Pt4O57
_chemical_formula_sum   'Ba34 Y32 Zn16 Pt8 O114'
_cell_volume   3102.49776585
_cell_formula_units_Z   2
loop_
 _symmetry_equiv_pos_site_id
 _symmetry_equiv_pos_as_xyz
  1  'x, y, z'
loop_
 _atom_site_type_symbol
 _atom_site_label
 _atom_site_symmetry_multiplicity
 _atom_site_fract_x
 _atom_site_fract_y
 _atom_site_fract_z
 _atom_site_occupancy
  Ba  Ba0  1  0.56751050  0.94150150  0.50000000  1
  Ba  Ba1  1  0.61215650  0.77654850  0.50000000  1
  Ba  Ba2  1  0.26790400  0.18916400  0.00000000  1
  Ba  Ba3  1  0.72345150  0.11215650  0.00000000  1
  Ba  Ba4  1  0.73209600  0.81083600  0.00000000  1
  Ba  Ba5  1  0.68916400  0.23209600  0.50000000  1
  Ba  Ba6  1  0.43248950  0.05849850  0.50000000  1
  Ba  Ba7  1  0.84176700  0.14980500  0.50000000  1
  Ba  Ba8  1  0.55849850  0.06751050  0.00000000  1
  Ba  Ba9  1  0.31083600  0.76790400  0.50000000  1
  Ba  Ba10  1  0.44150150  0.93248950  0.00000000  1
  Ba  Ba11  1  0.38784350  0.22345150  0.50000000  1
  Ba  Ba12  1  0.15823300  0.85019500  0.50000000  1
  Ba  Ba13  1  0.27654850  0.88784350  0.00000000  1
  Ba  Ba14  1  0.35019500  0.34176700  0.00000000  1
  Ba  Ba15  1  0.64980500  0.65823300  0.00000000  1
  Ba  Ba16  1  0.00000000  0.00000000  0.00000000  1
  Ba  Ba17  1  0.06751050  0.44150150  0.00000000  1
  Ba  Ba18  1  0.11215650  0.27654850  0.00000000  1
  Ba  Ba19  1  0.76790400  0.68916400  0.50000000  1
  Ba  Ba20  1  0.22345150  0.61215650  0.50000000  1
  Ba  Ba21  1  0.23209600  0.31083600  0.50000000  1
  Ba  Ba22  1  0.18916400  0.73209600  0.00000000  1
  Ba  Ba23  1  0.93248950  0.55849850  0.00000000  1
  Ba  Ba24  1  0.34176700  0.64980500  0.00000000  1
  Ba  Ba25  1  0.05849850  0.56751050  0.50000000  1
  Ba  Ba26  1  0.81083600  0.26790400  0.00000000  1
  Ba  Ba27  1  0.94150150  0.43248950  0.50000000  1
  Ba  Ba28  1  0.88784350  0.72345150  0.00000000  1
  Ba  Ba29  1  0.65823300  0.35019500  0.00000000  1
  Ba  Ba30  1  0.77654850  0.38784350  0.50000000  1
  Ba  Ba31  1  0.85019500  0.84176700  0.50000000  1
  Ba  Ba32  1  0.14980500  0.15823300  0.50000000  1
  Ba  Ba33  1  0.50000000  0.50000000  0.50000000  1
  Y  Y34  1  0.75035200  0.00662100  0.50000000  1
  Y  Y35  1  0.32630900  0.04948700  0.00000000  1
  Y  Y36  1  0.50662100  0.74964800  0.00000000  1
  Y  Y37  1  0.48820300  0.40019100  0.00000000  1
  Y  Y38  1  0.54948700  0.17369100  0.50000000  1
  Y  Y39  1  0.24964800  0.99337900  0.50000000  1
  Y  Y40  1  0.09980900  0.98820300  0.50000000  1
  Y  Y41  1  0.82795500  0.94758600  0.00000000  1
  Y  Y42  1  0.51179700  0.59980900  0.00000000  1
  Y  Y43  1  0.49337900  0.25035200  0.00000000  1
  Y  Y44  1  0.45051300  0.82630900  0.50000000  1
  Y  Y45  1  0.44758600  0.67204500  0.50000000  1
  Y  Y46  1  0.55241400  0.32795500  0.50000000  1
  Y  Y47  1  0.90019100  0.01179700  0.50000000  1
  Y  Y48  1  0.67369100  0.95051300  0.00000000  1
  Y  Y49  1  0.17204500  0.05241400  0.00000000  1
  Y  Y50  1  0.25035200  0.50662100  0.00000000  1
  Y  Y51  1  0.82630900  0.54948700  0.50000000  1
  Y  Y52  1  0.00662100  0.24964800  0.50000000  1
  Y  Y53  1  0.98820300  0.90019100  0.50000000  1
  Y  Y54  1  0.04948700  0.67369100  0.00000000  1
  Y  Y55  1  0.74964800  0.49337900  0.00000000  1
  Y  Y56  1  0.59980900  0.48820300  0.00000000  1
  Y  Y57  1  0.32795500  0.44758600  0.50000000  1
  Y  Y58  1  0.01179700  0.09980900  0.50000000  1
  Y  Y59  1  0.99337900  0.75035200  0.50000000  1
  Y  Y60  1  0.95051300  0.32630900  0.00000000  1
  Y  Y61  1  0.94758600  0.17204500  0.00000000  1
  Y  Y62  1  0.05241400  0.82795500  0.00000000  1
  Y  Y63  1  0.40019100  0.51179700  0.00000000  1
  Y  Y64  1  0.17369100  0.45051300  0.50000000  1
  Y  Y65  1  0.67204500  0.55241400  0.50000000  1
  Zn  Zn66  1  0.71222350  0.87906350  0.50000000  1
  Zn  Zn67  1  0.37906350  0.78777650  0.00000000  1
  Zn  Zn68  1  0.42397600  0.36623100  0.50000000  1
  Zn  Zn69  1  0.86623100  0.07602400  0.00000000  1
  Zn  Zn70  1  0.28777650  0.12093650  0.50000000  1
  Zn  Zn71  1  0.57602400  0.63376900  0.50000000  1
  Zn  Zn72  1  0.13376900  0.92397600  0.00000000  1
  Zn  Zn73  1  0.62093650  0.21222350  0.00000000  1
  Zn  Zn74  1  0.21222350  0.37906350  0.00000000  1
  Zn  Zn75  1  0.87906350  0.28777650  0.50000000  1
  Zn  Zn76  1  0.92397600  0.86623100  0.00000000  1
  Zn  Zn77  1  0.36623100  0.57602400  0.50000000  1
  Zn  Zn78  1  0.78777650  0.62093650  0.00000000  1
  Zn  Zn79  1  0.07602400  0.13376900  0.00000000  1
  Zn  Zn80  1  0.63376900  0.42397600  0.50000000  1
  Zn  Zn81  1  0.12093650  0.71222350  0.50000000  1
  Pt  Pt82  1  0.41694150  0.14422150  0.00000000  1
  Pt  Pt83  1  0.64422150  0.08305850  0.50000000  1
  Pt  Pt84  1  0.58305850  0.85577850  0.00000000  1
  Pt  Pt85  1  0.35577850  0.91694150  0.50000000  1
  Pt  Pt86  1  0.91694150  0.64422150  0.50000000  1
  Pt  Pt87  1  0.14422150  0.58305850  0.00000000  1
  Pt  Pt88  1  0.08305850  0.35577850  0.50000000  1
  Pt  Pt89  1  0.85577850  0.41694150  0.00000000  1
  O  O90  1  0.62335200  0.14402200  0.74488800  1
  O  O91  1  0.26038300  0.20101100  0.50000000  1
  O  O92  1  0.47744150  0.16698450  0.24195950  1
  O  O93  1  0.66698450  0.02255850  0.74195950  1
  O  O94  1  0.26911500  0.89147500  0.50000000  1
  O  O95  1  0.82400050  0.02812650  0.24844650  1
  O  O96  1  0.70101100  0.23961700  0.00000000  1
  O  O97  1  0.64402200  0.87664800  0.24488800  1
  O  O98  1  0.73088500  0.10852500  0.50000000  1
  O  O99  1  0.56550850  0.41020250  0.75019050  1
  O  O100  1  0.29898900  0.76038300  0.00000000  1
  O  O101  1  0.75232250  0.92819250  0.75081450  1
  O  O102  1  0.15980150  0.84227650  0.00000000  1
  O  O103  1  0.33301550  0.97744150  0.25804050  1
  O  O104  1  0.08979750  0.06550850  0.74980950  1
  O  O105  1  0.42819250  0.74767750  0.74918550  1
  O  O106  1  0.52812650  0.67599950  0.74844650  1
  O  O107  1  0.35597800  0.12335200  0.24488800  1
  O  O108  1  0.44492050  0.93564550  0.50000000  1
  O  O109  1  0.62335200  0.14402200  0.25511200  1
  O  O110  1  0.52255850  0.83301550  0.24195950  1
  O  O111  1  0.56550850  0.41020250  0.24980950  1
  O  O112  1  0.37664800  0.85597800  0.74488800  1
  O  O113  1  0.47187350  0.32400050  0.25155350  1
  O  O114  1  0.60852500  0.76911500  0.00000000  1
  O  O115  1  0.24767750  0.07180750  0.24918550  1
  O  O116  1  0.82400050  0.02812650  0.75155350  1
  O  O117  1  0.75232250  0.92819250  0.24918550  1
  O  O118  1  0.65772350  0.65980150  0.50000000  1
  O  O119  1  0.33301550  0.97744150  0.74195950  1
  O  O120  1  0.42819250  0.74767750  0.25081450  1
  O  O121  1  0.55507950  0.06435450  0.50000000  1
  O  O122  1  0.57180750  0.25232250  0.74918550  1
  O  O123  1  0.17599950  0.97187350  0.75155350  1
  O  O124  1  0.57180750  0.25232250  0.25081450  1
  O  O125  1  0.08979750  0.06550850  0.25019050  1
  O  O126  1  0.24767750  0.07180750  0.75081450  1
  O  O127  1  0.56435450  0.94492050  0.00000000  1
  O  O128  1  0.43564550  0.05507950  0.00000000  1
  O  O129  1  0.47744150  0.16698450  0.75804050  1
  O  O130  1  0.47187350  0.32400050  0.74844650  1
  O  O131  1  0.35597800  0.12335200  0.75511200  1
  O  O132  1  0.39147500  0.23088500  0.00000000  1
  O  O133  1  0.66698450  0.02255850  0.25804050  1
  O  O134  1  0.52812650  0.67599950  0.25155350  1
  O  O135  1  0.43449150  0.58979750  0.24980950  1
  O  O136  1  0.91020250  0.93449150  0.74980950  1
  O  O137  1  0.00000000  0.00000000  0.50000000  1
  O  O138  1  0.52255850  0.83301550  0.75804050  1
  O  O139  1  0.43449150  0.58979750  0.75019050  1
  O  O140  1  0.37664800  0.85597800  0.25511200  1
  O  O141  1  0.73961700  0.79898900  0.50000000  1
  O  O142  1  0.34227650  0.34019850  0.50000000  1
  O  O143  1  0.91020250  0.93449150  0.25019050  1
  O  O144  1  0.84019850  0.15772350  0.00000000  1
  O  O145  1  0.64402200  0.87664800  0.75511200  1
  O  O146  1  0.17599950  0.97187350  0.24844650  1
  O  O147  1  0.12335200  0.64402200  0.24488800  1
  O  O148  1  0.76038300  0.70101100  0.00000000  1
  O  O149  1  0.97744150  0.66698450  0.74195950  1
  O  O150  1  0.16698450  0.52255850  0.24195950  1
  O  O151  1  0.76911500  0.39147500  0.00000000  1
  O  O152  1  0.32400050  0.52812650  0.74844650  1
  O  O153  1  0.20101100  0.73961700  0.50000000  1
  O  O154  1  0.14402200  0.37664800  0.74488800  1
  O  O155  1  0.23088500  0.60852500  0.00000000  1
  O  O156  1  0.06550850  0.91020250  0.25019050  1
  O  O157  1  0.79898900  0.26038300  0.50000000  1
  O  O158  1  0.25232250  0.42819250  0.25081450  1
  O  O159  1  0.65980150  0.34227650  0.50000000  1
  O  O160  1  0.83301550  0.47744150  0.75804050  1
  O  O161  1  0.58979750  0.56550850  0.24980950  1
  O  O162  1  0.92819250  0.24767750  0.24918550  1
  O  O163  1  0.02812650  0.17599950  0.24844650  1
  O  O164  1  0.85597800  0.62335200  0.74488800  1
  O  O165  1  0.94492050  0.43564550  0.00000000  1
  O  O166  1  0.12335200  0.64402200  0.75511200  1
  O  O167  1  0.02255850  0.33301550  0.74195950  1
  O  O168  1  0.06550850  0.91020250  0.74980950  1
  O  O169  1  0.87664800  0.35597800  0.24488800  1
  O  O170  1  0.97187350  0.82400050  0.75155350  1
  O  O171  1  0.10852500  0.26911500  0.50000000  1
  O  O172  1  0.74767750  0.57180750  0.74918550  1
  O  O173  1  0.32400050  0.52812650  0.25155350  1
  O  O174  1  0.25232250  0.42819250  0.74918550  1
  O  O175  1  0.15772350  0.15980150  0.00000000  1
  O  O176  1  0.83301550  0.47744150  0.24195950  1
  O  O177  1  0.92819250  0.24767750  0.75081450  1
  O  O178  1  0.05507950  0.56435450  0.00000000  1
  O  O179  1  0.07180750  0.75232250  0.24918550  1
  O  O180  1  0.67599950  0.47187350  0.25155350  1
  O  O181  1  0.07180750  0.75232250  0.75081450  1
  O  O182  1  0.58979750  0.56550850  0.75019050  1
  O  O183  1  0.74767750  0.57180750  0.25081450  1
  O  O184  1  0.06435450  0.44492050  0.50000000  1
  O  O185  1  0.93564550  0.55507950  0.50000000  1
  O  O186  1  0.97744150  0.66698450  0.25804050  1
  O  O187  1  0.97187350  0.82400050  0.24844650  1
  O  O188  1  0.85597800  0.62335200  0.25511200  1
  O  O189  1  0.89147500  0.73088500  0.50000000  1
  O  O190  1  0.16698450  0.52255850  0.75804050  1
  O  O191  1  0.02812650  0.17599950  0.75155350  1
  O  O192  1  0.93449150  0.08979750  0.74980950  1
  O  O193  1  0.41020250  0.43449150  0.24980950  1
  O  O194  1  0.50000000  0.50000000  0.00000000  1
  O  O195  1  0.02255850  0.33301550  0.25804050  1
  O  O196  1  0.93449150  0.08979750  0.25019050  1
  O  O197  1  0.87664800  0.35597800  0.75511200  1
  O  O198  1  0.23961700  0.29898900  0.00000000  1
  O  O199  1  0.84227650  0.84019850  0.00000000  1
  O  O200  1  0.41020250  0.43449150  0.75019050  1
  O  O201  1  0.34019850  0.65772350  0.50000000  1
  O  O202  1  0.14402200  0.37664800  0.25511200  1
  O  O203  1  0.67599950  0.47187350  0.74844650  1
