# generated using pymatgen
data_K2Cd(AuS)4
_symmetry_space_group_name_H-M   'P 1'
_cell_length_a   7.12915800
_cell_length_b   10.81995800
_cell_length_c   14.90635000
_cell_angle_alpha   90.00000000
_cell_angle_beta   90.00000000
_cell_angle_gamma   90.00000000
_symmetry_Int_Tables_number   1
_chemical_formula_structural   K2Cd(AuS)4
_chemical_formula_sum   'K8 Cd4 Au16 S16'
_cell_volume   1149.83395417
_cell_formula_units_Z   4
loop_
 _symmetry_equiv_pos_site_id
 _symmetry_equiv_pos_as_xyz
  1  'x, y, z'
loop_
 _atom_site_type_symbol
 _atom_site_label
 _atom_site_symmetry_multiplicity
 _atom_site_fract_x
 _atom_site_fract_y
 _atom_site_fract_z
 _atom_site_occupancy
  K  K0  1  0.16138500  0.15172800  0.00000000  1
  K  K1  1  0.66138500  0.34827200  0.00000000  1
  K  K2  1  0.33861500  0.65172800  0.00000000  1
  K  K3  1  0.83861500  0.84827200  0.00000000  1
  K  K4  1  0.66138500  0.65172800  0.50000000  1
  K  K5  1  0.16138500  0.84827200  0.50000000  1
  K  K6  1  0.83861500  0.15172800  0.50000000  1
  K  K7  1  0.33861500  0.34827200  0.50000000  1
  Cd  Cd8  1  0.50000000  0.50000000  0.25000000  1
  Cd  Cd9  1  0.50000000  0.50000000  0.75000000  1
  Cd  Cd10  1  0.00000000  0.00000000  0.75000000  1
  Cd  Cd11  1  0.00000000  0.00000000  0.25000000  1
  Au  Au12  1  0.00000000  0.50000000  0.63737900  1
  Au  Au13  1  0.00000000  0.50000000  0.36262100  1
  Au  Au14  1  0.25000000  0.75000000  0.75000000  1
  Au  Au15  1  0.00000000  0.50000000  0.13737900  1
  Au  Au16  1  0.00000000  0.50000000  0.86262100  1
  Au  Au17  1  0.25000000  0.75000000  0.25000000  1
  Au  Au18  1  0.75000000  0.75000000  0.25000000  1
  Au  Au19  1  0.75000000  0.75000000  0.75000000  1
  Au  Au20  1  0.50000000  0.00000000  0.13737900  1
  Au  Au21  1  0.50000000  0.00000000  0.86262100  1
  Au  Au22  1  0.75000000  0.25000000  0.25000000  1
  Au  Au23  1  0.50000000  0.00000000  0.63737900  1
  Au  Au24  1  0.50000000  0.00000000  0.36262100  1
  Au  Au25  1  0.75000000  0.25000000  0.75000000  1
  Au  Au26  1  0.25000000  0.25000000  0.75000000  1
  Au  Au27  1  0.25000000  0.25000000  0.25000000  1
  S  S28  1  0.71961350  0.38850550  0.63057850  1
  S  S29  1  0.71961350  0.61149450  0.13057850  1
  S  S30  1  0.71961350  0.38850550  0.36942150  1
  S  S31  1  0.28038650  0.61149450  0.36942150  1
  S  S32  1  0.28038650  0.38850550  0.86942150  1
  S  S33  1  0.28038650  0.38850550  0.13057850  1
  S  S34  1  0.71961350  0.61149450  0.86942150  1
  S  S35  1  0.28038650  0.61149450  0.63057850  1
  S  S36  1  0.21961350  0.88850550  0.13057850  1
  S  S37  1  0.21961350  0.11149450  0.63057850  1
  S  S38  1  0.21961350  0.88850550  0.86942150  1
  S  S39  1  0.78038650  0.11149450  0.86942150  1
  S  S40  1  0.78038650  0.88850550  0.36942150  1
  S  S41  1  0.78038650  0.88850550  0.63057850  1
  S  S42  1  0.21961350  0.11149450  0.36942150  1
  S  S43  1  0.78038650  0.11149450  0.13057850  1
