# generated using pymatgen
data_TlHgAsS3
_symmetry_space_group_name_H-M   'P 1'
_cell_length_a   8.40806200
_cell_length_b   9.35661000
_cell_length_c   16.68005100
_cell_angle_alpha   90.00000000
_cell_angle_beta   90.00000000
_cell_angle_gamma   90.00000000
_symmetry_Int_Tables_number   1
_chemical_formula_structural   TlHgAsS3
_chemical_formula_sum   'Tl8 Hg8 As8 S24'
_cell_volume   1312.23557481
_cell_formula_units_Z   8
loop_
 _symmetry_equiv_pos_site_id
 _symmetry_equiv_pos_as_xyz
  1  'x, y, z'
loop_
 _atom_site_type_symbol
 _atom_site_label
 _atom_site_symmetry_multiplicity
 _atom_site_fract_x
 _atom_site_fract_y
 _atom_site_fract_z
 _atom_site_occupancy
  Tl  Tl0  1  0.50000000  0.66642400  0.94936600  1
  Tl  Tl1  1  0.50000000  0.33357600  0.05063400  1
  Tl  Tl2  1  0.50000000  0.16642400  0.55063400  1
  Tl  Tl3  1  0.50000000  0.83357600  0.44936600  1
  Tl  Tl4  1  0.00000000  0.16642400  0.94936600  1
  Tl  Tl5  1  0.00000000  0.83357600  0.05063400  1
  Tl  Tl6  1  0.00000000  0.66642400  0.55063400  1
  Tl  Tl7  1  0.00000000  0.33357600  0.44936600  1
  Hg  Hg8  1  0.75000000  0.17214000  0.25000000  1
  Hg  Hg9  1  0.25000000  0.82786000  0.75000000  1
  Hg  Hg10  1  0.75000000  0.82786000  0.75000000  1
  Hg  Hg11  1  0.25000000  0.17214000  0.25000000  1
  Hg  Hg12  1  0.25000000  0.67214000  0.25000000  1
  Hg  Hg13  1  0.75000000  0.32786000  0.75000000  1
  Hg  Hg14  1  0.25000000  0.32786000  0.75000000  1
  Hg  Hg15  1  0.75000000  0.67214000  0.25000000  1
  As  As16  1  0.50000000  0.42672800  0.39037100  1
  As  As17  1  0.50000000  0.07327200  0.89037100  1
  As  As18  1  0.50000000  0.57327200  0.60962900  1
  As  As19  1  0.50000000  0.92672800  0.10962900  1
  As  As20  1  0.00000000  0.92672800  0.39037100  1
  As  As21  1  0.00000000  0.57327200  0.89037100  1
  As  As22  1  0.00000000  0.07327200  0.60962900  1
  As  As23  1  0.00000000  0.42672800  0.10962900  1
  S  S24  1  0.28545850  0.92264750  0.89118700  1
  S  S25  1  0.28545850  0.07735250  0.10881300  1
  S  S26  1  0.78545850  0.92264750  0.60881300  1
  S  S27  1  0.71454150  0.92264750  0.89118700  1
  S  S28  1  0.71454150  0.07735250  0.10881300  1
  S  S29  1  0.50000000  0.85479800  0.23860200  1
  S  S30  1  0.50000000  0.35479800  0.26139800  1
  S  S31  1  0.50000000  0.64520200  0.73860200  1
  S  S32  1  0.50000000  0.14520200  0.76139800  1
  S  S33  1  0.21454150  0.92264750  0.60881300  1
  S  S34  1  0.78545850  0.07735250  0.39118700  1
  S  S35  1  0.21454150  0.07735250  0.39118700  1
  S  S36  1  0.78545850  0.42264750  0.89118700  1
  S  S37  1  0.78545850  0.57735250  0.10881300  1
  S  S38  1  0.28545850  0.42264750  0.60881300  1
  S  S39  1  0.21454150  0.42264750  0.89118700  1
  S  S40  1  0.21454150  0.57735250  0.10881300  1
  S  S41  1  0.00000000  0.35479800  0.23860200  1
  S  S42  1  0.00000000  0.85479800  0.26139800  1
  S  S43  1  0.00000000  0.14520200  0.73860200  1
  S  S44  1  0.00000000  0.64520200  0.76139800  1
  S  S45  1  0.71454150  0.42264750  0.60881300  1
  S  S46  1  0.28545850  0.57735250  0.39118700  1
  S  S47  1  0.71454150  0.57735250  0.39118700  1
