# generated using pymatgen
data_Na2GeO3
_symmetry_space_group_name_H-M   'P 1'
_cell_length_a   6.31394000
_cell_length_b   10.95986600
_cell_length_c   4.99944800
_cell_angle_alpha   90.00000000
_cell_angle_beta   90.00000000
_cell_angle_gamma   90.00000000
_symmetry_Int_Tables_number   1
_chemical_formula_structural   Na2GeO3
_chemical_formula_sum   'Na8 Ge4 O12'
_cell_volume   345.96148330
_cell_formula_units_Z   4
loop_
 _symmetry_equiv_pos_site_id
 _symmetry_equiv_pos_as_xyz
  1  'x, y, z'
loop_
 _atom_site_type_symbol
 _atom_site_label
 _atom_site_symmetry_multiplicity
 _atom_site_fract_x
 _atom_site_fract_y
 _atom_site_fract_z
 _atom_site_occupancy
  Na  Na0  1  0.66060250  0.16705750  0.49816800  1
  Na  Na1  1  0.16060250  0.33294250  0.49816800  1
  Na  Na2  1  0.83939750  0.33294250  0.99816800  1
  Na  Na3  1  0.33939750  0.16705750  0.99816800  1
  Na  Na4  1  0.16060250  0.66705750  0.49816800  1
  Na  Na5  1  0.66060250  0.83294250  0.49816800  1
  Na  Na6  1  0.33939750  0.83294250  0.99816800  1
  Na  Na7  1  0.83939750  0.66705750  0.99816800  1
  Ge  Ge8  1  0.16384700  0.00000000  0.46565600  1
  Ge  Ge9  1  0.83615300  0.00000000  0.96565600  1
  Ge  Ge10  1  0.66384700  0.50000000  0.46565600  1
  Ge  Ge11  1  0.33615300  0.50000000  0.96565600  1
  O  O12  1  0.89545000  0.00000000  0.60307400  1
  O  O13  1  0.10455000  0.00000000  0.10307400  1
  O  O14  1  0.79579500  0.36338200  0.52516700  1
  O  O15  1  0.70420500  0.13661800  0.02516700  1
  O  O16  1  0.29579500  0.13661800  0.52516700  1
  O  O17  1  0.20420500  0.36338200  0.02516700  1
  O  O18  1  0.39545000  0.50000000  0.60307400  1
  O  O19  1  0.60455000  0.50000000  0.10307400  1
  O  O20  1  0.29579500  0.86338200  0.52516700  1
  O  O21  1  0.20420500  0.63661800  0.02516700  1
  O  O22  1  0.79579500  0.63661800  0.52516700  1
  O  O23  1  0.70420500  0.86338200  0.02516700  1
