# generated using pymatgen
data_AlS5N5Cl4
_symmetry_space_group_name_H-M   'P 1'
_cell_length_a   9.90377000
_cell_length_b   14.33676000
_cell_length_c   21.48499900
_cell_angle_alpha   90.00000000
_cell_angle_beta   90.00000000
_cell_angle_gamma   90.00000000
_symmetry_Int_Tables_number   1
_chemical_formula_structural   AlS5N5Cl4
_chemical_formula_sum   'Al8 S40 N40 Cl32'
_cell_volume   3050.61147049
_cell_formula_units_Z   8
loop_
 _symmetry_equiv_pos_site_id
 _symmetry_equiv_pos_as_xyz
  1  'x, y, z'
loop_
 _atom_site_type_symbol
 _atom_site_label
 _atom_site_symmetry_multiplicity
 _atom_site_fract_x
 _atom_site_fract_y
 _atom_site_fract_z
 _atom_site_occupancy
  Al  Al0  1  0.94445900  0.25000000  0.37048600  1
  Al  Al1  1  0.05554100  0.75000000  0.62951400  1
  Al  Al2  1  0.44445900  0.25000000  0.12951400  1
  Al  Al3  1  0.46633300  0.75000000  0.38075200  1
  Al  Al4  1  0.96633300  0.75000000  0.11924800  1
  Al  Al5  1  0.03366700  0.25000000  0.88075200  1
  Al  Al6  1  0.55554100  0.75000000  0.87048600  1
  Al  Al7  1  0.53366700  0.25000000  0.61924800  1
  S  S8  1  0.41233800  0.39481000  0.36871000  1
  S  S9  1  0.57204700  0.89355600  0.04655800  1
  S  S10  1  0.91233800  0.10519000  0.13129000  1
  S  S11  1  0.51860000  0.10163300  0.82207200  1
  S  S12  1  0.01860000  0.39836700  0.67792800  1
  S  S13  1  0.07204700  0.89355600  0.45344200  1
  S  S14  1  0.41233800  0.10519000  0.36871000  1
  S  S15  1  0.08766200  0.60519000  0.86871000  1
  S  S16  1  0.19921100  0.50979900  0.97944900  1
  S  S17  1  0.19921100  0.99020100  0.97944900  1
  S  S18  1  0.92795300  0.39355600  0.54655800  1
  S  S19  1  0.69921100  0.99020100  0.52055100  1
  S  S20  1  0.57204700  0.60644400  0.04655800  1
  S  S21  1  0.08766200  0.89481000  0.86871000  1
  S  S22  1  0.79489000  0.96929400  0.72806100  1
  S  S23  1  0.30078900  0.49020100  0.47944900  1
  S  S24  1  0.42795300  0.39355600  0.95344200  1
  S  S25  1  0.42795300  0.10644400  0.95344200  1
  S  S26  1  0.70511000  0.03070600  0.22806100  1
  S  S27  1  0.58766200  0.60519000  0.63129000  1
  S  S28  1  0.01860000  0.10163300  0.67792800  1
  S  S29  1  0.51860000  0.39836700  0.82207200  1
  S  S30  1  0.20511000  0.46929400  0.27193900  1
  S  S31  1  0.98140000  0.60163300  0.32207200  1
  S  S32  1  0.91233800  0.39481000  0.13129000  1
  S  S33  1  0.80078900  0.00979900  0.02055100  1
  S  S34  1  0.48140000  0.89836700  0.17792800  1
  S  S35  1  0.07204700  0.60644400  0.45344200  1
  S  S36  1  0.70511000  0.46929400  0.22806100  1
  S  S37  1  0.98140000  0.89836700  0.32207200  1
  S  S38  1  0.92795300  0.10644400  0.54655800  1
  S  S39  1  0.29489000  0.53070600  0.77193900  1
  S  S40  1  0.58766200  0.89481000  0.63129000  1
  S  S41  1  0.79489000  0.53070600  0.72806100  1
  S  S42  1  0.20511000  0.03070600  0.27193900  1
  S  S43  1  0.80078900  0.49020100  0.02055100  1
  S  S44  1  0.29489000  0.96929400  0.77193900  1
  S  S45  1  0.30078900  0.00979900  0.47944900  1
  S  S46  1  0.48140000  0.60163300  0.17792800  1
  S  S47  1  0.69921100  0.50979900  0.52055100  1
  N  N48  1  0.58943900  0.96564900  0.20536200  1
  N  N49  1  0.31374000  0.46717700  0.93610100  1
  N  N50  1  0.60583800  0.57398300  0.56116900  1
  N  N51  1  0.18677000  0.93227200  0.81829700  1
  N  N52  1  0.51458500  0.12704200  0.89368400  1
  N  N53  1  0.31374000  0.03282300  0.93610100  1
  N  N54  1  0.81374000  0.03282300  0.56389900  1
  N  N55  1  0.18677000  0.56772800  0.81829700  1
  N  N56  1  0.01458500  0.12704200  0.60631600  1
  N  N57  1  0.31323000  0.43227200  0.31829700  1
  N  N58  1  0.60583800  0.92601700  0.56116900  1
  N  N59  1  0.41056100  0.03435100  0.79463800  1
  N  N60  1  0.81374000  0.46717700  0.56389900  1
  N  N61  1  0.08943900  0.53435100  0.29463800  1
  N  N62  1  0.89416200  0.42601700  0.06116900  1
  N  N63  1  0.51458500  0.37295800  0.89368400  1
  N  N64  1  0.91056100  0.03435100  0.70536200  1
  N  N65  1  0.10583800  0.57398300  0.93883100  1
  N  N66  1  0.89416200  0.07398300  0.06116900  1
  N  N67  1  0.39416200  0.07398300  0.43883100  1
  N  N68  1  0.48541500  0.87295800  0.10631600  1
  N  N69  1  0.68626000  0.53282300  0.06389900  1
  N  N70  1  0.91056100  0.46564900  0.70536200  1
  N  N71  1  0.98541500  0.62704200  0.39368400  1
  N  N72  1  0.81323000  0.06772800  0.18170300  1
  N  N73  1  0.18626000  0.53282300  0.43610100  1
  N  N74  1  0.98541500  0.87295800  0.39368400  1
  N  N75  1  0.01458500  0.37295800  0.60631600  1
  N  N76  1  0.58943900  0.53435100  0.20536200  1
  N  N77  1  0.18626000  0.96717700  0.43610100  1
  N  N78  1  0.68677000  0.93227200  0.68170300  1
  N  N79  1  0.31323000  0.06772800  0.31829700  1
  N  N80  1  0.68677000  0.56772800  0.68170300  1
  N  N81  1  0.68626000  0.96717700  0.06389900  1
  N  N82  1  0.81323000  0.43227200  0.18170300  1
  N  N83  1  0.41056100  0.46564900  0.79463800  1
  N  N84  1  0.39416200  0.42601700  0.43883100  1
  N  N85  1  0.48541500  0.62704200  0.10631600  1
  N  N86  1  0.08943900  0.96564900  0.29463800  1
  N  N87  1  0.10583800  0.92601700  0.93883100  1
  Cl  Cl88  1  0.41200900  0.12621600  0.63059500  1
  Cl  Cl89  1  0.80597700  0.75000000  0.18795600  1
  Cl  Cl90  1  0.08799100  0.62621600  0.13059500  1
  Cl  Cl91  1  0.37524300  0.75000000  0.47227500  1
  Cl  Cl92  1  0.87524300  0.75000000  0.02772500  1
  Cl  Cl93  1  0.88211200  0.75000000  0.56822000  1
  Cl  Cl94  1  0.67348900  0.87449100  0.88822200  1
  Cl  Cl95  1  0.82651100  0.37449100  0.38822200  1
  Cl  Cl96  1  0.91200900  0.12621600  0.86940500  1
  Cl  Cl97  1  0.17348900  0.62550900  0.61177800  1
  Cl  Cl98  1  0.58799100  0.87378400  0.36940500  1
  Cl  Cl99  1  0.91200900  0.37378400  0.86940500  1
  Cl  Cl100  1  0.98778100  0.75000000  0.72495500  1
  Cl  Cl101  1  0.38211200  0.75000000  0.93178000  1
  Cl  Cl102  1  0.69402300  0.25000000  0.68795600  1
  Cl  Cl103  1  0.01221900  0.25000000  0.27504500  1
  Cl  Cl104  1  0.41200900  0.37378400  0.63059500  1
  Cl  Cl105  1  0.82651100  0.12550900  0.38822200  1
  Cl  Cl106  1  0.08799100  0.87378400  0.13059500  1
  Cl  Cl107  1  0.62475700  0.25000000  0.52772500  1
  Cl  Cl108  1  0.19402300  0.25000000  0.81204400  1
  Cl  Cl109  1  0.67348900  0.62550900  0.88822200  1
  Cl  Cl110  1  0.11788800  0.25000000  0.43178000  1
  Cl  Cl111  1  0.32651100  0.37449100  0.11177800  1
  Cl  Cl112  1  0.51221900  0.25000000  0.22495500  1
  Cl  Cl113  1  0.12475700  0.25000000  0.97227500  1
  Cl  Cl114  1  0.17348900  0.87449100  0.61177800  1
  Cl  Cl115  1  0.30597700  0.75000000  0.31204400  1
  Cl  Cl116  1  0.32651100  0.12550900  0.11177800  1
  Cl  Cl117  1  0.58799100  0.62621600  0.36940500  1
  Cl  Cl118  1  0.61788800  0.25000000  0.06822000  1
  Cl  Cl119  1  0.48778100  0.75000000  0.77504500  1
