# generated using pymatgen
data_Al2CuSi2O7F2
_symmetry_space_group_name_H-M   'P 1'
_cell_length_a   4.82309900
_cell_length_b   8.96850800
_cell_length_c   14.19470600
_cell_angle_alpha   90.00000000
_cell_angle_beta   90.00000000
_cell_angle_gamma   90.00000000
_symmetry_Int_Tables_number   1
_chemical_formula_structural   Al2CuSi2O7F2
_chemical_formula_sum   'Al8 Cu4 Si8 O28 F8'
_cell_volume   614.00623065
_cell_formula_units_Z   4
loop_
 _symmetry_equiv_pos_site_id
 _symmetry_equiv_pos_as_xyz
  1  'x, y, z'
loop_
 _atom_site_type_symbol
 _atom_site_label
 _atom_site_symmetry_multiplicity
 _atom_site_fract_x
 _atom_site_fract_y
 _atom_site_fract_z
 _atom_site_occupancy
  Al  Al0  1  0.09594900  0.36891000  0.45017600  1
  Al  Al1  1  0.40405100  0.86891000  0.04982400  1
  Al  Al2  1  0.59594900  0.13109000  0.95017600  1
  Al  Al3  1  0.40405100  0.86891000  0.45017600  1
  Al  Al4  1  0.90405100  0.63109000  0.54982400  1
  Al  Al5  1  0.90405100  0.63109000  0.95017600  1
  Al  Al6  1  0.59594900  0.13109000  0.54982400  1
  Al  Al7  1  0.09594900  0.36891000  0.04982400  1
  Cu  Cu8  1  0.35986200  0.85456300  0.25000000  1
  Cu  Cu9  1  0.85986200  0.64543700  0.75000000  1
  Cu  Cu10  1  0.14013800  0.35456300  0.25000000  1
  Cu  Cu11  1  0.64013800  0.14543700  0.75000000  1
  Si  Si12  1  0.59492400  0.56177300  0.35361600  1
  Si  Si13  1  0.90507600  0.06177300  0.35361600  1
  Si  Si14  1  0.09492400  0.93822700  0.85361600  1
  Si  Si15  1  0.40507600  0.43822700  0.85361600  1
  Si  Si16  1  0.40507600  0.43822700  0.64638400  1
  Si  Si17  1  0.90507600  0.06177300  0.14638400  1
  Si  Si18  1  0.09492400  0.93822700  0.64638400  1
  Si  Si19  1  0.59492400  0.56177300  0.14638400  1
  O  O20  1  0.25909200  0.47416700  0.75000000  1
  O  O21  1  0.03165200  0.75744600  0.85390800  1
  O  O22  1  0.53165200  0.74255400  0.35390800  1
  O  O23  1  0.46834800  0.25744600  0.64609200  1
  O  O24  1  0.80544200  0.03482000  0.85678700  1
  O  O25  1  0.69455800  0.53482000  0.85678700  1
  O  O26  1  0.19455800  0.96518000  0.14321300  1
  O  O27  1  0.69455800  0.53482000  0.64321300  1
  O  O28  1  0.80544200  0.03482000  0.64321300  1
  O  O29  1  0.96834800  0.24255400  0.14609200  1
  O  O30  1  0.46834800  0.25744600  0.85390800  1
  O  O31  1  0.30151300  0.98586700  0.94132800  1
  O  O32  1  0.69848700  0.01413300  0.05867200  1
  O  O33  1  0.30544200  0.46518000  0.35678700  1
  O  O34  1  0.30151300  0.98586700  0.55867200  1
  O  O35  1  0.80151300  0.51413300  0.44132800  1
  O  O36  1  0.24090800  0.97416700  0.75000000  1
  O  O37  1  0.19848700  0.48586700  0.55867200  1
  O  O38  1  0.19848700  0.48586700  0.94132800  1
  O  O39  1  0.80151300  0.51413300  0.05867200  1
  O  O40  1  0.74090800  0.52583300  0.25000000  1
  O  O41  1  0.30544200  0.46518000  0.14321300  1
  O  O42  1  0.69848700  0.01413300  0.44132800  1
  O  O43  1  0.96834800  0.24255400  0.35390800  1
  O  O44  1  0.03165200  0.75744600  0.64609200  1
  O  O45  1  0.19455800  0.96518000  0.35678700  1
  O  O46  1  0.75909200  0.02583300  0.25000000  1
  O  O47  1  0.53165200  0.74255400  0.14609200  1
  F  F48  1  0.89436900  0.25389200  0.53117200  1
  F  F49  1  0.60563100  0.75389200  0.53117200  1
  F  F50  1  0.10563100  0.74610800  0.03117200  1
  F  F51  1  0.39436900  0.24610800  0.03117200  1
  F  F52  1  0.10563100  0.74610800  0.46882800  1
  F  F53  1  0.89436900  0.25389200  0.96882800  1
  F  F54  1  0.60563100  0.75389200  0.96882800  1
  F  F55  1  0.39436900  0.24610800  0.46882800  1
