# generated using pymatgen
data_SeO2
_symmetry_space_group_name_H-M   'P 1'
_cell_length_a   4.68485300
_cell_length_b   5.21845500
_cell_length_c   16.04687200
_cell_angle_alpha   90.00000000
_cell_angle_beta   90.00000000
_cell_angle_gamma   90.00000000
_symmetry_Int_Tables_number   1
_chemical_formula_structural   SeO2
_chemical_formula_sum   'Se8 O16'
_cell_volume   392.30902533
_cell_formula_units_Z   8
loop_
 _symmetry_equiv_pos_site_id
 _symmetry_equiv_pos_as_xyz
  1  'x, y, z'
loop_
 _atom_site_type_symbol
 _atom_site_label
 _atom_site_symmetry_multiplicity
 _atom_site_fract_x
 _atom_site_fract_y
 _atom_site_fract_z
 _atom_site_occupancy
  Se  Se0  1  0.51378200  0.50000000  0.25184300  1
  Se  Se1  1  0.97353200  0.50000000  0.00130400  1
  Se  Se2  1  0.11043500  0.00000000  0.81287900  1
  Se  Se3  1  0.33830900  0.00000000  0.06399800  1
  Se  Se4  1  0.88956500  0.00000000  0.31287900  1
  Se  Se5  1  0.66169100  0.00000000  0.56399800  1
  Se  Se6  1  0.02646800  0.50000000  0.50130400  1
  Se  Se7  1  0.48621800  0.50000000  0.75184300  1
  O  O8  1  0.38226300  0.25004000  0.82670200  1
  O  O9  1  0.61773700  0.25004000  0.32670200  1
  O  O10  1  0.06632200  0.74932500  0.07796000  1
  O  O11  1  0.01024500  0.00000000  0.40916900  1
  O  O12  1  0.61773700  0.74996000  0.32670200  1
  O  O13  1  0.82977600  0.50000000  0.77226600  1
  O  O14  1  0.06632200  0.25067500  0.07796000  1
  O  O15  1  0.98975500  0.00000000  0.90916900  1
  O  O16  1  0.17022400  0.50000000  0.27226600  1
  O  O17  1  0.37355900  0.50000000  0.51587500  1
  O  O18  1  0.53681200  0.00000000  0.65984200  1
  O  O19  1  0.62644100  0.50000000  0.01587500  1
  O  O20  1  0.46318800  0.00000000  0.15984200  1
  O  O21  1  0.93367800  0.74932500  0.57796000  1
  O  O22  1  0.93367800  0.25067500  0.57796000  1
  O  O23  1  0.38226300  0.74996000  0.82670200  1
