# generated using pymatgen
data_SbAs3(S2F3)2
_symmetry_space_group_name_H-M   'P 1'
_cell_length_a   6.19559800
_cell_length_b   10.11075500
_cell_length_c   20.81000100
_cell_angle_alpha   90.00000000
_cell_angle_beta   90.00000000
_cell_angle_gamma   90.00000000
_symmetry_Int_Tables_number   1
_chemical_formula_structural   SbAs3(S2F3)2
_chemical_formula_sum   'Sb4 As12 S16 F24'
_cell_volume   1303.58369227
_cell_formula_units_Z   4
loop_
 _symmetry_equiv_pos_site_id
 _symmetry_equiv_pos_as_xyz
  1  'x, y, z'
loop_
 _atom_site_type_symbol
 _atom_site_label
 _atom_site_symmetry_multiplicity
 _atom_site_fract_x
 _atom_site_fract_y
 _atom_site_fract_z
 _atom_site_occupancy
  Sb  Sb0  1  0.49080000  0.25000000  0.33711600  1
  Sb  Sb1  1  0.50920000  0.25000000  0.83711600  1
  Sb  Sb2  1  0.50920000  0.75000000  0.66288400  1
  Sb  Sb3  1  0.49080000  0.75000000  0.16288400  1
  As  As4  1  0.94144000  0.75000000  0.48967700  1
  As  As5  1  0.00518300  0.62479400  0.82897800  1
  As  As6  1  0.05856000  0.75000000  0.98967700  1
  As  As7  1  0.99481700  0.12479400  0.17102200  1
  As  As8  1  0.94144000  0.25000000  0.01032300  1
  As  As9  1  0.00518300  0.87520600  0.82897800  1
  As  As10  1  0.99481700  0.62479400  0.32897800  1
  As  As11  1  0.99481700  0.87520600  0.32897800  1
  As  As12  1  0.99481700  0.37520600  0.17102200  1
  As  As13  1  0.00518300  0.12479400  0.67102200  1
  As  As14  1  0.05856000  0.25000000  0.51032300  1
  As  As15  1  0.00518300  0.37520600  0.67102200  1
  S  S16  1  0.69703700  0.75000000  0.86571100  1
  S  S17  1  0.69658900  0.25000000  0.53750500  1
  S  S18  1  0.85562500  0.07892300  0.07607400  1
  S  S19  1  0.85562500  0.42107700  0.07607400  1
  S  S20  1  0.85562500  0.57892300  0.42392600  1
  S  S21  1  0.14437500  0.92107700  0.92392600  1
  S  S22  1  0.30341100  0.25000000  0.03750500  1
  S  S23  1  0.14437500  0.07892300  0.57607400  1
  S  S24  1  0.14437500  0.42107700  0.57607400  1
  S  S25  1  0.30296300  0.75000000  0.36571100  1
  S  S26  1  0.30341100  0.75000000  0.46249500  1
  S  S27  1  0.69658900  0.75000000  0.96249500  1
  S  S28  1  0.30296300  0.25000000  0.13428900  1
  S  S29  1  0.14437500  0.57892300  0.92392600  1
  S  S30  1  0.85562500  0.92107700  0.42392600  1
  S  S31  1  0.69703700  0.25000000  0.63428900  1
  F  F32  1  0.34783000  0.38457600  0.38639200  1
  F  F33  1  0.72794600  0.25000000  0.39704500  1
  F  F34  1  0.63350200  0.61669100  0.21297000  1
  F  F35  1  0.25195900  0.75000000  0.22341800  1
  F  F36  1  0.27205400  0.75000000  0.60295500  1
  F  F37  1  0.74804100  0.75000000  0.72341800  1
  F  F38  1  0.65217000  0.88457600  0.61360800  1
  F  F39  1  0.65217000  0.11542400  0.88639200  1
  F  F40  1  0.36649800  0.38330900  0.78703000  1
  F  F41  1  0.65217000  0.38457600  0.88639200  1
  F  F42  1  0.36649800  0.88330900  0.71297000  1
  F  F43  1  0.63350200  0.88330900  0.21297000  1
  F  F44  1  0.36649800  0.61669100  0.71297000  1
  F  F45  1  0.25195900  0.25000000  0.27658200  1
  F  F46  1  0.63350200  0.11669100  0.28703000  1
  F  F47  1  0.63350200  0.38330900  0.28703000  1
  F  F48  1  0.36649800  0.11669100  0.78703000  1
  F  F49  1  0.65217000  0.61542400  0.61360800  1
  F  F50  1  0.34783000  0.61542400  0.11360800  1
  F  F51  1  0.27205400  0.25000000  0.89704500  1
  F  F52  1  0.34783000  0.88457600  0.11360800  1
  F  F53  1  0.74804100  0.25000000  0.77658200  1
  F  F54  1  0.72794600  0.75000000  0.10295500  1
  F  F55  1  0.34783000  0.11542400  0.38639200  1
