# generated using pymatgen
data_Ag5Hg4P8Cl5
_symmetry_space_group_name_H-M   'P 1'
_cell_length_a   14.64953800
_cell_length_b   11.15109400
_cell_length_c   6.36098065
_cell_angle_alpha   90.00000000
_cell_angle_beta   103.58452024
_cell_angle_gamma   90.00000000
_symmetry_Int_Tables_number   1
_chemical_formula_structural   Ag5Hg4P8Cl5
_chemical_formula_sum   'Ag10 Hg8 P16 Cl10'
_cell_volume   1010.04957184
_cell_formula_units_Z   2
loop_
 _symmetry_equiv_pos_site_id
 _symmetry_equiv_pos_as_xyz
  1  'x, y, z'
loop_
 _atom_site_type_symbol
 _atom_site_label
 _atom_site_symmetry_multiplicity
 _atom_site_fract_x
 _atom_site_fract_y
 _atom_site_fract_z
 _atom_site_occupancy
  Ag  Ag0  1  0.50000000  0.35347700  0.00000000  1
  Ag  Ag1  1  0.79550400  0.00000000  0.05466100  1
  Ag  Ag2  1  0.20449600  0.00000000  0.94533900  1
  Ag  Ag3  1  0.50000000  0.64652300  0.00000000  1
  Ag  Ag4  1  0.50000000  0.00000000  0.00000000  1
  Ag  Ag5  1  0.00000000  0.85347700  0.00000000  1
  Ag  Ag6  1  0.29550400  0.50000000  0.05466100  1
  Ag  Ag7  1  0.70449600  0.50000000  0.94533900  1
  Ag  Ag8  1  0.00000000  0.14652300  0.00000000  1
  Ag  Ag9  1  0.00000000  0.50000000  0.00000000  1
  Hg  Hg10  1  0.65361000  0.17147400  0.53297600  1
  Hg  Hg11  1  0.34639000  0.82852600  0.46702400  1
  Hg  Hg12  1  0.65361000  0.82852600  0.53297600  1
  Hg  Hg13  1  0.34639000  0.17147400  0.46702400  1
  Hg  Hg14  1  0.15361000  0.67147400  0.53297600  1
  Hg  Hg15  1  0.84639000  0.32852600  0.46702400  1
  Hg  Hg16  1  0.15361000  0.32852600  0.53297600  1
  Hg  Hg17  1  0.84639000  0.67147400  0.46702400  1
  P  P18  1  0.44732000  0.34883500  0.59968600  1
  P  P19  1  0.55268000  0.34883500  0.40031400  1
  P  P20  1  0.85824100  0.00000000  0.44574500  1
  P  P21  1  0.44732000  0.65116500  0.59968600  1
  P  P22  1  0.75963600  0.00000000  0.65883900  1
  P  P23  1  0.14175900  0.00000000  0.55425500  1
  P  P24  1  0.55268000  0.65116500  0.40031400  1
  P  P25  1  0.24036400  0.00000000  0.34116100  1
  P  P26  1  0.94732000  0.84883500  0.59968600  1
  P  P27  1  0.05268000  0.84883500  0.40031400  1
  P  P28  1  0.35824100  0.50000000  0.44574500  1
  P  P29  1  0.94732000  0.15116500  0.59968600  1
  P  P30  1  0.25963600  0.50000000  0.65883900  1
  P  P31  1  0.64175900  0.50000000  0.55425500  1
  P  P32  1  0.05268000  0.15116500  0.40031400  1
  P  P33  1  0.74036400  0.50000000  0.34116100  1
  Cl  Cl34  1  0.36136100  0.16493100  0.97696300  1
  Cl  Cl35  1  0.63863900  0.83506900  0.02303700  1
  Cl  Cl36  1  0.63863900  0.16493100  0.02303700  1
  Cl  Cl37  1  0.36136100  0.83506900  0.97696300  1
  Cl  Cl38  1  0.50000000  0.00000000  0.50000000  1
  Cl  Cl39  1  0.86136100  0.66493100  0.97696300  1
  Cl  Cl40  1  0.13863900  0.33506900  0.02303700  1
  Cl  Cl41  1  0.13863900  0.66493100  0.02303700  1
  Cl  Cl42  1  0.86136100  0.33506900  0.97696300  1
  Cl  Cl43  1  0.00000000  0.50000000  0.50000000  1
