# generated using pymatgen
data_In5(BiS4)3
_symmetry_space_group_name_H-M   'P 1'
_cell_length_a   33.51718400
_cell_length_b   3.92123000
_cell_length_c   14.56597544
_cell_angle_alpha   90.00000000
_cell_angle_beta   90.57693745
_cell_angle_gamma   90.00000000
_symmetry_Int_Tables_number   1
_chemical_formula_structural   In5(BiS4)3
_chemical_formula_sum   'In20 Bi12 S48'
_cell_volume   1914.28852429
_cell_formula_units_Z   4
loop_
 _symmetry_equiv_pos_site_id
 _symmetry_equiv_pos_as_xyz
  1  'x, y, z'
loop_
 _atom_site_type_symbol
 _atom_site_label
 _atom_site_symmetry_multiplicity
 _atom_site_fract_x
 _atom_site_fract_y
 _atom_site_fract_z
 _atom_site_occupancy
  In  In0  1  0.00000000  0.00000000  0.00000000  1
  In  In1  1  0.00000000  0.00000000  0.50000000  1
  In  In2  1  0.78322800  0.00000000  0.58224800  1
  In  In3  1  0.71677200  0.50000000  0.41775200  1
  In  In4  1  0.59763600  0.00000000  0.49645500  1
  In  In5  1  0.90236400  0.50000000  0.50354500  1
  In  In6  1  0.82657800  0.50000000  0.78028200  1
  In  In7  1  0.67342200  0.00000000  0.21971800  1
  In  In8  1  0.57161800  0.50000000  0.72183800  1
  In  In9  1  0.92838200  0.00000000  0.27816200  1
  In  In10  1  0.50000000  0.50000000  0.00000000  1
  In  In11  1  0.50000000  0.50000000  0.50000000  1
  In  In12  1  0.28322800  0.50000000  0.58224800  1
  In  In13  1  0.21677200  0.00000000  0.41775200  1
  In  In14  1  0.09763600  0.50000000  0.49645500  1
  In  In15  1  0.40236400  0.00000000  0.50354500  1
  In  In16  1  0.32657800  0.00000000  0.78028200  1
  In  In17  1  0.17342200  0.50000000  0.21971800  1
  In  In18  1  0.07161800  0.00000000  0.72183800  1
  In  In19  1  0.42838200  0.50000000  0.27816200  1
  Bi  Bi20  1  0.86503900  0.00000000  0.01466600  1
  Bi  Bi21  1  0.63496100  0.50000000  0.98533400  1
  Bi  Bi22  1  0.68020400  0.00000000  0.73280200  1
  Bi  Bi23  1  0.81979600  0.50000000  0.26719800  1
  Bi  Bi24  1  0.94714900  0.50000000  0.79006500  1
  Bi  Bi25  1  0.55285100  0.00000000  0.20993500  1
  Bi  Bi26  1  0.36503900  0.50000000  0.01466600  1
  Bi  Bi27  1  0.13496100  0.00000000  0.98533400  1
  Bi  Bi28  1  0.18020400  0.50000000  0.73280200  1
  Bi  Bi29  1  0.31979600  0.00000000  0.26719800  1
  Bi  Bi30  1  0.44714900  0.00000000  0.79006500  1
  Bi  Bi31  1  0.05285100  0.50000000  0.20993500  1
  S  S32  1  0.50597600  0.50000000  0.81835900  1
  S  S33  1  0.99402400  0.00000000  0.18164100  1
  S  S34  1  0.93788600  0.00000000  0.59858400  1
  S  S35  1  0.56211400  0.50000000  0.40141600  1
  S  S36  1  0.88558800  0.00000000  0.81911900  1
  S  S37  1  0.61441200  0.50000000  0.18088100  1
  S  S38  1  0.77790700  0.00000000  0.76092000  1
  S  S39  1  0.72209300  0.50000000  0.23908000  1
  S  S40  1  0.60498900  0.00000000  0.81289900  1
  S  S41  1  0.89501100  0.50000000  0.18710100  1
  S  S42  1  0.53456700  0.00000000  0.60634600  1
  S  S43  1  0.96543300  0.50000000  0.39365400  1
  S  S44  1  0.94686700  0.50000000  0.97290500  1
  S  S45  1  0.55313300  0.00000000  0.02709500  1
  S  S46  1  0.83804800  0.50000000  0.60180900  1
  S  S47  1  0.66195200  0.00000000  0.39819100  1
  S  S48  1  0.69532600  0.50000000  0.85224300  1
  S  S49  1  0.80467400  0.00000000  0.14775700  1
  S  S50  1  0.62674100  0.50000000  0.60448000  1
  S  S51  1  0.87325900  0.00000000  0.39552000  1
  S  S52  1  0.72798700  0.50000000  0.59115700  1
  S  S53  1  0.77201300  0.00000000  0.40884300  1
  S  S54  1  0.81739200  0.50000000  0.95844400  1
  S  S55  1  0.68260800  0.00000000  0.04155600  1
  S  S56  1  0.00597600  0.00000000  0.81835900  1
  S  S57  1  0.49402400  0.50000000  0.18164100  1
  S  S58  1  0.43788600  0.50000000  0.59858400  1
  S  S59  1  0.06211400  0.00000000  0.40141600  1
  S  S60  1  0.38558800  0.50000000  0.81911900  1
  S  S61  1  0.11441200  0.00000000  0.18088100  1
  S  S62  1  0.27790700  0.50000000  0.76092000  1
  S  S63  1  0.22209300  0.00000000  0.23908000  1
  S  S64  1  0.10498900  0.50000000  0.81289900  1
  S  S65  1  0.39501100  0.00000000  0.18710100  1
  S  S66  1  0.03456700  0.50000000  0.60634600  1
  S  S67  1  0.46543300  0.00000000  0.39365400  1
  S  S68  1  0.44686700  0.00000000  0.97290500  1
  S  S69  1  0.05313300  0.50000000  0.02709500  1
  S  S70  1  0.33804800  0.00000000  0.60180900  1
  S  S71  1  0.16195200  0.50000000  0.39819100  1
  S  S72  1  0.19532600  0.00000000  0.85224300  1
  S  S73  1  0.30467400  0.50000000  0.14775700  1
  S  S74  1  0.12674100  0.00000000  0.60448000  1
  S  S75  1  0.37325900  0.50000000  0.39552000  1
  S  S76  1  0.22798700  0.00000000  0.59115700  1
  S  S77  1  0.27201300  0.50000000  0.40884300  1
  S  S78  1  0.31739200  0.00000000  0.95844400  1
  S  S79  1  0.18260800  0.50000000  0.04155600  1
