# generated using pymatgen
data_Rb2Ag2GeS4
_symmetry_space_group_name_H-M   'P 1'
_cell_length_a   7.65343200
_cell_length_b   22.57353200
_cell_length_c   6.40020668
_cell_angle_alpha   90.00000000
_cell_angle_beta   115.68550805
_cell_angle_gamma   90.00000000
_symmetry_Int_Tables_number   1
_chemical_formula_structural   Rb2Ag2GeS4
_chemical_formula_sum   'Rb8 Ag8 Ge4 S16'
_cell_volume   996.47063926
_cell_formula_units_Z   4
loop_
 _symmetry_equiv_pos_site_id
 _symmetry_equiv_pos_as_xyz
  1  'x, y, z'
loop_
 _atom_site_type_symbol
 _atom_site_label
 _atom_site_symmetry_multiplicity
 _atom_site_fract_x
 _atom_site_fract_y
 _atom_site_fract_z
 _atom_site_occupancy
  Rb  Rb0  1  0.00000000  0.19180500  0.25000000  1
  Rb  Rb1  1  0.50000000  0.43826900  0.25000000  1
  Rb  Rb2  1  0.50000000  0.30819500  0.75000000  1
  Rb  Rb3  1  0.00000000  0.06173100  0.75000000  1
  Rb  Rb4  1  0.50000000  0.69180500  0.25000000  1
  Rb  Rb5  1  0.00000000  0.93826900  0.25000000  1
  Rb  Rb6  1  0.00000000  0.80819500  0.75000000  1
  Rb  Rb7  1  0.50000000  0.56173100  0.75000000  1
  Ag  Ag8  1  0.00000000  0.31546400  0.75000000  1
  Ag  Ag9  1  0.00000000  0.46756000  0.75000000  1
  Ag  Ag10  1  0.50000000  0.03244000  0.25000000  1
  Ag  Ag11  1  0.50000000  0.18453600  0.25000000  1
  Ag  Ag12  1  0.50000000  0.81546400  0.75000000  1
  Ag  Ag13  1  0.50000000  0.96756000  0.75000000  1
  Ag  Ag14  1  0.00000000  0.53244000  0.25000000  1
  Ag  Ag15  1  0.00000000  0.68453600  0.25000000  1
  Ge  Ge16  1  0.50000000  0.12318800  0.75000000  1
  Ge  Ge17  1  0.00000000  0.37681200  0.25000000  1
  Ge  Ge18  1  0.00000000  0.62318800  0.75000000  1
  Ge  Ge19  1  0.50000000  0.87681200  0.25000000  1
  S  S20  1  0.69720800  0.18081400  0.65862600  1
  S  S21  1  0.20046050  0.43381650  0.54764000  1
  S  S22  1  0.29953950  0.06618350  0.45236000  1
  S  S23  1  0.80279200  0.31918600  0.34137400  1
  S  S24  1  0.79953950  0.43381650  0.95236000  1
  S  S25  1  0.30279200  0.18081400  0.84137400  1
  S  S26  1  0.19720800  0.31918600  0.15862600  1
  S  S27  1  0.70046050  0.06618350  0.04764000  1
  S  S28  1  0.19720800  0.68081400  0.65862600  1
  S  S29  1  0.70046050  0.93381650  0.54764000  1
  S  S30  1  0.79953950  0.56618350  0.45236000  1
  S  S31  1  0.30279200  0.81918600  0.34137400  1
  S  S32  1  0.29953950  0.93381650  0.95236000  1
  S  S33  1  0.80279200  0.68081400  0.84137400  1
  S  S34  1  0.69720800  0.81918600  0.15862600  1
  S  S35  1  0.20046050  0.56618350  0.04764000  1
