# generated using pymatgen
data_PCl5
_symmetry_space_group_name_H-M   'P 1'
_cell_length_a   15.28847400
_cell_length_b   8.67713000
_cell_length_c   9.24075404
_cell_angle_alpha   90.00000000
_cell_angle_beta   123.22016413
_cell_angle_gamma   90.00000000
_symmetry_Int_Tables_number   1
_chemical_formula_structural   PCl5
_chemical_formula_sum   'P6 Cl30'
_cell_volume   1025.53561893
_cell_formula_units_Z   6
loop_
 _symmetry_equiv_pos_site_id
 _symmetry_equiv_pos_as_xyz
  1  'x, y, z'
loop_
 _atom_site_type_symbol
 _atom_site_label
 _atom_site_symmetry_multiplicity
 _atom_site_fract_x
 _atom_site_fract_y
 _atom_site_fract_z
 _atom_site_occupancy
  P  P0  1  0.73985100  0.00000000  0.22380500  1
  P  P1  1  0.26014900  0.00000000  0.77619500  1
  P  P2  1  0.00000000  0.50000000  0.50000000  1
  P  P3  1  0.23985100  0.50000000  0.22380500  1
  P  P4  1  0.76014900  0.50000000  0.77619500  1
  P  P5  1  0.50000000  0.00000000  0.50000000  1
  Cl  Cl6  1  0.16128300  0.50000000  0.57420100  1
  Cl  Cl7  1  0.03682100  0.32366800  0.69152700  1
  Cl  Cl8  1  0.85178000  0.00000000  0.47116900  1
  Cl  Cl9  1  0.65278800  0.81391100  0.16699500  1
  Cl  Cl10  1  0.83871700  0.50000000  0.42579900  1
  Cl  Cl11  1  0.96317900  0.32366800  0.30847300  1
  Cl  Cl12  1  0.03682100  0.67633200  0.69152700  1
  Cl  Cl13  1  0.19516700  0.00000000  0.91067600  1
  Cl  Cl14  1  0.34721200  0.18608900  0.83300500  1
  Cl  Cl15  1  0.80483300  0.00000000  0.08932400  1
  Cl  Cl16  1  0.14822000  0.00000000  0.52883100  1
  Cl  Cl17  1  0.96317900  0.67633200  0.30847300  1
  Cl  Cl18  1  0.65278800  0.18608900  0.16699500  1
  Cl  Cl19  1  0.00000000  0.00000000  0.00000000  1
  Cl  Cl20  1  0.34721200  0.81391100  0.83300500  1
  Cl  Cl21  1  0.66128300  0.00000000  0.57420100  1
  Cl  Cl22  1  0.53682100  0.82366800  0.69152700  1
  Cl  Cl23  1  0.35178000  0.50000000  0.47116900  1
  Cl  Cl24  1  0.15278800  0.31391100  0.16699500  1
  Cl  Cl25  1  0.33871700  0.00000000  0.42579900  1
  Cl  Cl26  1  0.46317900  0.82366800  0.30847300  1
  Cl  Cl27  1  0.53682100  0.17633200  0.69152700  1
  Cl  Cl28  1  0.69516700  0.50000000  0.91067600  1
  Cl  Cl29  1  0.84721200  0.68608900  0.83300500  1
  Cl  Cl30  1  0.30483300  0.50000000  0.08932400  1
  Cl  Cl31  1  0.64822000  0.50000000  0.52883100  1
  Cl  Cl32  1  0.46317900  0.17633200  0.30847300  1
  Cl  Cl33  1  0.15278800  0.68608900  0.16699500  1
  Cl  Cl34  1  0.50000000  0.50000000  0.00000000  1
  Cl  Cl35  1  0.84721200  0.31391100  0.83300500  1
