# generated using pymatgen
data_KCu(BiS2)2
_symmetry_space_group_name_H-M   'P 1'
_cell_length_a   4.04505800
_cell_length_b   13.94676000
_cell_length_c   14.44453100
_cell_angle_alpha   90.00000000
_cell_angle_beta   90.00000000
_cell_angle_gamma   90.00000000
_symmetry_Int_Tables_number   1
_chemical_formula_structural   KCu(BiS2)2
_chemical_formula_sum   'K4 Cu4 Bi8 S16'
_cell_volume   814.89476136
_cell_formula_units_Z   4
loop_
 _symmetry_equiv_pos_site_id
 _symmetry_equiv_pos_as_xyz
  1  'x, y, z'
loop_
 _atom_site_type_symbol
 _atom_site_label
 _atom_site_symmetry_multiplicity
 _atom_site_fract_x
 _atom_site_fract_y
 _atom_site_fract_z
 _atom_site_occupancy
  K  K0  1  0.00000000  0.11176000  0.00626700  1
  K  K1  1  0.50000000  0.38824000  0.50626700  1
  K  K2  1  0.50000000  0.61176000  0.00626700  1
  K  K3  1  0.00000000  0.88824000  0.50626700  1
  Cu  Cu4  1  0.00000000  0.14653800  0.47525900  1
  Cu  Cu5  1  0.50000000  0.35346200  0.97525900  1
  Cu  Cu6  1  0.50000000  0.64653800  0.47525900  1
  Cu  Cu7  1  0.00000000  0.85346200  0.97525900  1
  Bi  Bi8  1  0.00000000  0.34907400  0.79555000  1
  Bi  Bi9  1  0.50000000  0.15092600  0.29555000  1
  Bi  Bi10  1  0.00000000  0.38234300  0.17885800  1
  Bi  Bi11  1  0.50000000  0.11765700  0.67885800  1
  Bi  Bi12  1  0.50000000  0.84907400  0.79555000  1
  Bi  Bi13  1  0.00000000  0.65092600  0.29555000  1
  Bi  Bi14  1  0.50000000  0.88234300  0.17885800  1
  Bi  Bi15  1  0.00000000  0.61765700  0.67885800  1
  S  S16  1  0.50000000  0.48285600  0.72570800  1
  S  S17  1  0.00000000  0.01714400  0.22570800  1
  S  S18  1  0.50000000  0.07124300  0.49801200  1
  S  S19  1  0.50000000  0.23209600  0.86148100  1
  S  S20  1  0.00000000  0.25176600  0.63316600  1
  S  S21  1  0.00000000  0.42875700  0.99801200  1
  S  S22  1  0.50000000  0.24823400  0.13316600  1
  S  S23  1  0.00000000  0.26790400  0.36148100  1
  S  S24  1  0.00000000  0.98285600  0.72570800  1
  S  S25  1  0.50000000  0.51714400  0.22570800  1
  S  S26  1  0.00000000  0.57124300  0.49801200  1
  S  S27  1  0.00000000  0.73209600  0.86148100  1
  S  S28  1  0.50000000  0.75176600  0.63316600  1
  S  S29  1  0.50000000  0.92875700  0.99801200  1
  S  S30  1  0.00000000  0.74823400  0.13316600  1
  S  S31  1  0.50000000  0.76790400  0.36148100  1
