# generated using pymatgen
data_AlF3
_symmetry_space_group_name_H-M   'P 1'
_cell_length_a   7.01991200
_cell_length_b   12.14196800
_cell_length_c   7.23529900
_cell_angle_alpha   90.00000000
_cell_angle_beta   90.00000000
_cell_angle_gamma   90.00000000
_symmetry_Int_Tables_number   1
_chemical_formula_structural   AlF3
_chemical_formula_sum   'Al12 F36'
_cell_volume   616.70466701
_cell_formula_units_Z   12
loop_
 _symmetry_equiv_pos_site_id
 _symmetry_equiv_pos_as_xyz
  1  'x, y, z'
loop_
 _atom_site_type_symbol
 _atom_site_label
 _atom_site_symmetry_multiplicity
 _atom_site_fract_x
 _atom_site_fract_y
 _atom_site_fract_z
 _atom_site_occupancy
  Al  Al0  1  0.50000000  0.00000000  0.00000000  1
  Al  Al1  1  0.25000000  0.25000000  0.00000000  1
  Al  Al2  1  0.50000000  0.00000000  0.50000000  1
  Al  Al3  1  0.25000000  0.75000000  0.50000000  1
  Al  Al4  1  0.25000000  0.75000000  0.00000000  1
  Al  Al5  1  0.25000000  0.25000000  0.50000000  1
  Al  Al6  1  0.00000000  0.50000000  0.00000000  1
  Al  Al7  1  0.75000000  0.75000000  0.00000000  1
  Al  Al8  1  0.00000000  0.50000000  0.50000000  1
  Al  Al9  1  0.75000000  0.25000000  0.50000000  1
  Al  Al10  1  0.75000000  0.25000000  0.00000000  1
  Al  Al11  1  0.75000000  0.75000000  0.50000000  1
  F  F12  1  0.72930400  0.26524700  0.75000000  1
  F  F13  1  0.50000000  0.01776500  0.25000000  1
  F  F14  1  0.31572100  0.10518000  0.98000500  1
  F  F15  1  0.68427900  0.10518000  0.98000500  1
  F  F16  1  0.72930400  0.73475300  0.25000000  1
  F  F17  1  0.27069600  0.26524700  0.75000000  1
  F  F18  1  0.31572100  0.89482000  0.01999500  1
  F  F19  1  0.68427900  0.10518000  0.51999500  1
  F  F20  1  0.68427900  0.89482000  0.48000500  1
  F  F21  1  0.50000000  0.71220300  0.52557900  1
  F  F22  1  0.27069600  0.73475300  0.25000000  1
  F  F23  1  0.50000000  0.71220300  0.97442100  1
  F  F24  1  0.50000000  0.28779700  0.02557900  1
  F  F25  1  0.68427900  0.89482000  0.01999500  1
  F  F26  1  0.50000000  0.28779700  0.47442100  1
  F  F27  1  0.31572100  0.89482000  0.48000500  1
  F  F28  1  0.50000000  0.98223500  0.75000000  1
  F  F29  1  0.31572100  0.10518000  0.51999500  1
  F  F30  1  0.22930400  0.76524700  0.75000000  1
  F  F31  1  0.00000000  0.51776500  0.25000000  1
  F  F32  1  0.81572100  0.60518000  0.98000500  1
  F  F33  1  0.18427900  0.60518000  0.98000500  1
  F  F34  1  0.22930400  0.23475300  0.25000000  1
  F  F35  1  0.77069600  0.76524700  0.75000000  1
  F  F36  1  0.81572100  0.39482000  0.01999500  1
  F  F37  1  0.18427900  0.60518000  0.51999500  1
  F  F38  1  0.18427900  0.39482000  0.48000500  1
  F  F39  1  0.00000000  0.21220300  0.52557900  1
  F  F40  1  0.77069600  0.23475300  0.25000000  1
  F  F41  1  0.00000000  0.21220300  0.97442100  1
  F  F42  1  0.00000000  0.78779700  0.02557900  1
  F  F43  1  0.18427900  0.39482000  0.01999500  1
  F  F44  1  0.00000000  0.78779700  0.47442100  1
  F  F45  1  0.81572100  0.39482000  0.48000500  1
  F  F46  1  0.00000000  0.48223500  0.75000000  1
  F  F47  1  0.81572100  0.60518000  0.51999500  1
