# generated using pymatgen
data_SrTa2Bi2O9
_symmetry_space_group_name_H-M   'P 1'
_cell_length_a   5.61560200
_cell_length_b   25.50873200
_cell_length_c   5.59382400
_cell_angle_alpha   90.00000000
_cell_angle_beta   90.00000000
_cell_angle_gamma   90.00000000
_symmetry_Int_Tables_number   1
_chemical_formula_structural   SrTa2Bi2O9
_chemical_formula_sum   'Sr4 Ta8 Bi8 O36'
_cell_volume   801.29787127
_cell_formula_units_Z   4
loop_
 _symmetry_equiv_pos_site_id
 _symmetry_equiv_pos_as_xyz
  1  'x, y, z'
loop_
 _atom_site_type_symbol
 _atom_site_label
 _atom_site_symmetry_multiplicity
 _atom_site_fract_x
 _atom_site_fract_y
 _atom_site_fract_z
 _atom_site_occupancy
  Sr  Sr0  1  0.98086500  0.00000000  0.00000000  1
  Sr  Sr1  1  0.48086500  0.00000000  0.50000000  1
  Sr  Sr2  1  0.48086500  0.50000000  0.00000000  1
  Sr  Sr3  1  0.98086500  0.50000000  0.50000000  1
  Ta  Ta4  1  0.98460400  0.08333100  0.50294100  1
  Ta  Ta5  1  0.48460400  0.41666900  0.49705900  1
  Ta  Ta6  1  0.48460400  0.08333100  0.99705900  1
  Ta  Ta7  1  0.98460400  0.41666900  0.00294100  1
  Ta  Ta8  1  0.48460400  0.58333100  0.50294100  1
  Ta  Ta9  1  0.98460400  0.91666900  0.49705900  1
  Ta  Ta10  1  0.98460400  0.58333100  0.99705900  1
  Ta  Ta11  1  0.48460400  0.91666900  0.00294100  1
  Bi  Bi12  1  0.08073650  0.20041350  0.97835100  1
  Bi  Bi13  1  0.58073650  0.29958650  0.02164900  1
  Bi  Bi14  1  0.08073650  0.29958650  0.47835100  1
  Bi  Bi15  1  0.58073650  0.20041350  0.52164900  1
  Bi  Bi16  1  0.58073650  0.70041350  0.97835100  1
  Bi  Bi17  1  0.08073650  0.79958650  0.02164900  1
  Bi  Bi18  1  0.58073650  0.79958650  0.47835100  1
  Bi  Bi19  1  0.08073650  0.70041350  0.52164900  1
  O  O20  1  0.46037350  0.34253050  0.46416500  1
  O  O21  1  0.78806200  0.24893500  0.26063500  1
  O  O22  1  0.28806200  0.25106500  0.73936500  1
  O  O23  1  0.96037350  0.34253050  0.03583500  1
  O  O24  1  0.47438800  0.00000000  0.00000000  1
  O  O25  1  0.97438800  0.00000000  0.50000000  1
  O  O26  1  0.24651450  0.07783650  0.26831300  1
  O  O27  1  0.74651450  0.42216350  0.73168700  1
  O  O28  1  0.70873250  0.07324450  0.73151900  1
  O  O29  1  0.78806200  0.25106500  0.76063500  1
  O  O30  1  0.20873250  0.07324450  0.76848100  1
  O  O31  1  0.24651450  0.42216350  0.76831300  1
  O  O32  1  0.70873250  0.42675550  0.23151900  1
  O  O33  1  0.74651450  0.07783650  0.23168700  1
  O  O34  1  0.46037350  0.15746950  0.96416500  1
  O  O35  1  0.20873250  0.42675550  0.26848100  1
  O  O36  1  0.96037350  0.15746950  0.53583500  1
  O  O37  1  0.28806200  0.24893500  0.23936500  1
  O  O38  1  0.96037350  0.84253050  0.46416500  1
  O  O39  1  0.28806200  0.74893500  0.26063500  1
  O  O40  1  0.78806200  0.75106500  0.73936500  1
  O  O41  1  0.46037350  0.84253050  0.03583500  1
  O  O42  1  0.97438800  0.50000000  0.00000000  1
  O  O43  1  0.47438800  0.50000000  0.50000000  1
  O  O44  1  0.74651450  0.57783650  0.26831300  1
  O  O45  1  0.24651450  0.92216350  0.73168700  1
  O  O46  1  0.20873250  0.57324450  0.73151900  1
  O  O47  1  0.28806200  0.75106500  0.76063500  1
  O  O48  1  0.70873250  0.57324450  0.76848100  1
  O  O49  1  0.74651450  0.92216350  0.76831300  1
  O  O50  1  0.20873250  0.92675550  0.23151900  1
  O  O51  1  0.24651450  0.57783650  0.23168700  1
  O  O52  1  0.96037350  0.65746950  0.96416500  1
  O  O53  1  0.70873250  0.92675550  0.26848100  1
  O  O54  1  0.46037350  0.65746950  0.53583500  1
  O  O55  1  0.78806200  0.74893500  0.23936500  1
