# generated using pymatgen
data_Hg3TeO6
_symmetry_space_group_name_H-M   'P 1'
_cell_length_a   13.75196000
_cell_length_b   13.75196000
_cell_length_c   13.75196000
_cell_angle_alpha   90.00000000
_cell_angle_beta   90.00000000
_cell_angle_gamma   90.00000000
_symmetry_Int_Tables_number   1
_chemical_formula_structural   Hg3TeO6
_chemical_formula_sum   'Hg48 Te16 O96'
_cell_volume   2600.72122097
_cell_formula_units_Z   16
loop_
 _symmetry_equiv_pos_site_id
 _symmetry_equiv_pos_as_xyz
  1  'x, y, z'
loop_
 _atom_site_type_symbol
 _atom_site_label
 _atom_site_symmetry_multiplicity
 _atom_site_fract_x
 _atom_site_fract_y
 _atom_site_fract_z
 _atom_site_occupancy
  Hg  Hg0  1  0.12500000  0.21867850  0.46867850  1
  Hg  Hg1  1  0.37500000  0.71867850  0.46867850  1
  Hg  Hg2  1  0.62500000  0.21867850  0.03132150  1
  Hg  Hg3  1  0.28132150  0.96867850  0.12500000  1
  Hg  Hg4  1  0.21867850  0.46867850  0.12500000  1
  Hg  Hg5  1  0.03132150  0.37500000  0.28132150  1
  Hg  Hg6  1  0.78132150  0.03132150  0.12500000  1
  Hg  Hg7  1  0.03132150  0.12500000  0.78132150  1
  Hg  Hg8  1  0.12500000  0.78132150  0.03132150  1
  Hg  Hg9  1  0.87500000  0.28132150  0.46867850  1
  Hg  Hg10  1  0.71867850  0.46867850  0.37500000  1
  Hg  Hg11  1  0.37500000  0.28132150  0.03132150  1
  Hg  Hg12  1  0.21867850  0.53132150  0.37500000  1
  Hg  Hg13  1  0.37500000  0.21867850  0.53132150  1
  Hg  Hg14  1  0.12500000  0.28132150  0.96867850  1
  Hg  Hg15  1  0.53132150  0.37500000  0.21867850  1
  Hg  Hg16  1  0.96867850  0.12500000  0.28132150  1
  Hg  Hg17  1  0.28132150  0.03132150  0.37500000  1
  Hg  Hg18  1  0.28132150  0.46867850  0.87500000  1
  Hg  Hg19  1  0.03132150  0.62500000  0.21867850  1
  Hg  Hg20  1  0.21867850  0.03132150  0.62500000  1
  Hg  Hg21  1  0.46867850  0.12500000  0.21867850  1
  Hg  Hg22  1  0.46867850  0.87500000  0.28132150  1
  Hg  Hg23  1  0.46867850  0.37500000  0.71867850  1
  Hg  Hg24  1  0.62500000  0.71867850  0.96867850  1
  Hg  Hg25  1  0.87500000  0.21867850  0.96867850  1
  Hg  Hg26  1  0.12500000  0.71867850  0.53132150  1
  Hg  Hg27  1  0.78132150  0.46867850  0.62500000  1
  Hg  Hg28  1  0.71867850  0.96867850  0.62500000  1
  Hg  Hg29  1  0.53132150  0.87500000  0.78132150  1
  Hg  Hg30  1  0.28132150  0.53132150  0.62500000  1
  Hg  Hg31  1  0.53132150  0.62500000  0.28132150  1
  Hg  Hg32  1  0.62500000  0.28132150  0.53132150  1
  Hg  Hg33  1  0.37500000  0.78132150  0.96867850  1
  Hg  Hg34  1  0.21867850  0.96867850  0.87500000  1
  Hg  Hg35  1  0.87500000  0.78132150  0.53132150  1
  Hg  Hg36  1  0.71867850  0.03132150  0.87500000  1
  Hg  Hg37  1  0.87500000  0.71867850  0.03132150  1
  Hg  Hg38  1  0.62500000  0.78132150  0.46867850  1
  Hg  Hg39  1  0.03132150  0.87500000  0.71867850  1
  Hg  Hg40  1  0.46867850  0.62500000  0.78132150  1
  Hg  Hg41  1  0.78132150  0.53132150  0.87500000  1
  Hg  Hg42  1  0.78132150  0.96867850  0.37500000  1
  Hg  Hg43  1  0.53132150  0.12500000  0.71867850  1
  Hg  Hg44  1  0.71867850  0.53132150  0.12500000  1
  Hg  Hg45  1  0.96867850  0.62500000  0.71867850  1
  Hg  Hg46  1  0.96867850  0.37500000  0.78132150  1
  Hg  Hg47  1  0.96867850  0.87500000  0.21867850  1
  Te  Te48  1  0.50000000  0.00000000  0.00000000  1
  Te  Te49  1  0.00000000  0.00000000  0.00000000  1
  Te  Te50  1  0.00000000  0.50000000  0.00000000  1
  Te  Te51  1  0.75000000  0.25000000  0.25000000  1
  Te  Te52  1  0.25000000  0.75000000  0.25000000  1
  Te  Te53  1  0.25000000  0.25000000  0.75000000  1
  Te  Te54  1  0.00000000  0.00000000  0.50000000  1
  Te  Te55  1  0.25000000  0.25000000  0.25000000  1
  Te  Te56  1  0.00000000  0.50000000  0.50000000  1
  Te  Te57  1  0.50000000  0.50000000  0.50000000  1
  Te  Te58  1  0.50000000  0.00000000  0.50000000  1
  Te  Te59  1  0.25000000  0.75000000  0.75000000  1
  Te  Te60  1  0.75000000  0.25000000  0.75000000  1
  Te  Te61  1  0.75000000  0.75000000  0.25000000  1
  Te  Te62  1  0.50000000  0.50000000  0.00000000  1
  Te  Te63  1  0.75000000  0.75000000  0.75000000  1
  O  O64  1  0.25692100  0.24806200  0.39372600  1
  O  O65  1  0.00692100  0.35627400  0.49806200  1
  O  O66  1  0.60627400  0.25692100  0.74806200  1
  O  O67  1  0.14372600  0.49806200  0.99307900  1
  O  O68  1  0.24806200  0.39372600  0.25692100  1
  O  O69  1  0.14372600  0.99806200  0.00692100  1
  O  O70  1  0.39372600  0.25692100  0.24806200  1
  O  O71  1  0.00193800  0.00692100  0.64372600  1
  O  O72  1  0.25193800  0.89372600  0.25692100  1
  O  O73  1  0.85627400  0.49806200  0.49307900  1
  O  O74  1  0.74806200  0.60627400  0.25692100  1
  O  O75  1  0.89372600  0.25692100  0.25193800  1
  O  O76  1  0.24307900  0.75193800  0.89372600  1
  O  O77  1  0.49806200  0.99307900  0.14372600  1
  O  O78  1  0.75692100  0.25193800  0.60627400  1
  O  O79  1  0.89372600  0.24307900  0.75193800  1
  O  O80  1  0.00193800  0.50692100  0.35627400  1
  O  O81  1  0.24307900  0.25193800  0.10627400  1
  O  O82  1  0.00193800  0.49307900  0.14372600  1
  O  O83  1  0.60627400  0.75692100  0.25193800  1
  O  O84  1  0.35627400  0.00193800  0.50692100  1
  O  O85  1  0.25692100  0.74806200  0.60627400  1
  O  O86  1  0.75193800  0.89372600  0.24307900  1
  O  O87  1  0.49307900  0.14372600  0.00193800  1
  O  O88  1  0.25193800  0.60627400  0.75692100  1
  O  O89  1  0.00692100  0.64372600  0.00193800  1
  O  O90  1  0.50193800  0.49307900  0.35627400  1
  O  O91  1  0.25193800  0.10627400  0.24307900  1
  O  O92  1  0.49806200  0.00692100  0.35627400  1
  O  O93  1  0.49806200  0.49307900  0.85627400  1
  O  O94  1  0.35627400  0.49806200  0.00692100  1
  O  O95  1  0.14372600  0.00193800  0.49307900  1
  O  O96  1  0.00692100  0.14372600  0.99806200  1
  O  O97  1  0.24806200  0.89372600  0.74307900  1
  O  O98  1  0.35627400  0.50193800  0.49307900  1
  O  O99  1  0.99307900  0.14372600  0.49806200  1
  O  O100  1  0.99806200  0.00692100  0.14372600  1
  O  O101  1  0.50692100  0.35627400  0.00193800  1
  O  O102  1  0.49307900  0.35627400  0.50193800  1
  O  O103  1  0.60627400  0.24307900  0.24806200  1
  O  O104  1  0.10627400  0.24307900  0.25193800  1
  O  O105  1  0.25692100  0.25193800  0.89372600  1
  O  O106  1  0.64372600  0.00193800  0.00692100  1
  O  O107  1  0.89372600  0.74307900  0.24806200  1
  O  O108  1  0.49307900  0.85627400  0.49806200  1
  O  O109  1  0.74307900  0.24806200  0.89372600  1
  O  O110  1  0.24806200  0.60627400  0.24307900  1
  O  O111  1  0.24307900  0.24806200  0.60627400  1
  O  O112  1  0.75692100  0.74806200  0.89372600  1
  O  O113  1  0.50692100  0.85627400  0.99806200  1
  O  O114  1  0.10627400  0.75692100  0.24806200  1
  O  O115  1  0.64372600  0.99806200  0.49307900  1
  O  O116  1  0.74806200  0.89372600  0.75692100  1
  O  O117  1  0.64372600  0.49806200  0.50692100  1
  O  O118  1  0.89372600  0.75692100  0.74806200  1
  O  O119  1  0.50193800  0.50692100  0.14372600  1
  O  O120  1  0.75193800  0.39372600  0.75692100  1
  O  O121  1  0.35627400  0.99806200  0.99307900  1
  O  O122  1  0.24806200  0.10627400  0.75692100  1
  O  O123  1  0.39372600  0.75692100  0.75193800  1
  O  O124  1  0.74307900  0.25193800  0.39372600  1
  O  O125  1  0.99806200  0.49307900  0.64372600  1
  O  O126  1  0.25692100  0.75193800  0.10627400  1
  O  O127  1  0.39372600  0.74307900  0.25193800  1
  O  O128  1  0.50193800  0.00692100  0.85627400  1
  O  O129  1  0.74307900  0.75193800  0.60627400  1
  O  O130  1  0.50193800  0.99307900  0.64372600  1
  O  O131  1  0.10627400  0.25692100  0.75193800  1
  O  O132  1  0.85627400  0.50193800  0.00692100  1
  O  O133  1  0.75692100  0.24806200  0.10627400  1
  O  O134  1  0.25193800  0.39372600  0.74307900  1
  O  O135  1  0.99307900  0.64372600  0.50193800  1
  O  O136  1  0.75193800  0.10627400  0.25692100  1
  O  O137  1  0.50692100  0.14372600  0.50193800  1
  O  O138  1  0.00193800  0.99307900  0.85627400  1
  O  O139  1  0.75193800  0.60627400  0.74307900  1
  O  O140  1  0.99806200  0.50692100  0.85627400  1
  O  O141  1  0.99806200  0.99307900  0.35627400  1
  O  O142  1  0.85627400  0.99806200  0.50692100  1
  O  O143  1  0.64372600  0.50193800  0.99307900  1
  O  O144  1  0.50692100  0.64372600  0.49806200  1
  O  O145  1  0.74806200  0.39372600  0.24307900  1
  O  O146  1  0.85627400  0.00193800  0.99307900  1
  O  O147  1  0.49307900  0.64372600  0.99806200  1
  O  O148  1  0.49806200  0.50692100  0.64372600  1
  O  O149  1  0.00692100  0.85627400  0.50193800  1
  O  O150  1  0.99307900  0.85627400  0.00193800  1
  O  O151  1  0.10627400  0.74307900  0.74806200  1
  O  O152  1  0.60627400  0.74307900  0.75193800  1
  O  O153  1  0.75692100  0.75193800  0.39372600  1
  O  O154  1  0.14372600  0.50193800  0.50692100  1
  O  O155  1  0.39372600  0.24307900  0.74806200  1
  O  O156  1  0.99307900  0.35627400  0.99806200  1
  O  O157  1  0.24307900  0.74806200  0.39372600  1
  O  O158  1  0.74806200  0.10627400  0.74307900  1
  O  O159  1  0.74307900  0.74806200  0.10627400  1
