# generated using pymatgen
data_P4O9
_symmetry_space_group_name_H-M   'P 1'
_cell_length_a   10.10087207
_cell_length_b   10.10087207
_cell_length_c   26.02420337
_cell_angle_alpha   90.00000000
_cell_angle_beta   90.00000000
_cell_angle_gamma   120.00000000
_symmetry_Int_Tables_number   1
_chemical_formula_structural   P4O9
_chemical_formula_sum   'P48 O108'
_cell_volume   2299.45977576
_cell_formula_units_Z   12
loop_
 _symmetry_equiv_pos_site_id
 _symmetry_equiv_pos_as_xyz
  1  'x, y, z'
loop_
 _atom_site_type_symbol
 _atom_site_label
 _atom_site_symmetry_multiplicity
 _atom_site_fract_x
 _atom_site_fract_y
 _atom_site_fract_z
 _atom_site_occupancy
  P  P0  1  0.33333333  0.66666667  0.08944467  1
  P  P1  1  0.00000000  0.00000000  0.07722200  1
  P  P2  1  0.33333333  0.66666667  0.24388867  1
  P  P3  1  0.66666667  0.33333333  0.25611133  1
  P  P4  1  0.87348100  0.81611800  0.33016500  1
  P  P5  1  0.18388200  0.05736300  0.33016500  1
  P  P6  1  0.94263700  0.12651900  0.33016500  1
  P  P7  1  0.05736300  0.18388200  0.16983500  1
  P  P8  1  0.81611800  0.87348100  0.16983500  1
  P  P9  1  0.12651900  0.94263700  0.16983500  1
  P  P10  1  0.79318567  0.51721533  0.00316833  1
  P  P11  1  0.48278467  0.27597033  0.00316833  1
  P  P12  1  0.72402967  0.20681433  0.00316833  1
  P  P13  1  0.60930367  0.14945133  0.16349833  1
  P  P14  1  0.85054867  0.45985233  0.16349833  1
  P  P15  1  0.54014767  0.39069633  0.16349833  1
  P  P16  1  0.00000000  0.00000000  0.42277800  1
  P  P17  1  0.66666667  0.33333333  0.41055533  1
  P  P18  1  0.00000000  0.00000000  0.57722200  1
  P  P19  1  0.33333333  0.66666667  0.58944467  1
  P  P20  1  0.54014767  0.14945133  0.66349833  1
  P  P21  1  0.85054867  0.39069633  0.66349833  1
  P  P22  1  0.60930367  0.45985233  0.66349833  1
  P  P23  1  0.72402967  0.51721533  0.50316833  1
  P  P24  1  0.48278467  0.20681433  0.50316833  1
  P  P25  1  0.79318567  0.27597033  0.50316833  1
  P  P26  1  0.45985233  0.85054867  0.33650167  1
  P  P27  1  0.14945133  0.60930367  0.33650167  1
  P  P28  1  0.39069633  0.54014767  0.33650167  1
  P  P29  1  0.27597033  0.48278467  0.49683167  1
  P  P30  1  0.51721533  0.79318567  0.49683167  1
  P  P31  1  0.20681433  0.72402967  0.49683167  1
  P  P32  1  0.66666667  0.33333333  0.75611133  1
  P  P33  1  0.33333333  0.66666667  0.74388867  1
  P  P34  1  0.66666667  0.33333333  0.91055533  1
  P  P35  1  0.00000000  0.00000000  0.92277800  1
  P  P36  1  0.20681433  0.48278467  0.99683167  1
  P  P37  1  0.51721533  0.72402967  0.99683167  1
  P  P38  1  0.27597033  0.79318567  0.99683167  1
  P  P39  1  0.39069633  0.85054867  0.83650167  1
  P  P40  1  0.14945133  0.54014767  0.83650167  1
  P  P41  1  0.45985233  0.60930367  0.83650167  1
  P  P42  1  0.12651900  0.18388200  0.66983500  1
  P  P43  1  0.81611800  0.94263700  0.66983500  1
  P  P44  1  0.05736300  0.87348100  0.66983500  1
  P  P45  1  0.94263700  0.81611800  0.83016500  1
  P  P46  1  0.18388200  0.12651900  0.83016500  1
  P  P47  1  0.87348100  0.05736300  0.83016500  1
  O  O48  1  0.21917233  0.50196067  0.05780967  1
  O  O49  1  0.49803933  0.71721167  0.05780967  1
  O  O50  1  0.28278833  0.78082767  0.05780967  1
  O  O51  1  0.05054500  0.16470600  0.10885700  1
  O  O52  1  0.83529400  0.88583900  0.10885700  1
  O  O53  1  0.11416100  0.94945500  0.10885700  1
  O  O54  1  0.44749433  0.83137267  0.27552367  1
  O  O55  1  0.16862733  0.61612167  0.27552367  1
  O  O56  1  0.38387833  0.55250567  0.27552367  1
  O  O57  1  0.61612167  0.16862733  0.22447633  1
  O  O58  1  0.83137267  0.44749433  0.22447633  1
  O  O59  1  0.55250567  0.38387833  0.22447633  1
  O  O60  1  0.83766867  0.94978033  0.31212833  1
  O  O61  1  0.05021967  0.88788833  0.31212833  1
  O  O62  1  0.11211167  0.16233133  0.31212833  1
  O  O63  1  0.88788833  0.05021967  0.18787167  1
  O  O64  1  0.94978033  0.83766867  0.18787167  1
  O  O65  1  0.16233133  0.11211167  0.18787167  1
  O  O66  1  0.82899800  0.38355300  0.02120500  1
  O  O67  1  0.61644700  0.44544500  0.02120500  1
  O  O68  1  0.55455500  0.17100200  0.02120500  1
  O  O69  1  0.77877833  0.28311367  0.14546167  1
  O  O70  1  0.71688633  0.49566467  0.14546167  1
  O  O71  1  0.50433533  0.22122167  0.14546167  1
  O  O72  1  0.76785067  0.66647733  0.30914333  1
  O  O73  1  0.33352267  0.10137333  0.30914333  1
  O  O74  1  0.89862667  0.23214933  0.30914333  1
  O  O75  1  0.10137333  0.33352267  0.19085667  1
  O  O76  1  0.66647733  0.76785067  0.19085667  1
  O  O77  1  0.23214933  0.89862667  0.19085667  1
  O  O78  1  0.89881600  0.66685600  0.02419000  1
  O  O79  1  0.33314400  0.23196000  0.02419000  1
  O  O80  1  0.76804000  0.10118400  0.02419000  1
  O  O81  1  0.56529333  0.99981067  0.14247667  1
  O  O82  1  0.00018933  0.56548267  0.14247667  1
  O  O83  1  0.43451733  0.43470667  0.14247667  1
  O  O84  1  0.88583900  0.83529400  0.39114300  1
  O  O85  1  0.16470600  0.05054500  0.39114300  1
  O  O86  1  0.94945500  0.11416100  0.39114300  1
  O  O87  1  0.71721167  0.49803933  0.44219033  1
  O  O88  1  0.50196067  0.21917233  0.44219033  1
  O  O89  1  0.78082767  0.28278833  0.44219033  1
  O  O90  1  0.11416100  0.16470600  0.60885700  1
  O  O91  1  0.83529400  0.94945500  0.60885700  1
  O  O92  1  0.05054500  0.88583900  0.60885700  1
  O  O93  1  0.28278833  0.50196067  0.55780967  1
  O  O94  1  0.49803933  0.78082767  0.55780967  1
  O  O95  1  0.21917233  0.71721167  0.55780967  1
  O  O96  1  0.50433533  0.28311367  0.64546167  1
  O  O97  1  0.71688633  0.22122167  0.64546167  1
  O  O98  1  0.77877833  0.49566467  0.64546167  1
  O  O99  1  0.55455500  0.38355300  0.52120500  1
  O  O100  1  0.61644700  0.17100200  0.52120500  1
  O  O101  1  0.82899800  0.44544500  0.52120500  1
  O  O102  1  0.49566467  0.71688633  0.35453833  1
  O  O103  1  0.28311367  0.77877833  0.35453833  1
  O  O104  1  0.22122167  0.50433533  0.35453833  1
  O  O105  1  0.44544500  0.61644700  0.47879500  1
  O  O106  1  0.38355300  0.82899800  0.47879500  1
  O  O107  1  0.17100200  0.55455500  0.47879500  1
  O  O108  1  0.43451733  0.99981067  0.64247667  1
  O  O109  1  0.00018933  0.43470667  0.64247667  1
  O  O110  1  0.56529333  0.56548267  0.64247667  1
  O  O111  1  0.76804000  0.66685600  0.52419000  1
  O  O112  1  0.33314400  0.10118400  0.52419000  1
  O  O113  1  0.89881600  0.23196000  0.52419000  1
  O  O114  1  0.56548267  0.00018933  0.35752333  1
  O  O115  1  0.99981067  0.56529333  0.35752333  1
  O  O116  1  0.43470667  0.43451733  0.35752333  1
  O  O117  1  0.23196000  0.33314400  0.47581000  1
  O  O118  1  0.66685600  0.89881600  0.47581000  1
  O  O119  1  0.10118400  0.76804000  0.47581000  1
  O  O120  1  0.55250567  0.16862733  0.72447633  1
  O  O121  1  0.83137267  0.38387833  0.72447633  1
  O  O122  1  0.61612167  0.44749433  0.72447633  1
  O  O123  1  0.38387833  0.83137267  0.77552367  1
  O  O124  1  0.16862733  0.55250567  0.77552367  1
  O  O125  1  0.44749433  0.61612167  0.77552367  1
  O  O126  1  0.78082767  0.49803933  0.94219033  1
  O  O127  1  0.50196067  0.28278833  0.94219033  1
  O  O128  1  0.71721167  0.21917233  0.94219033  1
  O  O129  1  0.94945500  0.83529400  0.89114300  1
  O  O130  1  0.16470600  0.11416100  0.89114300  1
  O  O131  1  0.88583900  0.05054500  0.89114300  1
  O  O132  1  0.17100200  0.61644700  0.97879500  1
  O  O133  1  0.38355300  0.55455500  0.97879500  1
  O  O134  1  0.44544500  0.82899800  0.97879500  1
  O  O135  1  0.22122167  0.71688633  0.85453833  1
  O  O136  1  0.28311367  0.50433533  0.85453833  1
  O  O137  1  0.49566467  0.77877833  0.85453833  1
  O  O138  1  0.16233133  0.05021967  0.68787167  1
  O  O139  1  0.94978033  0.11211167  0.68787167  1
  O  O140  1  0.88788833  0.83766867  0.68787167  1
  O  O141  1  0.11211167  0.94978033  0.81212833  1
  O  O142  1  0.05021967  0.16233133  0.81212833  1
  O  O143  1  0.83766867  0.88788833  0.81212833  1
  O  O144  1  0.10118400  0.33314400  0.97581000  1
  O  O145  1  0.66685600  0.76804000  0.97581000  1
  O  O146  1  0.23196000  0.89881600  0.97581000  1
  O  O147  1  0.43470667  0.00018933  0.85752333  1
  O  O148  1  0.99981067  0.43451733  0.85752333  1
  O  O149  1  0.56548267  0.56529333  0.85752333  1
  O  O150  1  0.23214933  0.33352267  0.69085667  1
  O  O151  1  0.66647733  0.89862667  0.69085667  1
  O  O152  1  0.10137333  0.76785067  0.69085667  1
  O  O153  1  0.89862667  0.66647733  0.80914333  1
  O  O154  1  0.33352267  0.23214933  0.80914333  1
  O  O155  1  0.76785067  0.10137333  0.80914333  1
