# generated using pymatgen
data_Sr2TmNbO6
_symmetry_space_group_name_H-M   'P 1'
_cell_length_a   5.90626400
_cell_length_b   5.93949000
_cell_length_c   8.35541000
_cell_angle_alpha   90.00000000
_cell_angle_beta   90.00000000
_cell_angle_gamma   90.00000000
_symmetry_Int_Tables_number   1
_chemical_formula_structural   Sr2TmNbO6
_chemical_formula_sum   'Sr4 Tm2 Nb2 O12'
_cell_volume   293.10942017
_cell_formula_units_Z   2
loop_
 _symmetry_equiv_pos_site_id
 _symmetry_equiv_pos_as_xyz
  1  'x, y, z'
loop_
 _atom_site_type_symbol
 _atom_site_label
 _atom_site_symmetry_multiplicity
 _atom_site_fract_x
 _atom_site_fract_y
 _atom_site_fract_z
 _atom_site_occupancy
  Sr  Sr0  1  0.50422000  0.98080200  0.74838100  1
  Sr  Sr1  1  0.00422000  0.51919800  0.24838100  1
  Sr  Sr2  1  0.00422000  0.48080200  0.75161900  1
  Sr  Sr3  1  0.50422000  0.01919800  0.25161900  1
  Tm  Tm4  1  0.00365300  0.00000000  0.50000000  1
  Tm  Tm5  1  0.50365300  0.50000000  0.00000000  1
  Nb  Nb6  1  0.00323900  0.00000000  0.00000000  1
  Nb  Nb7  1  0.50323900  0.50000000  0.50000000  1
  O  O8  1  0.27420800  0.24973200  0.50866100  1
  O  O9  1  0.48192100  0.51339800  0.73968000  1
  O  O10  1  0.77420800  0.25026800  0.00866100  1
  O  O11  1  0.48192100  0.48660200  0.26032000  1
  O  O12  1  0.77420800  0.74973200  0.99133900  1
  O  O13  1  0.27420800  0.75026800  0.49133900  1
  O  O14  1  0.25230500  0.23056900  0.99597400  1
  O  O15  1  0.75230500  0.73056900  0.50402600  1
  O  O16  1  0.98192100  0.01339800  0.76032000  1
  O  O17  1  0.25230500  0.76943100  0.00402600  1
  O  O18  1  0.75230500  0.26943100  0.49597400  1
  O  O19  1  0.98192100  0.98660200  0.23968000  1
