# generated using pymatgen
data_K2PrZr(PO4)3
_symmetry_space_group_name_H-M   'P 1'
_cell_length_a   10.63325100
_cell_length_b   10.63325100
_cell_length_c   10.63325100
_cell_angle_alpha   90.00000000
_cell_angle_beta   90.00000000
_cell_angle_gamma   90.00000000
_symmetry_Int_Tables_number   1
_chemical_formula_structural   K2PrZr(PO4)3
_chemical_formula_sum   'K8 Pr4 Zr4 P12 O48'
_cell_volume   1202.25944285
_cell_formula_units_Z   4
loop_
 _symmetry_equiv_pos_site_id
 _symmetry_equiv_pos_as_xyz
  1  'x, y, z'
loop_
 _atom_site_type_symbol
 _atom_site_label
 _atom_site_symmetry_multiplicity
 _atom_site_fract_x
 _atom_site_fract_y
 _atom_site_fract_z
 _atom_site_occupancy
  K  K0  1  0.07142300  0.07142300  0.07142300  1
  K  K1  1  0.92857700  0.57142300  0.42857700  1
  K  K2  1  0.42857700  0.92857700  0.57142300  1
  K  K3  1  0.20265400  0.70265400  0.79734600  1
  K  K4  1  0.79734600  0.20265400  0.70265400  1
  K  K5  1  0.57142300  0.42857700  0.92857700  1
  K  K6  1  0.70265400  0.79734600  0.20265400  1
  K  K7  1  0.29734600  0.29734600  0.29734600  1
  Pr  Pr8  1  0.92405800  0.42405800  0.07594200  1
  Pr  Pr9  1  0.07594200  0.92405800  0.42405800  1
  Pr  Pr10  1  0.42405800  0.07594200  0.92405800  1
  Pr  Pr11  1  0.57594200  0.57594200  0.57594200  1
  Zr  Zr12  1  0.85341800  0.85341800  0.85341800  1
  Zr  Zr13  1  0.14658200  0.35341800  0.64658200  1
  Zr  Zr14  1  0.35341800  0.64658200  0.14658200  1
  Zr  Zr15  1  0.64658200  0.14658200  0.35341800  1
  P  P16  1  0.54150200  0.75122100  0.88070700  1
  P  P17  1  0.75122100  0.88070700  0.54150200  1
  P  P18  1  0.38070700  0.95849800  0.24877900  1
  P  P19  1  0.95849800  0.24877900  0.38070700  1
  P  P20  1  0.25122100  0.61929300  0.45849800  1
  P  P21  1  0.11929300  0.04150200  0.74877900  1
  P  P22  1  0.45849800  0.25122100  0.61929300  1
  P  P23  1  0.74877900  0.11929300  0.04150200  1
  P  P24  1  0.24877900  0.38070700  0.95849800  1
  P  P25  1  0.04150200  0.74877900  0.11929300  1
  P  P26  1  0.88070700  0.54150200  0.75122100  1
  P  P27  1  0.61929300  0.45849800  0.25122100  1
  O  O28  1  0.12379300  0.33845900  0.01778500  1
  O  O29  1  0.83845900  0.48221500  0.87620700  1
  O  O30  1  0.85146800  0.21960400  0.02535600  1
  O  O31  1  0.58611900  0.31611800  0.26772500  1
  O  O32  1  0.26772500  0.58611900  0.31611800  1
  O  O33  1  0.00305000  0.47419400  0.70597100  1
  O  O34  1  0.28039600  0.97464400  0.35146800  1
  O  O35  1  0.62379300  0.16154100  0.98221500  1
  O  O36  1  0.52535600  0.64853200  0.78039600  1
  O  O37  1  0.16154100  0.98221500  0.62379300  1
  O  O38  1  0.48221500  0.87620700  0.83845900  1
  O  O39  1  0.47464400  0.14853200  0.71960400  1
  O  O40  1  0.41388100  0.81611800  0.23227500  1
  O  O41  1  0.49695000  0.52580600  0.20597100  1
  O  O42  1  0.20597100  0.49695000  0.52580600  1
  O  O43  1  0.99695000  0.97419400  0.79402900  1
  O  O44  1  0.97464400  0.35146800  0.28039600  1
  O  O45  1  0.66154100  0.51778500  0.37620700  1
  O  O46  1  0.78039600  0.52535600  0.64853200  1
  O  O47  1  0.73227500  0.08611900  0.18388200  1
  O  O48  1  0.91388100  0.68388200  0.76772500  1
  O  O49  1  0.51778500  0.37620700  0.66154100  1
  O  O50  1  0.71960400  0.47464400  0.14853200  1
  O  O51  1  0.76772500  0.91388100  0.68388200  1
  O  O52  1  0.47419400  0.70597100  0.00305000  1
  O  O53  1  0.98221500  0.62379300  0.16154100  1
  O  O54  1  0.68388200  0.76772500  0.91388100  1
  O  O55  1  0.01778500  0.12379300  0.33845900  1
  O  O56  1  0.02580600  0.29402900  0.50305000  1
  O  O57  1  0.18388200  0.73227500  0.08611900  1
  O  O58  1  0.50305000  0.02580600  0.29402900  1
  O  O59  1  0.29402900  0.50305000  0.02580600  1
  O  O60  1  0.37620700  0.66154100  0.51778500  1
  O  O61  1  0.97419400  0.79402900  0.99695000  1
  O  O62  1  0.02535600  0.85146800  0.21960400  1
  O  O63  1  0.52580600  0.20597100  0.49695000  1
  O  O64  1  0.79402900  0.99695000  0.97419400  1
  O  O65  1  0.81611800  0.23227500  0.41388100  1
  O  O66  1  0.08611900  0.18388200  0.73227500  1
  O  O67  1  0.64853200  0.78039600  0.52535600  1
  O  O68  1  0.31611800  0.26772500  0.58611900  1
  O  O69  1  0.14853200  0.71960400  0.47464400  1
  O  O70  1  0.70597100  0.00305000  0.47419400  1
  O  O71  1  0.23227500  0.41388100  0.81611800  1
  O  O72  1  0.21960400  0.02535600  0.85146800  1
  O  O73  1  0.87620700  0.83845900  0.48221500  1
  O  O74  1  0.35146800  0.28039600  0.97464400  1
  O  O75  1  0.33845900  0.01778500  0.12379300  1
