# generated using pymatgen
data_BaPb2C2(O3F)2
_symmetry_space_group_name_H-M   'P 1'
_cell_length_a   5.24875990
_cell_length_b   5.24875990
_cell_length_c   24.05142939
_cell_angle_alpha   90.00000000
_cell_angle_beta   90.00000000
_cell_angle_gamma   120.00000000
_symmetry_Int_Tables_number   1
_chemical_formula_structural   BaPb2C2(O3F)2
_chemical_formula_sum   'Ba3 Pb6 C6 O18 F6'
_cell_volume   573.83223066
_cell_formula_units_Z   3
loop_
 _symmetry_equiv_pos_site_id
 _symmetry_equiv_pos_as_xyz
  1  'x, y, z'
loop_
 _atom_site_type_symbol
 _atom_site_label
 _atom_site_symmetry_multiplicity
 _atom_site_fract_x
 _atom_site_fract_y
 _atom_site_fract_z
 _atom_site_occupancy
  Ba  Ba0  1  0.00000000  0.00000000  0.00000000  1
  Ba  Ba1  1  0.66666667  0.33333333  0.33333333  1
  Ba  Ba2  1  0.33333333  0.66666667  0.66666667  1
  Pb  Pb3  1  0.00000000  0.00000000  0.21656100  1
  Pb  Pb4  1  0.66666667  0.33333333  0.11677233  1
  Pb  Pb5  1  0.66666667  0.33333333  0.54989433  1
  Pb  Pb6  1  0.33333333  0.66666667  0.45010567  1
  Pb  Pb7  1  0.33333333  0.66666667  0.88322767  1
  Pb  Pb8  1  0.00000000  0.00000000  0.78343900  1
  C  C9  1  0.33333333  0.66666667  0.09648067  1
  C  C10  1  0.33333333  0.66666667  0.23685267  1
  C  C11  1  0.00000000  0.00000000  0.42981400  1
  C  C12  1  0.00000000  0.00000000  0.57018600  1
  C  C13  1  0.66666667  0.33333333  0.76314733  1
  C  C14  1  0.66666667  0.33333333  0.90351933  1
  O  O15  1  0.19039067  0.80960933  0.09728933  1
  O  O16  1  0.47627600  0.52372400  0.23604400  1
  O  O17  1  0.19039067  0.38078133  0.09728933  1
  O  O18  1  0.47627600  0.95255200  0.23604400  1
  O  O19  1  0.04744800  0.52372400  0.23604400  1
  O  O20  1  0.61921867  0.80960933  0.09728933  1
  O  O21  1  0.85705733  0.14294267  0.43062267  1
  O  O22  1  0.14294267  0.85705733  0.56937733  1
  O  O23  1  0.85705733  0.71411467  0.43062267  1
  O  O24  1  0.14294267  0.28588533  0.56937733  1
  O  O25  1  0.71411467  0.85705733  0.56937733  1
  O  O26  1  0.28588533  0.14294267  0.43062267  1
  O  O27  1  0.52372400  0.47627600  0.76395600  1
  O  O28  1  0.80960933  0.19039067  0.90271067  1
  O  O29  1  0.52372400  0.04744800  0.76395600  1
  O  O30  1  0.80960933  0.61921867  0.90271067  1
  O  O31  1  0.38078133  0.19039067  0.90271067  1
  O  O32  1  0.95255200  0.47627600  0.76395600  1
  F  F33  1  0.00000000  0.00000000  0.30981700  1
  F  F34  1  0.66666667  0.33333333  0.02351633  1
  F  F35  1  0.66666667  0.33333333  0.64315033  1
  F  F36  1  0.33333333  0.66666667  0.35684967  1
  F  F37  1  0.33333333  0.66666667  0.97648367  1
  F  F38  1  0.00000000  0.00000000  0.69018300  1
