# generated using pymatgen
data_NaHf2CuSe5
_symmetry_space_group_name_H-M   'P 1'
_cell_length_a   3.79377800
_cell_length_b   13.94771600
_cell_length_c   16.29189000
_cell_angle_alpha   90.00000000
_cell_angle_beta   90.00000000
_cell_angle_gamma   90.00000000
_symmetry_Int_Tables_number   1
_chemical_formula_structural   NaHf2CuSe5
_chemical_formula_sum   'Na4 Hf8 Cu4 Se20'
_cell_volume   862.07783431
_cell_formula_units_Z   4
loop_
 _symmetry_equiv_pos_site_id
 _symmetry_equiv_pos_as_xyz
  1  'x, y, z'
loop_
 _atom_site_type_symbol
 _atom_site_label
 _atom_site_symmetry_multiplicity
 _atom_site_fract_x
 _atom_site_fract_y
 _atom_site_fract_z
 _atom_site_occupancy
  Na  Na0  1  0.50000000  0.46615000  0.75000000  1
  Na  Na1  1  0.00000000  0.03385000  0.25000000  1
  Na  Na2  1  0.00000000  0.96615000  0.75000000  1
  Na  Na3  1  0.50000000  0.53385000  0.25000000  1
  Hf  Hf4  1  0.50000000  0.29062300  0.40156100  1
  Hf  Hf5  1  0.00000000  0.20937700  0.90156100  1
  Hf  Hf6  1  0.50000000  0.29062300  0.09843900  1
  Hf  Hf7  1  0.00000000  0.20937700  0.59843900  1
  Hf  Hf8  1  0.00000000  0.79062300  0.40156100  1
  Hf  Hf9  1  0.50000000  0.70937700  0.90156100  1
  Hf  Hf10  1  0.00000000  0.79062300  0.09843900  1
  Hf  Hf11  1  0.50000000  0.70937700  0.59843900  1
  Cu  Cu12  1  0.50000000  0.17745400  0.75000000  1
  Cu  Cu13  1  0.00000000  0.32254600  0.25000000  1
  Cu  Cu14  1  0.00000000  0.67745400  0.75000000  1
  Cu  Cu15  1  0.50000000  0.82254600  0.25000000  1
  Se  Se16  1  0.50000000  0.34018300  0.93930400  1
  Se  Se17  1  0.00000000  0.15981700  0.43930400  1
  Se  Se18  1  0.50000000  0.20896400  0.25000000  1
  Se  Se19  1  0.50000000  0.07763800  0.87184800  1
  Se  Se20  1  0.50000000  0.34018300  0.56069600  1
  Se  Se21  1  0.00000000  0.42236200  0.37184800  1
  Se  Se22  1  0.00000000  0.42236200  0.12815200  1
  Se  Se23  1  0.50000000  0.07763800  0.62815200  1
  Se  Se24  1  0.00000000  0.15981700  0.06069600  1
  Se  Se25  1  0.00000000  0.29103600  0.75000000  1
  Se  Se26  1  0.00000000  0.84018300  0.93930400  1
  Se  Se27  1  0.50000000  0.65981700  0.43930400  1
  Se  Se28  1  0.00000000  0.70896400  0.25000000  1
  Se  Se29  1  0.00000000  0.57763800  0.87184800  1
  Se  Se30  1  0.00000000  0.84018300  0.56069600  1
  Se  Se31  1  0.50000000  0.92236200  0.37184800  1
  Se  Se32  1  0.50000000  0.92236200  0.12815200  1
  Se  Se33  1  0.00000000  0.57763800  0.62815200  1
  Se  Se34  1  0.50000000  0.65981700  0.06069600  1
  Se  Se35  1  0.50000000  0.79103600  0.75000000  1
