# generated using pymatgen
data_Na5Ca4P4O16F
_symmetry_space_group_name_H-M   'P 1'
_cell_length_a   11.75024800
_cell_length_b   11.75024800
_cell_length_c   5.47224800
_cell_angle_alpha   90.00000000
_cell_angle_beta   90.00000000
_cell_angle_gamma   90.00000000
_symmetry_Int_Tables_number   1
_chemical_formula_structural   Na5Ca4P4O16F
_chemical_formula_sum   'Na10 Ca8 P8 O32 F2'
_cell_volume   755.54413210
_cell_formula_units_Z   2
loop_
 _symmetry_equiv_pos_site_id
 _symmetry_equiv_pos_as_xyz
  1  'x, y, z'
loop_
 _atom_site_type_symbol
 _atom_site_label
 _atom_site_symmetry_multiplicity
 _atom_site_fract_x
 _atom_site_fract_y
 _atom_site_fract_z
 _atom_site_occupancy
  Na  Na0  1  0.11166800  0.09385800  0.75952100  1
  Na  Na1  1  0.40614200  0.61166800  0.74047900  1
  Na  Na2  1  0.59385800  0.38833200  0.74047900  1
  Na  Na3  1  0.50000000  0.00000000  0.25000000  1
  Na  Na4  1  0.88833200  0.90614200  0.75952100  1
  Na  Na5  1  0.61166800  0.59385800  0.25952100  1
  Na  Na6  1  0.90614200  0.11166800  0.24047900  1
  Na  Na7  1  0.09385800  0.88833200  0.24047900  1
  Na  Na8  1  0.00000000  0.50000000  0.75000000  1
  Na  Na9  1  0.38833200  0.40614200  0.25952100  1
  Ca  Ca10  1  0.67851800  0.11155700  0.76935900  1
  Ca  Ca11  1  0.61155700  0.82148200  0.73064100  1
  Ca  Ca12  1  0.38844300  0.17851800  0.73064100  1
  Ca  Ca13  1  0.32148200  0.88844300  0.76935900  1
  Ca  Ca14  1  0.17851800  0.61155700  0.26935900  1
  Ca  Ca15  1  0.11155700  0.32148200  0.23064100  1
  Ca  Ca16  1  0.88844300  0.67851800  0.23064100  1
  Ca  Ca17  1  0.82148200  0.38844300  0.26935900  1
  P  P18  1  0.39534700  0.75015400  0.23966700  1
  P  P19  1  0.60465300  0.24984600  0.23966700  1
  P  P20  1  0.74984600  0.89534700  0.26033300  1
  P  P21  1  0.25015400  0.10465300  0.26033300  1
  P  P22  1  0.89534700  0.25015400  0.73966700  1
  P  P23  1  0.10465300  0.74984600  0.73966700  1
  P  P24  1  0.24984600  0.39534700  0.76033300  1
  P  P25  1  0.75015400  0.60465300  0.76033300  1
  O  O26  1  0.88236350  0.89686350  0.22791850  1
  O  O27  1  0.28292850  0.03763950  0.49562750  1
  O  O28  1  0.72871450  0.20824650  0.20439450  1
  O  O29  1  0.53763950  0.21707150  0.00437250  1
  O  O30  1  0.29175350  0.22871450  0.29560550  1
  O  O31  1  0.30750250  0.04971450  0.03316950  1
  O  O32  1  0.46236050  0.78292850  0.00437250  1
  O  O33  1  0.70824650  0.77128550  0.29560550  1
  O  O34  1  0.39686350  0.61763650  0.27208150  1
  O  O35  1  0.71707150  0.96236050  0.49562750  1
  O  O36  1  0.60313650  0.38236350  0.27208150  1
  O  O37  1  0.54971450  0.19249750  0.46683050  1
  O  O38  1  0.69249750  0.95028550  0.03316950  1
  O  O39  1  0.27128550  0.79175350  0.20439450  1
  O  O40  1  0.45028550  0.80750250  0.46683050  1
  O  O41  1  0.11763650  0.10313650  0.22791850  1
  O  O42  1  0.38236350  0.39686350  0.72791850  1
  O  O43  1  0.78292850  0.53763950  0.99562750  1
  O  O44  1  0.22871450  0.70824650  0.70439450  1
  O  O45  1  0.03763950  0.71707150  0.50437250  1
  O  O46  1  0.79175350  0.72871450  0.79560550  1
  O  O47  1  0.80750250  0.54971450  0.53316950  1
  O  O48  1  0.96236050  0.28292850  0.50437250  1
  O  O49  1  0.20824650  0.27128550  0.79560550  1
  O  O50  1  0.89686350  0.11763650  0.77208150  1
  O  O51  1  0.21707150  0.46236050  0.99562750  1
  O  O52  1  0.10313650  0.88236350  0.77208150  1
  O  O53  1  0.04971450  0.69249750  0.96683050  1
  O  O54  1  0.19249750  0.45028550  0.53316950  1
  O  O55  1  0.77128550  0.29175350  0.70439450  1
  O  O56  1  0.95028550  0.30750250  0.96683050  1
  O  O57  1  0.61763650  0.60313650  0.72791850  1
  F  F58  1  0.50000000  0.00000000  0.75000000  1
  F  F59  1  0.00000000  0.50000000  0.25000000  1
