# generated using pymatgen
data_H11C4NO10
_symmetry_space_group_name_H-M   'P 1'
_cell_length_a   6.61338600
_cell_length_b   7.28334284
_cell_length_c   10.61084217
_cell_angle_alpha   92.37605316
_cell_angle_beta   102.08228746
_cell_angle_gamma   100.01912224
_symmetry_Int_Tables_number   1
_chemical_formula_structural   H11C4NO10
_chemical_formula_sum   'H22 C8 N2 O20'
_cell_volume   490.54273321
_cell_formula_units_Z   2
loop_
 _symmetry_equiv_pos_site_id
 _symmetry_equiv_pos_as_xyz
  1  'x, y, z'
loop_
 _atom_site_type_symbol
 _atom_site_label
 _atom_site_symmetry_multiplicity
 _atom_site_fract_x
 _atom_site_fract_y
 _atom_site_fract_z
 _atom_site_occupancy
  H  H0  1  0.24233400  0.19534800  0.10627200  1
  H  H1  1  0.17275100  0.25797000  0.85041100  1
  H  H2  1  0.14353900  0.79782900  0.55902600  1
  H  H3  1  0.80227400  0.96331000  0.18971000  1
  H  H4  1  0.74820400  0.78788500  0.28706200  1
  H  H5  1  0.73985900  0.01863900  0.92658800  1
  H  H6  1  0.85646100  0.20217100  0.44097400  1
  H  H7  1  0.75766600  0.80465200  0.89372800  1
  H  H8  1  0.65322300  0.43595300  0.74608900  1
  H  H9  1  0.37294100  0.07166200  0.25183900  1
  H  H10  1  0.00246800  0.12826000  0.72115600  1
  H  H11  1  0.91205900  0.70083100  0.56991900  1
  H  H12  1  0.99753200  0.87174000  0.27884400  1
  H  H13  1  0.08794100  0.29916900  0.43008100  1
  H  H14  1  0.25179600  0.21211500  0.71293800  1
  H  H15  1  0.86540800  0.34200900  0.27402400  1
  H  H16  1  0.62705900  0.92833800  0.74816100  1
  H  H17  1  0.34677700  0.56404700  0.25391100  1
  H  H18  1  0.26014100  0.98136100  0.07341200  1
  H  H19  1  0.13459200  0.65799100  0.72597600  1
  H  H20  1  0.19772600  0.03669000  0.81029000  1
  H  H21  1  0.82724900  0.74203000  0.14958900  1
  C  C22  1  0.23775000  0.68028900  0.91878000  1
  C  C23  1  0.58168100  0.01002500  0.56512400  1
  C  C24  1  0.76225000  0.31971100  0.08122000  1
  C  C25  1  0.41831900  0.98997500  0.43487600  1
  C  C26  1  0.72638700  0.43771300  0.96203100  1
  C  C27  1  0.49180700  0.45293900  0.56344300  1
  C  C28  1  0.27361300  0.56228700  0.03796900  1
  C  C29  1  0.50819300  0.54706100  0.43655700  1
  N  N30  1  0.15676000  0.15827000  0.77398100  1
  N  N31  1  0.84324000  0.84173000  0.22601900  1
  O  O32  1  0.18124300  0.57940900  0.80855000  1
  O  O33  1  0.65670100  0.50799900  0.65576800  1
  O  O34  1  0.23873700  0.89551100  0.42357000  1
  O  O35  1  0.81875700  0.42059100  0.19145000  1
  O  O36  1  0.66760900  0.66324700  0.43147900  1
  O  O37  1  0.33239100  0.33675300  0.56852100  1
  O  O38  1  0.23671700  0.38672100  0.01710800  1
  O  O39  1  0.76126300  0.10448900  0.57643000  1
  O  O40  1  0.73883800  0.14655700  0.06728600  1
  O  O41  1  0.66463900  0.34216000  0.85339300  1
  O  O42  1  0.49147300  0.07877000  0.34583600  1
  O  O43  1  0.50852700  0.92123000  0.65416400  1
  O  O44  1  0.94444600  0.24790600  0.37953500  1
  O  O45  1  0.76223500  0.93005900  0.85861900  1
  O  O46  1  0.76328300  0.61327900  0.98289200  1
  O  O47  1  0.34329900  0.49200100  0.34423200  1
  O  O48  1  0.26116200  0.85344300  0.93271400  1
  O  O49  1  0.23776500  0.06994100  0.14138100  1
  O  O50  1  0.33536100  0.65784000  0.14660700  1
  O  O51  1  0.05555400  0.75209400  0.62046500  1
