# generated using pymatgen
data_K4H6C2O9
_symmetry_space_group_name_H-M   'P 1'
_cell_length_a   12.12650400
_cell_length_b   13.86734400
_cell_length_c   7.21738095
_cell_angle_alpha   90.00000000
_cell_angle_beta   120.67320428
_cell_angle_gamma   90.00000000
_symmetry_Int_Tables_number   1
_chemical_formula_structural   K4H6C2O9
_chemical_formula_sum   'K16 H24 C8 O36'
_cell_volume   1043.88560232
_cell_formula_units_Z   4
loop_
 _symmetry_equiv_pos_site_id
 _symmetry_equiv_pos_as_xyz
  1  'x, y, z'
loop_
 _atom_site_type_symbol
 _atom_site_label
 _atom_site_symmetry_multiplicity
 _atom_site_fract_x
 _atom_site_fract_y
 _atom_site_fract_z
 _atom_site_occupancy
  K  K0  1  0.50000000  0.88314600  0.25000000  1
  K  K1  1  0.50000000  0.11685400  0.75000000  1
  K  K2  1  0.50000000  0.18549600  0.25000000  1
  K  K3  1  0.50000000  0.81450400  0.75000000  1
  K  K4  1  0.35596900  0.35096200  0.45969000  1
  K  K5  1  0.64403100  0.35096200  0.04031000  1
  K  K6  1  0.64403100  0.64903800  0.54031000  1
  K  K7  1  0.35596900  0.64903800  0.95969000  1
  K  K8  1  0.00000000  0.38314600  0.25000000  1
  K  K9  1  0.00000000  0.61685400  0.75000000  1
  K  K10  1  0.00000000  0.68549600  0.25000000  1
  K  K11  1  0.00000000  0.31450400  0.75000000  1
  K  K12  1  0.85596900  0.85096200  0.45969000  1
  K  K13  1  0.14403100  0.85096200  0.04031000  1
  K  K14  1  0.14403100  0.14903800  0.54031000  1
  K  K15  1  0.85596900  0.14903800  0.95969000  1
  H  H16  1  0.93101600  0.95416600  0.15468400  1
  H  H17  1  0.06898400  0.95416600  0.34531600  1
  H  H18  1  0.06898400  0.04583400  0.84531600  1
  H  H19  1  0.93101600  0.04583400  0.65468400  1
  H  H20  1  0.67338550  0.02707450  0.13084900  1
  H  H21  1  0.32661450  0.02707450  0.36915100  1
  H  H22  1  0.32661450  0.97292550  0.86915100  1
  H  H23  1  0.67338550  0.97292550  0.63084900  1
  H  H24  1  0.71056600  0.93037400  0.04947700  1
  H  H25  1  0.28943400  0.93037400  0.45052300  1
  H  H26  1  0.28943400  0.06962600  0.95052300  1
  H  H27  1  0.71056600  0.06962600  0.54947700  1
  H  H28  1  0.43101600  0.45416600  0.15468400  1
  H  H29  1  0.56898400  0.45416600  0.34531600  1
  H  H30  1  0.56898400  0.54583400  0.84531600  1
  H  H31  1  0.43101600  0.54583400  0.65468400  1
  H  H32  1  0.17338550  0.52707450  0.13084900  1
  H  H33  1  0.82661450  0.52707450  0.36915100  1
  H  H34  1  0.82661450  0.47292550  0.86915100  1
  H  H35  1  0.17338550  0.47292550  0.63084900  1
  H  H36  1  0.21056600  0.43037400  0.04947700  1
  H  H37  1  0.78943400  0.43037400  0.45052300  1
  H  H38  1  0.78943400  0.56962600  0.95052300  1
  H  H39  1  0.21056600  0.56962600  0.54947700  1
  C  C40  1  0.19329900  0.16964200  0.15010200  1
  C  C41  1  0.80670100  0.16964200  0.34989800  1
  C  C42  1  0.80670100  0.83035800  0.84989800  1
  C  C43  1  0.19329900  0.83035800  0.65010200  1
  C  C44  1  0.69329900  0.66964200  0.15010200  1
  C  C45  1  0.30670100  0.66964200  0.34989800  1
  C  C46  1  0.30670100  0.33035800  0.84989800  1
  C  C47  1  0.69329900  0.33035800  0.65010200  1
  O  O48  1  0.60656050  0.72428850  0.14843100  1
  O  O49  1  0.39343950  0.72428850  0.35156900  1
  O  O50  1  0.39343950  0.27571150  0.85156900  1
  O  O51  1  0.60656050  0.27571150  0.64843100  1
  O  O52  1  0.29748200  0.14865600  0.33296200  1
  O  O53  1  0.70251800  0.14865600  0.16703800  1
  O  O54  1  0.70251800  0.85134400  0.66703800  1
  O  O55  1  0.29748200  0.85134400  0.83296200  1
  O  O56  1  0.17864450  0.13538550  0.96957800  1
  O  O57  1  0.82135550  0.13538550  0.53042200  1
  O  O58  1  0.82135550  0.86461450  0.03042200  1
  O  O59  1  0.17864450  0.86461450  0.46957800  1
  O  O60  1  0.50000000  0.50039800  0.25000000  1
  O  O61  1  0.50000000  0.49960200  0.75000000  1
  O  O62  1  0.64752200  0.95854700  0.08595100  1
  O  O63  1  0.35247800  0.95854700  0.41404900  1
  O  O64  1  0.35247800  0.04145300  0.91404900  1
  O  O65  1  0.64752200  0.04145300  0.58595100  1
  O  O66  1  0.10656050  0.22428850  0.14843100  1
  O  O67  1  0.89343950  0.22428850  0.35156900  1
  O  O68  1  0.89343950  0.77571150  0.85156900  1
  O  O69  1  0.10656050  0.77571150  0.64843100  1
  O  O70  1  0.79748200  0.64865600  0.33296200  1
  O  O71  1  0.20251800  0.64865600  0.16703800  1
  O  O72  1  0.20251800  0.35134400  0.66703800  1
  O  O73  1  0.79748200  0.35134400  0.83296200  1
  O  O74  1  0.67864450  0.63538550  0.96957800  1
  O  O75  1  0.32135550  0.63538550  0.53042200  1
  O  O76  1  0.32135550  0.36461450  0.03042200  1
  O  O77  1  0.67864450  0.36461450  0.46957800  1
  O  O78  1  0.00000000  0.00039800  0.25000000  1
  O  O79  1  0.00000000  0.99960200  0.75000000  1
  O  O80  1  0.14752200  0.45854700  0.08595100  1
  O  O81  1  0.85247800  0.45854700  0.41404900  1
  O  O82  1  0.85247800  0.54145300  0.91404900  1
  O  O83  1  0.14752200  0.54145300  0.58595100  1
