# generated using pymatgen
data_InBi2S4Cl
_symmetry_space_group_name_H-M   'P 1'
_cell_length_a   12.60282000
_cell_length_b   3.94276400
_cell_length_c   8.61223524
_cell_angle_alpha   90.00000000
_cell_angle_beta   115.52503525
_cell_angle_gamma   90.00000000
_symmetry_Int_Tables_number   1
_chemical_formula_structural   InBi2S4Cl
_chemical_formula_sum   'In2 Bi4 S8 Cl2'
_cell_volume   386.17315916
_cell_formula_units_Z   2
loop_
 _symmetry_equiv_pos_site_id
 _symmetry_equiv_pos_as_xyz
  1  'x, y, z'
loop_
 _atom_site_type_symbol
 _atom_site_label
 _atom_site_symmetry_multiplicity
 _atom_site_fract_x
 _atom_site_fract_y
 _atom_site_fract_z
 _atom_site_occupancy
  In  In0  1  0.00000000  0.00000000  0.00000000  1
  In  In1  1  0.50000000  0.50000000  0.00000000  1
  Bi  Bi2  1  0.20434100  0.00000000  0.72484100  1
  Bi  Bi3  1  0.79565900  0.00000000  0.27515900  1
  Bi  Bi4  1  0.70434100  0.50000000  0.72484100  1
  Bi  Bi5  1  0.29565900  0.50000000  0.27515900  1
  S  S6  1  0.33660000  0.50000000  0.68311800  1
  S  S7  1  0.12541400  0.50000000  0.94592100  1
  S  S8  1  0.66340000  0.50000000  0.31688200  1
  S  S9  1  0.87458600  0.50000000  0.05407900  1
  S  S10  1  0.83660000  0.00000000  0.68311800  1
  S  S11  1  0.62541400  0.00000000  0.94592100  1
  S  S12  1  0.16340000  0.00000000  0.31688200  1
  S  S13  1  0.37458600  0.00000000  0.05407900  1
  Cl  Cl14  1  0.00000000  0.50000000  0.50000000  1
  Cl  Cl15  1  0.50000000  0.00000000  0.50000000  1
