# generated using pymatgen
data_CaLu2O4
_symmetry_space_group_name_H-M   'P 1'
_cell_length_a   3.29406400
_cell_length_b   9.78229900
_cell_length_c   11.57723500
_cell_angle_alpha   90.00000000
_cell_angle_beta   90.00000000
_cell_angle_gamma   90.00000000
_symmetry_Int_Tables_number   1
_chemical_formula_structural   CaLu2O4
_chemical_formula_sum   'Ca4 Lu8 O16'
_cell_volume   373.05925168
_cell_formula_units_Z   4
loop_
 _symmetry_equiv_pos_site_id
 _symmetry_equiv_pos_as_xyz
  1  'x, y, z'
loop_
 _atom_site_type_symbol
 _atom_site_label
 _atom_site_symmetry_multiplicity
 _atom_site_fract_x
 _atom_site_fract_y
 _atom_site_fract_z
 _atom_site_occupancy
  Ca  Ca0  1  0.75000000  0.75405500  0.35127800  1
  Ca  Ca1  1  0.25000000  0.24594500  0.64872200  1
  Ca  Ca2  1  0.75000000  0.25405500  0.14872200  1
  Ca  Ca3  1  0.25000000  0.74594500  0.85127800  1
  Lu  Lu4  1  0.75000000  0.42080400  0.89006600  1
  Lu  Lu5  1  0.25000000  0.57919600  0.10993400  1
  Lu  Lu6  1  0.75000000  0.92080400  0.60993400  1
  Lu  Lu7  1  0.25000000  0.07919600  0.39006600  1
  Lu  Lu8  1  0.75000000  0.42534600  0.38612600  1
  Lu  Lu9  1  0.25000000  0.57465400  0.61387400  1
  Lu  Lu10  1  0.75000000  0.92534600  0.11387400  1
  Lu  Lu11  1  0.25000000  0.07465400  0.88612600  1
  O  O12  1  0.75000000  0.21025700  0.82047100  1
  O  O13  1  0.25000000  0.78974300  0.17952900  1
  O  O14  1  0.75000000  0.71025700  0.67952900  1
  O  O15  1  0.25000000  0.28974300  0.32047100  1
  O  O16  1  0.75000000  0.12809800  0.52286500  1
  O  O17  1  0.25000000  0.87190200  0.47713500  1
  O  O18  1  0.75000000  0.62809800  0.97713500  1
  O  O19  1  0.25000000  0.37190200  0.02286500  1
  O  O20  1  0.75000000  0.51739300  0.21577600  1
  O  O21  1  0.25000000  0.48260700  0.78422400  1
  O  O22  1  0.75000000  0.01739300  0.28422400  1
  O  O23  1  0.25000000  0.98260700  0.71577600  1
  O  O24  1  0.75000000  0.42115000  0.57792000  1
  O  O25  1  0.25000000  0.57885000  0.42208000  1
  O  O26  1  0.75000000  0.92115000  0.92208000  1
  O  O27  1  0.25000000  0.07885000  0.07792000  1
