# generated using pymatgen
data_SiO2
_symmetry_space_group_name_H-M   'P 1'
_cell_length_a   5.12402600
_cell_length_b   8.79754400
_cell_length_c   8.53296815
_cell_angle_alpha   90.00000000
_cell_angle_beta   91.57997963
_cell_angle_gamma   90.00000000
_symmetry_Int_Tables_number   1
_chemical_formula_structural   SiO2
_chemical_formula_sum   'Si8 O16'
_cell_volume   384.51009920
_cell_formula_units_Z   8
loop_
 _symmetry_equiv_pos_site_id
 _symmetry_equiv_pos_as_xyz
  1  'x, y, z'
loop_
 _atom_site_type_symbol
 _atom_site_label
 _atom_site_symmetry_multiplicity
 _atom_site_fract_x
 _atom_site_fract_y
 _atom_site_fract_z
 _atom_site_occupancy
  Si  Si0  1  0.42421150  0.19321850  0.28805200  1
  Si  Si1  1  0.42352400  0.85913900  0.16246800  1
  Si  Si2  1  0.42421150  0.80678150  0.78805200  1
  Si  Si3  1  0.42352400  0.14086100  0.66246800  1
  Si  Si4  1  0.92421150  0.69321850  0.28805200  1
  Si  Si5  1  0.92352400  0.35913900  0.16246800  1
  Si  Si6  1  0.92421150  0.30678150  0.78805200  1
  Si  Si7  1  0.92352400  0.64086100  0.66246800  1
  O  O8  1  0.41049600  0.83203300  0.97519300  1
  O  O9  1  0.35349100  0.96381100  0.69588200  1
  O  O10  1  0.71459100  0.17702700  0.73373600  1
  O  O11  1  0.41049600  0.16796700  0.47519300  1
  O  O12  1  0.71459100  0.82297300  0.23373600  1
  O  O13  1  0.71648650  0.24852750  0.24697000  1
  O  O14  1  0.35349100  0.03618900  0.19588200  1
  O  O15  1  0.71648650  0.75147250  0.74697000  1
  O  O16  1  0.91049600  0.33203300  0.97519300  1
  O  O17  1  0.85349100  0.46381100  0.69588200  1
  O  O18  1  0.21459100  0.67702700  0.73373600  1
  O  O19  1  0.91049600  0.66796700  0.47519300  1
  O  O20  1  0.21459100  0.32297300  0.23373600  1
  O  O21  1  0.21648650  0.74852750  0.24697000  1
  O  O22  1  0.85349100  0.53618900  0.19588200  1
  O  O23  1  0.21648650  0.25147250  0.74697000  1
