# generated using pymatgen
data_Cd(InSe2)2
_symmetry_space_group_name_H-M   'P 1'
_cell_length_a   5.88839400
_cell_length_b   5.88839400
_cell_length_c   12.16353000
_cell_angle_alpha   90.00000000
_cell_angle_beta   90.00000000
_cell_angle_gamma   90.00000000
_symmetry_Int_Tables_number   1
_chemical_formula_structural   Cd(InSe2)2
_chemical_formula_sum   'Cd2 In4 Se8'
_cell_volume   421.74831255
_cell_formula_units_Z   2
loop_
 _symmetry_equiv_pos_site_id
 _symmetry_equiv_pos_as_xyz
  1  'x, y, z'
loop_
 _atom_site_type_symbol
 _atom_site_label
 _atom_site_symmetry_multiplicity
 _atom_site_fract_x
 _atom_site_fract_y
 _atom_site_fract_z
 _atom_site_occupancy
  Cd  Cd0  1  0.50000000  0.50000000  0.00000000  1
  Cd  Cd1  1  0.00000000  0.00000000  0.50000000  1
  In  In2  1  0.50000000  0.00000000  0.25000000  1
  In  In3  1  0.00000000  0.50000000  0.25000000  1
  In  In4  1  0.00000000  0.50000000  0.75000000  1
  In  In5  1  0.50000000  0.00000000  0.75000000  1
  Se  Se6  1  0.77505000  0.22495000  0.11735700  1
  Se  Se7  1  0.27505000  0.27505000  0.38264300  1
  Se  Se8  1  0.22495000  0.77505000  0.11735700  1
  Se  Se9  1  0.72495000  0.72495000  0.38264300  1
  Se  Se10  1  0.27505000  0.72495000  0.61735700  1
  Se  Se11  1  0.77505000  0.77505000  0.88264300  1
  Se  Se12  1  0.72495000  0.27505000  0.61735700  1
  Se  Se13  1  0.22495000  0.22495000  0.88264300  1
