# generated using pymatgen
data_BaNb2O6
_symmetry_space_group_name_H-M   'P 1'
_cell_length_a   7.99975200
_cell_length_b   12.42347600
_cell_length_c   10.49011800
_cell_angle_alpha   90.00000000
_cell_angle_beta   90.00000000
_cell_angle_gamma   90.00000000
_symmetry_Int_Tables_number   1
_chemical_formula_structural   BaNb2O6
_chemical_formula_sum   'Ba8 Nb16 O48'
_cell_volume   1042.55751340
_cell_formula_units_Z   8
loop_
 _symmetry_equiv_pos_site_id
 _symmetry_equiv_pos_as_xyz
  1  'x, y, z'
loop_
 _atom_site_type_symbol
 _atom_site_label
 _atom_site_symmetry_multiplicity
 _atom_site_fract_x
 _atom_site_fract_y
 _atom_site_fract_z
 _atom_site_occupancy
  Ba  Ba0  1  0.50000000  0.07563100  0.75000000  1
  Ba  Ba1  1  0.50000000  0.36897100  0.25000000  1
  Ba  Ba2  1  0.50000000  0.92436900  0.25000000  1
  Ba  Ba3  1  0.50000000  0.63102900  0.75000000  1
  Ba  Ba4  1  0.00000000  0.57563100  0.75000000  1
  Ba  Ba5  1  0.00000000  0.86897100  0.25000000  1
  Ba  Ba6  1  0.00000000  0.42436900  0.25000000  1
  Ba  Ba7  1  0.00000000  0.13102900  0.75000000  1
  Nb  Nb8  1  0.27051250  0.85671750  0.92180200  1
  Nb  Nb9  1  0.72948750  0.85671750  0.57819800  1
  Nb  Nb10  1  0.72948750  0.14328250  0.42180200  1
  Nb  Nb11  1  0.77375500  0.13819900  0.07167200  1
  Nb  Nb12  1  0.27051250  0.14328250  0.07819800  1
  Nb  Nb13  1  0.22624500  0.13819900  0.42832800  1
  Nb  Nb14  1  0.22624500  0.86180100  0.57167200  1
  Nb  Nb15  1  0.77375500  0.86180100  0.92832800  1
  Nb  Nb16  1  0.77051250  0.35671750  0.92180200  1
  Nb  Nb17  1  0.22948750  0.35671750  0.57819800  1
  Nb  Nb18  1  0.22948750  0.64328250  0.42180200  1
  Nb  Nb19  1  0.27375500  0.63819900  0.07167200  1
  Nb  Nb20  1  0.77051250  0.64328250  0.07819800  1
  Nb  Nb21  1  0.72624500  0.63819900  0.42832800  1
  Nb  Nb22  1  0.72624500  0.36180100  0.57167200  1
  Nb  Nb23  1  0.27375500  0.36180100  0.92832800  1
  O  O24  1  0.50084650  0.62075150  0.46359100  1
  O  O25  1  0.72067050  0.79971550  0.10965700  1
  O  O26  1  0.50084650  0.37924850  0.53640900  1
  O  O27  1  0.50272600  0.15868000  0.38566900  1
  O  O28  1  0.49915350  0.62075150  0.03640900  1
  O  O29  1  0.50272600  0.84132000  0.61433100  1
  O  O30  1  0.49727400  0.84132000  0.88566900  1
  O  O31  1  0.29947400  0.00000000  0.00000000  1
  O  O32  1  0.78438500  0.08097200  0.24975400  1
  O  O33  1  0.49727400  0.15868000  0.11433100  1
  O  O34  1  0.27932950  0.20028450  0.60965700  1
  O  O35  1  0.30871500  0.00000000  0.50000000  1
  O  O36  1  0.27932950  0.79971550  0.39034300  1
  O  O37  1  0.78438500  0.91902800  0.75024600  1
  O  O38  1  0.72067050  0.20028450  0.89034300  1
  O  O39  1  0.70052600  0.00000000  0.50000000  1
  O  O40  1  0.27896350  0.20297650  0.89223900  1
  O  O41  1  0.72103650  0.79702350  0.39223900  1
  O  O42  1  0.27896350  0.79702350  0.10776100  1
  O  O43  1  0.49915350  0.37924850  0.96359100  1
  O  O44  1  0.21561500  0.08097200  0.25024600  1
  O  O45  1  0.69128500  0.00000000  0.00000000  1
  O  O46  1  0.72103650  0.20297650  0.60776100  1
  O  O47  1  0.21561500  0.91902800  0.74975400  1
  O  O48  1  0.00084650  0.12075150  0.46359100  1
  O  O49  1  0.22067050  0.29971550  0.10965700  1
  O  O50  1  0.00084650  0.87924850  0.53640900  1
  O  O51  1  0.00272600  0.65868000  0.38566900  1
  O  O52  1  0.99915350  0.12075150  0.03640900  1
  O  O53  1  0.00272600  0.34132000  0.61433100  1
  O  O54  1  0.99727400  0.34132000  0.88566900  1
  O  O55  1  0.79947400  0.50000000  0.00000000  1
  O  O56  1  0.28438500  0.58097200  0.24975400  1
  O  O57  1  0.99727400  0.65868000  0.11433100  1
  O  O58  1  0.77932950  0.70028450  0.60965700  1
  O  O59  1  0.80871500  0.50000000  0.50000000  1
  O  O60  1  0.77932950  0.29971550  0.39034300  1
  O  O61  1  0.28438500  0.41902800  0.75024600  1
  O  O62  1  0.22067050  0.70028450  0.89034300  1
  O  O63  1  0.20052600  0.50000000  0.50000000  1
  O  O64  1  0.77896350  0.70297650  0.89223900  1
  O  O65  1  0.22103650  0.29702350  0.39223900  1
  O  O66  1  0.77896350  0.29702350  0.10776100  1
  O  O67  1  0.99915350  0.87924850  0.96359100  1
  O  O68  1  0.71561500  0.58097200  0.25024600  1
  O  O69  1  0.19128500  0.50000000  0.00000000  1
  O  O70  1  0.22103650  0.70297650  0.60776100  1
  O  O71  1  0.71561500  0.41902800  0.74975400  1
