# generated using pymatgen
data_SbAsPCl13
_symmetry_space_group_name_H-M   'P 1'
_cell_length_a   10.53331000
_cell_length_b   16.62523200
_cell_length_c   12.17955600
_cell_angle_alpha   90.00000000
_cell_angle_beta   90.00000000
_cell_angle_gamma   90.00000000
_symmetry_Int_Tables_number   1
_chemical_formula_structural   SbAsPCl13
_chemical_formula_sum   'Sb4 As4 P4 Cl52'
_cell_volume   2132.86828707
_cell_formula_units_Z   4
loop_
 _symmetry_equiv_pos_site_id
 _symmetry_equiv_pos_as_xyz
  1  'x, y, z'
loop_
 _atom_site_type_symbol
 _atom_site_label
 _atom_site_symmetry_multiplicity
 _atom_site_fract_x
 _atom_site_fract_y
 _atom_site_fract_z
 _atom_site_occupancy
  Sb  Sb0  1  0.50000000  0.29335600  0.00202800  1
  Sb  Sb1  1  0.50000000  0.70664400  0.50202800  1
  Sb  Sb2  1  0.00000000  0.79335600  0.00202800  1
  Sb  Sb3  1  0.00000000  0.20664400  0.50202800  1
  As  As4  1  0.50000000  0.95083200  0.65287700  1
  As  As5  1  0.50000000  0.04916800  0.15287700  1
  As  As6  1  0.00000000  0.45083200  0.65287700  1
  As  As7  1  0.00000000  0.54916800  0.15287700  1
  P  P8  1  0.50000000  0.64024500  0.96374500  1
  P  P9  1  0.50000000  0.35975500  0.46374500  1
  P  P10  1  0.00000000  0.14024500  0.96374500  1
  P  P11  1  0.00000000  0.85975500  0.46374500  1
  Cl  Cl12  1  0.16197700  0.14794800  0.38749400  1
  Cl  Cl13  1  0.50000000  0.36409900  0.62449800  1
  Cl  Cl14  1  0.65988150  0.96456450  0.13009900  1
  Cl  Cl15  1  0.50000000  0.63590100  0.12449800  1
  Cl  Cl16  1  0.84845400  0.08654800  0.90699000  1
  Cl  Cl17  1  0.65988150  0.03543550  0.63009900  1
  Cl  Cl18  1  0.50000000  0.24729000  0.41701900  1
  Cl  Cl19  1  0.15154600  0.08654800  0.90699000  1
  Cl  Cl20  1  0.83802300  0.85205200  0.88749400  1
  Cl  Cl21  1  0.50000000  0.75271000  0.91701900  1
  Cl  Cl22  1  0.15154600  0.91345200  0.40699000  1
  Cl  Cl23  1  0.33719700  0.76464300  0.61884800  1
  Cl  Cl24  1  0.83802300  0.14794800  0.38749400  1
  Cl  Cl25  1  0.16197700  0.85205200  0.88749400  1
  Cl  Cl26  1  0.50000000  0.58802300  0.61664100  1
  Cl  Cl27  1  0.66280300  0.23535700  0.11884800  1
  Cl  Cl28  1  0.33719700  0.23535700  0.11884800  1
  Cl  Cl29  1  0.66280300  0.76464300  0.61884800  1
  Cl  Cl30  1  0.34011850  0.96456450  0.13009900  1
  Cl  Cl31  1  0.34011850  0.03543550  0.63009900  1
  Cl  Cl32  1  0.50000000  0.41197700  0.11664100  1
  Cl  Cl33  1  0.50000000  0.05315400  0.33581200  1
  Cl  Cl34  1  0.50000000  0.82654600  0.39122000  1
  Cl  Cl35  1  0.50000000  0.17345400  0.89122000  1
  Cl  Cl36  1  0.84845400  0.91345200  0.40699000  1
  Cl  Cl37  1  0.50000000  0.94684600  0.83581200  1
  Cl  Cl38  1  0.66197700  0.64794800  0.38749400  1
  Cl  Cl39  1  0.00000000  0.86409900  0.62449800  1
  Cl  Cl40  1  0.15988150  0.46456450  0.13009900  1
  Cl  Cl41  1  0.00000000  0.13590100  0.12449800  1
  Cl  Cl42  1  0.34845400  0.58654800  0.90699000  1
  Cl  Cl43  1  0.15988150  0.53543550  0.63009900  1
  Cl  Cl44  1  0.00000000  0.74729000  0.41701900  1
  Cl  Cl45  1  0.65154600  0.58654800  0.90699000  1
  Cl  Cl46  1  0.33802300  0.35205200  0.88749400  1
  Cl  Cl47  1  0.00000000  0.25271000  0.91701900  1
  Cl  Cl48  1  0.65154600  0.41345200  0.40699000  1
  Cl  Cl49  1  0.83719700  0.26464300  0.61884800  1
  Cl  Cl50  1  0.33802300  0.64794800  0.38749400  1
  Cl  Cl51  1  0.66197700  0.35205200  0.88749400  1
  Cl  Cl52  1  0.00000000  0.08802300  0.61664100  1
  Cl  Cl53  1  0.16280300  0.73535700  0.11884800  1
  Cl  Cl54  1  0.83719700  0.73535700  0.11884800  1
  Cl  Cl55  1  0.16280300  0.26464300  0.61884800  1
  Cl  Cl56  1  0.84011850  0.46456450  0.13009900  1
  Cl  Cl57  1  0.84011850  0.53543550  0.63009900  1
  Cl  Cl58  1  0.00000000  0.91197700  0.11664100  1
  Cl  Cl59  1  0.00000000  0.55315400  0.33581200  1
  Cl  Cl60  1  0.00000000  0.32654600  0.39122000  1
  Cl  Cl61  1  0.00000000  0.67345400  0.89122000  1
  Cl  Cl62  1  0.34845400  0.41345200  0.40699000  1
  Cl  Cl63  1  0.00000000  0.44684600  0.83581200  1
