# generated using pymatgen
data_CsAgSb4S7
_symmetry_space_group_name_H-M   'P 1'
_cell_length_a   26.46250200
_cell_length_b   8.98063200
_cell_length_c   12.53954349
_cell_angle_alpha   90.00000000
_cell_angle_beta   97.21956684
_cell_angle_gamma   90.00000000
_symmetry_Int_Tables_number   1
_chemical_formula_structural   CsAgSb4S7
_chemical_formula_sum   'Cs8 Ag8 Sb32 S56'
_cell_volume   2956.39632293
_cell_formula_units_Z   8
loop_
 _symmetry_equiv_pos_site_id
 _symmetry_equiv_pos_as_xyz
  1  'x, y, z'
loop_
 _atom_site_type_symbol
 _atom_site_label
 _atom_site_symmetry_multiplicity
 _atom_site_fract_x
 _atom_site_fract_y
 _atom_site_fract_z
 _atom_site_occupancy
  Cs  Cs0  1  0.75000000  0.75000000  0.50000000  1
  Cs  Cs1  1  0.00000000  0.66450700  0.25000000  1
  Cs  Cs2  1  0.75000000  0.25000000  0.00000000  1
  Cs  Cs3  1  0.00000000  0.33549300  0.75000000  1
  Cs  Cs4  1  0.25000000  0.25000000  0.50000000  1
  Cs  Cs5  1  0.50000000  0.16450700  0.25000000  1
  Cs  Cs6  1  0.25000000  0.75000000  0.00000000  1
  Cs  Cs7  1  0.50000000  0.83549300  0.75000000  1
  Ag  Ag8  1  0.74212800  0.10144700  0.31292100  1
  Ag  Ag9  1  0.75787200  0.39855300  0.68707900  1
  Ag  Ag10  1  0.74212800  0.89855300  0.81292100  1
  Ag  Ag11  1  0.75787200  0.60144700  0.18707900  1
  Ag  Ag12  1  0.24212800  0.60144700  0.31292100  1
  Ag  Ag13  1  0.25787200  0.89855300  0.68707900  1
  Ag  Ag14  1  0.24212800  0.39855300  0.81292100  1
  Ag  Ag15  1  0.25787200  0.10144700  0.18707900  1
  Sb  Sb16  1  0.85224050  0.89701250  0.17622000  1
  Sb  Sb17  1  0.64149300  0.91426000  0.06137600  1
  Sb  Sb18  1  0.64149300  0.08574000  0.56137600  1
  Sb  Sb19  1  0.85224050  0.10298750  0.67622000  1
  Sb  Sb20  1  0.57317800  0.44608200  0.57634300  1
  Sb  Sb21  1  0.57957150  0.79287850  0.37463500  1
  Sb  Sb22  1  0.85850700  0.58574000  0.93862400  1
  Sb  Sb23  1  0.64775950  0.39701250  0.32378000  1
  Sb  Sb24  1  0.85850700  0.41426000  0.43862400  1
  Sb  Sb25  1  0.57317800  0.55391800  0.07634300  1
  Sb  Sb26  1  0.92682200  0.05391800  0.42365700  1
  Sb  Sb27  1  0.92042850  0.29287850  0.12536500  1
  Sb  Sb28  1  0.64775950  0.60298750  0.82378000  1
  Sb  Sb29  1  0.92042850  0.70712150  0.62536500  1
  Sb  Sb30  1  0.57957150  0.20712150  0.87463500  1
  Sb  Sb31  1  0.92682200  0.94608200  0.92365700  1
  Sb  Sb32  1  0.35224050  0.39701250  0.17622000  1
  Sb  Sb33  1  0.14149300  0.41426000  0.06137600  1
  Sb  Sb34  1  0.14149300  0.58574000  0.56137600  1
  Sb  Sb35  1  0.35224050  0.60298750  0.67622000  1
  Sb  Sb36  1  0.07317800  0.94608200  0.57634300  1
  Sb  Sb37  1  0.07957150  0.29287850  0.37463500  1
  Sb  Sb38  1  0.35850700  0.08574000  0.93862400  1
  Sb  Sb39  1  0.14775950  0.89701250  0.32378000  1
  Sb  Sb40  1  0.35850700  0.91426000  0.43862400  1
  Sb  Sb41  1  0.07317800  0.05391800  0.07634300  1
  Sb  Sb42  1  0.42682200  0.55391800  0.42365700  1
  Sb  Sb43  1  0.42042850  0.79287850  0.12536500  1
  Sb  Sb44  1  0.14775950  0.10298750  0.82378000  1
  Sb  Sb45  1  0.42042850  0.20712150  0.62536500  1
  Sb  Sb46  1  0.07957150  0.70712150  0.87463500  1
  Sb  Sb47  1  0.42682200  0.44608200  0.92365700  1
  S  S48  1  0.65101000  0.67862200  0.29398800  1
  S  S49  1  0.83577250  0.90249850  0.97398800  1
  S  S50  1  0.94953350  0.67808550  0.95157500  1
  S  S51  1  0.73849300  0.38524900  0.30397500  1
  S  S52  1  0.76150700  0.88524900  0.19602500  1
  S  S53  1  0.60974500  0.19368400  0.06766600  1
  S  S54  1  0.89025500  0.30631600  0.93233400  1
  S  S55  1  0.53874900  0.52701600  0.39007600  1
  S  S56  1  0.55046650  0.17808550  0.54842500  1
  S  S57  1  0.94953350  0.32191450  0.45157500  1
  S  S58  1  0.76150700  0.11475100  0.69602500  1
  S  S59  1  0.73849300  0.61475100  0.80397500  1
  S  S60  1  0.96125100  0.02701600  0.10992400  1
  S  S61  1  0.84899000  0.17862200  0.20601200  1
  S  S62  1  0.96125100  0.97298400  0.60992400  1
  S  S63  1  0.64855300  0.05201100  0.36945100  1
  S  S64  1  0.89025500  0.69368400  0.43233400  1
  S  S65  1  0.85144700  0.44798900  0.63054900  1
  S  S66  1  0.66422750  0.40249850  0.52601200  1
  S  S67  1  0.83577250  0.09750150  0.47398800  1
  S  S68  1  0.55046650  0.82191450  0.04842500  1
  S  S69  1  0.85144700  0.55201100  0.13054900  1
  S  S70  1  0.53874900  0.47298400  0.89007600  1
  S  S71  1  0.64855300  0.94798900  0.86945100  1
  S  S72  1  0.65101000  0.32137800  0.79398800  1
  S  S73  1  0.84899000  0.82137800  0.70601200  1
  S  S74  1  0.60974500  0.80631600  0.56766600  1
  S  S75  1  0.66422750  0.59750150  0.02601200  1
  S  S76  1  0.15101000  0.17862200  0.29398800  1
  S  S77  1  0.33577250  0.40249850  0.97398800  1
  S  S78  1  0.44953350  0.17808550  0.95157500  1
  S  S79  1  0.23849300  0.88524900  0.30397500  1
  S  S80  1  0.26150700  0.38524900  0.19602500  1
  S  S81  1  0.10974500  0.69368400  0.06766600  1
  S  S82  1  0.39025500  0.80631600  0.93233400  1
  S  S83  1  0.03874900  0.02701600  0.39007600  1
  S  S84  1  0.05046650  0.67808550  0.54842500  1
  S  S85  1  0.44953350  0.82191450  0.45157500  1
  S  S86  1  0.26150700  0.61475100  0.69602500  1
  S  S87  1  0.23849300  0.11475100  0.80397500  1
  S  S88  1  0.46125100  0.52701600  0.10992400  1
  S  S89  1  0.34899000  0.67862200  0.20601200  1
  S  S90  1  0.46125100  0.47298400  0.60992400  1
  S  S91  1  0.14855300  0.55201100  0.36945100  1
  S  S92  1  0.39025500  0.19368400  0.43233400  1
  S  S93  1  0.35144700  0.94798900  0.63054900  1
  S  S94  1  0.16422750  0.90249850  0.52601200  1
  S  S95  1  0.33577250  0.59750150  0.47398800  1
  S  S96  1  0.05046650  0.32191450  0.04842500  1
  S  S97  1  0.35144700  0.05201100  0.13054900  1
  S  S98  1  0.03874900  0.97298400  0.89007600  1
  S  S99  1  0.14855300  0.44798900  0.86945100  1
  S  S100  1  0.15101000  0.82137800  0.79398800  1
  S  S101  1  0.34899000  0.32137800  0.70601200  1
  S  S102  1  0.10974500  0.30631600  0.56766600  1
  S  S103  1  0.16422750  0.09750150  0.02601200  1
