# generated using pymatgen
data_AlPO4
_symmetry_space_group_name_H-M   'P 1'
_cell_length_a   16.78407400
_cell_length_b   5.25407600
_cell_length_c   13.86345321
_cell_angle_alpha   90.00000000
_cell_angle_beta   91.33591671
_cell_angle_gamma   90.00000000
_symmetry_Int_Tables_number   1
_chemical_formula_structural   AlPO4
_chemical_formula_sum   'Al12 P12 O48'
_cell_volume   1222.21355513
_cell_formula_units_Z   12
loop_
 _symmetry_equiv_pos_site_id
 _symmetry_equiv_pos_as_xyz
  1  'x, y, z'
loop_
 _atom_site_type_symbol
 _atom_site_label
 _atom_site_symmetry_multiplicity
 _atom_site_fract_x
 _atom_site_fract_y
 _atom_site_fract_z
 _atom_site_occupancy
  Al  Al0  1  0.54826700  0.94860500  0.23076600  1
  Al  Al1  1  0.83159100  0.92962200  0.08501000  1
  Al  Al2  1  0.66840900  0.42962200  0.91499000  1
  Al  Al3  1  0.95173300  0.44860500  0.76923400  1
  Al  Al4  1  0.64864900  0.38504300  0.53881800  1
  Al  Al5  1  0.85135100  0.88504300  0.46118200  1
  Al  Al6  1  0.04826700  0.44860500  0.23076600  1
  Al  Al7  1  0.33159100  0.42962200  0.08501000  1
  Al  Al8  1  0.16840900  0.92962200  0.91499000  1
  Al  Al9  1  0.45173300  0.94860500  0.76923400  1
  Al  Al10  1  0.14864900  0.88504300  0.53881800  1
  Al  Al11  1  0.35135100  0.38504300  0.46118200  1
  P  P12  1  0.64566800  0.92870100  0.03959700  1
  P  P13  1  0.66430000  0.88568900  0.41316600  1
  P  P14  1  0.94544500  0.94822700  0.26696100  1
  P  P15  1  0.55455500  0.44822700  0.73303900  1
  P  P16  1  0.85433200  0.42870100  0.96040300  1
  P  P17  1  0.83570000  0.38568900  0.58683400  1
  P  P18  1  0.14566800  0.42870100  0.03959700  1
  P  P19  1  0.16430000  0.38568900  0.41316600  1
  P  P20  1  0.44544500  0.44822700  0.26696100  1
  P  P21  1  0.05455500  0.94822700  0.73303900  1
  P  P22  1  0.35433200  0.92870100  0.96040300  1
  P  P23  1  0.33570000  0.88568900  0.58683400  1
  O  O24  1  0.52574250  0.72352450  0.74576300  1
  O  O25  1  0.62987850  0.91681050  0.31062100  1
  O  O26  1  0.51196700  0.26083500  0.24059500  1
  O  O27  1  0.58012850  0.89263250  0.11335000  1
  O  O28  1  0.62875100  0.40051400  0.79801400  1
  O  O29  1  0.86531800  0.68956900  0.00885700  1
  O  O30  1  0.87124900  0.90051400  0.20198600  1
  O  O31  1  0.57693050  0.40873750  0.62735300  1
  O  O32  1  0.74431500  0.40016100  0.59202300  1
  O  O33  1  0.87012150  0.41681050  0.68937900  1
  O  O34  1  0.91987150  0.39263250  0.88665000  1
  O  O35  1  0.63285250  0.09603250  0.47933500  1
  O  O36  1  0.63798900  0.62702000  0.45306000  1
  O  O37  1  0.63468200  0.18956900  0.99114300  1
  O  O38  1  0.86714750  0.59603250  0.52066500  1
  O  O39  1  0.97425750  0.22352450  0.25423700  1
  O  O40  1  0.86201100  0.12702000  0.54694000  1
  O  O41  1  0.63801650  0.72165050  0.96181400  1
  O  O42  1  0.72766750  0.91182550  0.09173700  1
  O  O43  1  0.86198350  0.22165050  0.03818600  1
  O  O44  1  0.98803300  0.76083500  0.75940500  1
  O  O45  1  0.75568500  0.90016100  0.40797700  1
  O  O46  1  0.77233250  0.41182550  0.90826300  1
  O  O47  1  0.92306950  0.90873750  0.37264700  1
  O  O48  1  0.02574250  0.22352450  0.74576300  1
  O  O49  1  0.12987850  0.41681050  0.31062100  1
  O  O50  1  0.01196700  0.76083500  0.24059500  1
  O  O51  1  0.08012850  0.39263250  0.11335000  1
  O  O52  1  0.12875100  0.90051400  0.79801400  1
  O  O53  1  0.36531800  0.18956900  0.00885700  1
  O  O54  1  0.37124900  0.40051400  0.20198600  1
  O  O55  1  0.07693050  0.90873750  0.62735300  1
  O  O56  1  0.24431500  0.90016100  0.59202300  1
  O  O57  1  0.37012150  0.91681050  0.68937900  1
  O  O58  1  0.41987150  0.89263250  0.88665000  1
  O  O59  1  0.13285250  0.59603250  0.47933500  1
  O  O60  1  0.13798900  0.12702000  0.45306000  1
  O  O61  1  0.13468200  0.68956900  0.99114300  1
  O  O62  1  0.36714750  0.09603250  0.52066500  1
  O  O63  1  0.47425750  0.72352450  0.25423700  1
  O  O64  1  0.36201100  0.62702000  0.54694000  1
  O  O65  1  0.13801650  0.22165050  0.96181400  1
  O  O66  1  0.22766750  0.41182550  0.09173700  1
  O  O67  1  0.36198350  0.72165050  0.03818600  1
  O  O68  1  0.48803300  0.26083500  0.75940500  1
  O  O69  1  0.25568500  0.40016100  0.40797700  1
  O  O70  1  0.27233250  0.91182550  0.90826300  1
  O  O71  1  0.42306950  0.40873750  0.37264700  1
