# generated using pymatgen
data_Zn3(PO4)2
_symmetry_space_group_name_H-M   'P 1'
_cell_length_a   8.42632800
_cell_length_b   9.24296800
_cell_length_c   8.88100545
_cell_angle_alpha   90.00000000
_cell_angle_beta   113.00266836
_cell_angle_gamma   90.00000000
_symmetry_Int_Tables_number   1
_chemical_formula_structural   Zn3(PO4)2
_chemical_formula_sum   'Zn12 P8 O32'
_cell_volume   636.69207321
_cell_formula_units_Z   4
loop_
 _symmetry_equiv_pos_site_id
 _symmetry_equiv_pos_as_xyz
  1  'x, y, z'
loop_
 _atom_site_type_symbol
 _atom_site_label
 _atom_site_symmetry_multiplicity
 _atom_site_fract_x
 _atom_site_fract_y
 _atom_site_fract_z
 _atom_site_occupancy
  Zn  Zn0  1  0.98498500  0.10821900  0.12900900  1
  Zn  Zn1  1  0.98498500  0.39178100  0.62900900  1
  Zn  Zn2  1  0.01501500  0.60821900  0.37099100  1
  Zn  Zn3  1  0.58366900  0.76734800  0.96688100  1
  Zn  Zn4  1  0.70834400  0.38844500  0.94799600  1
  Zn  Zn5  1  0.29165600  0.61155500  0.05200400  1
  Zn  Zn6  1  0.41633100  0.26734800  0.53311900  1
  Zn  Zn7  1  0.58366900  0.73265200  0.46688100  1
  Zn  Zn8  1  0.29165600  0.88844500  0.55200400  1
  Zn  Zn9  1  0.70834400  0.11155500  0.44799600  1
  Zn  Zn10  1  0.41633100  0.23265200  0.03311900  1
  Zn  Zn11  1  0.01501500  0.89178100  0.87099100  1
  P  P12  1  0.14293900  0.11436700  0.68130000  1
  P  P13  1  0.85706100  0.88563300  0.31870000  1
  P  P14  1  0.35523500  0.56159000  0.69128300  1
  P  P15  1  0.35523500  0.93841000  0.19128300  1
  P  P16  1  0.14293900  0.38563300  0.18130000  1
  P  P17  1  0.64476500  0.06159000  0.80871700  1
  P  P18  1  0.85706100  0.61436700  0.81870000  1
  P  P19  1  0.64476500  0.43841000  0.30871700  1
  O  O20  1  0.74886100  0.60048600  0.92621100  1
  O  O21  1  0.46767900  0.07346100  0.19825400  1
  O  O22  1  0.39354000  0.88400300  0.36887300  1
  O  O23  1  0.77506000  0.72352400  0.67924700  1
  O  O24  1  0.25113900  0.10048600  0.57378900  1
  O  O25  1  0.12725700  0.54162600  0.23422700  1
  O  O26  1  0.96028700  0.31723100  0.08081600  1
  O  O27  1  0.16046700  0.52209600  0.60459500  1
  O  O28  1  0.87274300  0.04162600  0.26577300  1
  O  O29  1  0.53232100  0.92653900  0.80174600  1
  O  O30  1  0.60851500  0.31471000  0.40916300  1
  O  O31  1  0.16046700  0.97790400  0.10459500  1
  O  O32  1  0.53232100  0.57346100  0.30174600  1
  O  O33  1  0.12725700  0.95837400  0.73422700  1
  O  O34  1  0.74886100  0.89951400  0.42621100  1
  O  O35  1  0.83953300  0.47790400  0.39540500  1
  O  O36  1  0.22494000  0.27647600  0.32075300  1
  O  O37  1  0.77506000  0.77647600  0.17924700  1
  O  O38  1  0.03971300  0.68276900  0.91918400  1
  O  O39  1  0.39354000  0.61599700  0.86887300  1
  O  O40  1  0.22494000  0.22352400  0.82075300  1
  O  O41  1  0.96028700  0.18276900  0.58081600  1
  O  O42  1  0.60646000  0.38400300  0.13112700  1
  O  O43  1  0.83953300  0.02209600  0.89540500  1
  O  O44  1  0.25113900  0.39951400  0.07378900  1
  O  O45  1  0.39148500  0.81471000  0.09083700  1
  O  O46  1  0.03971300  0.81723100  0.41918400  1
  O  O47  1  0.87274300  0.45837400  0.76577300  1
  O  O48  1  0.60646000  0.11599700  0.63112700  1
  O  O49  1  0.46767900  0.42653900  0.69825400  1
  O  O50  1  0.39148500  0.68529000  0.59083700  1
  O  O51  1  0.60851500  0.18529000  0.90916300  1
