# generated using pymatgen
data_YH24C9N6(ClO)3
_symmetry_space_group_name_H-M   'P 1'
_cell_length_a   14.13738273
_cell_length_b   14.13738273
_cell_length_c   18.31010324
_cell_angle_alpha   90.00000000
_cell_angle_beta   90.00000000
_cell_angle_gamma   120.00000000
_symmetry_Int_Tables_number   1
_chemical_formula_structural   YH24C9N6(ClO)3
_chemical_formula_sum   'Y6 H144 C54 N36 Cl18 O18'
_cell_volume   3169.27157602
_cell_formula_units_Z   6
loop_
 _symmetry_equiv_pos_site_id
 _symmetry_equiv_pos_as_xyz
  1  'x, y, z'
loop_
 _atom_site_type_symbol
 _atom_site_label
 _atom_site_symmetry_multiplicity
 _atom_site_fract_x
 _atom_site_fract_y
 _atom_site_fract_z
 _atom_site_occupancy
  Y  Y0  1  0.33333333  0.66666667  0.16666667  1
  Y  Y1  1  0.00000000  0.00000000  0.00000000  1
  Y  Y2  1  1.00000000  0.00000000  0.50000000  1
  Y  Y3  1  0.66666667  0.33333333  0.33333333  1
  Y  Y4  1  0.66666667  0.33333333  0.83333333  1
  Y  Y5  1  0.33333333  0.66666667  0.66666667  1
  H  H6  1  0.59120000  0.06914800  0.26426200  1
  H  H7  1  0.14241300  0.42191200  0.36731200  1
  H  H8  1  0.13045867  0.36204133  0.20860233  1
  H  H9  1  0.74621000  0.74672700  0.17912000  1
  H  H10  1  0.27949900  0.85758700  0.36731200  1
  H  H11  1  0.08857867  0.61283233  0.96602133  1
  H  H12  1  0.60861100  0.63940400  0.17233300  1
  H  H13  1  0.50711400  0.51153000  0.36094100  1
  H  H14  1  0.73581467  0.81128133  0.06907133  1
  H  H15  1  0.50327167  0.80803433  0.90135933  1
  H  H16  1  0.47470100  0.63809600  0.43197400  1
  H  H17  1  0.43944033  0.68103067  0.34958967  1
  H  H18  1  0.93085200  0.52205200  0.26426200  1
  H  H19  1  0.30476267  0.49672833  0.90135933  1
  H  H20  1  0.92045667  0.58660633  0.15421333  1
  H  H21  1  0.41339367  0.33385033  0.15421333  1
  H  H22  1  0.36059600  0.96920700  0.17233300  1
  H  H23  1  0.31896933  0.75840967  0.34958967  1
  H  H24  1  0.22722633  0.65230267  0.98374367  1
  H  H25  1  0.57808800  0.72050100  0.36731200  1
  H  H26  1  0.02870800  0.56491600  0.12473100  1
  H  H27  1  0.25327300  0.99948300  0.17912000  1
  H  H28  1  0.23158267  0.86954133  0.20860233  1
  H  H29  1  0.00051700  0.25379000  0.17912000  1
  H  H30  1  0.48847000  0.99558400  0.36094100  1
  H  H31  1  0.47794800  0.40880000  0.26426200  1
  H  H32  1  0.00441600  0.49288600  0.36094100  1
  H  H33  1  0.38716767  0.47574633  0.96602133  1
  H  H34  1  0.42507633  0.77277367  0.98374367  1
  H  H35  1  0.66614967  0.07954333  0.15421333  1
  H  H36  1  0.34769733  0.57492367  0.98374367  1
  H  H37  1  0.43508400  0.46379200  0.12473100  1
  H  H38  1  0.15955267  0.82180333  0.97239233  1
  H  H39  1  0.05805567  0.69392933  0.16100033  1
  H  H40  1  0.07546667  0.26418533  0.06907133  1
  H  H41  1  0.03079300  0.39138900  0.17233300  1
  H  H42  1  0.30607067  0.36412633  0.16100033  1
  H  H43  1  0.16339500  0.52529900  0.43197400  1
  H  H44  1  0.63587367  0.94194433  0.16100033  1
  H  H45  1  0.36190400  0.83660500  0.43197400  1
  H  H46  1  0.19196567  0.69523733  0.90135933  1
  H  H47  1  0.17819667  0.33774933  0.97239233  1
  H  H48  1  0.63795867  0.76841733  0.20860233  1
  H  H49  1  0.18871867  0.92453333  0.06907133  1
  H  H50  1  0.66225067  0.84044733  0.97239233  1
  H  H51  1  0.52425367  0.91142133  0.96602133  1
  H  H52  1  0.53620800  0.97129200  0.12473100  1
  H  H53  1  0.24159033  0.56055967  0.34958967  1
  H  H54  1  0.25786667  0.40248133  0.59759533  1
  H  H55  1  0.80907967  0.75524533  0.70064533  1
  H  H56  1  0.79712533  0.69537467  0.54193567  1
  H  H57  1  0.41287667  0.08006033  0.51245333  1
  H  H58  1  0.94616567  0.19092033  0.70064533  1
  H  H59  1  0.75524533  0.94616567  0.29935467  1
  H  H60  1  0.27527767  0.97273733  0.50566633  1
  H  H61  1  0.17378067  0.84486333  0.69427433  1
  H  H62  1  0.40248133  0.14461467  0.40240467  1
  H  H63  1  0.16993833  0.14136767  0.23469267  1
  H  H64  1  0.14136767  0.97142933  0.76530733  1
  H  H65  1  0.10610700  0.01436400  0.68292300  1
  H  H66  1  0.59751867  0.85538533  0.59759533  1
  H  H67  1  0.97142933  0.83006167  0.23469267  1
  H  H68  1  0.58712333  0.91993967  0.48754667  1
  H  H69  1  0.08006033  0.66718367  0.48754667  1
  H  H70  1  0.02726267  0.30254033  0.50566633  1
  H  H71  1  0.98563600  0.09174300  0.68292300  1
  H  H72  1  0.89389300  0.98563600  0.31707700  1
  H  H73  1  0.24475467  0.05383433  0.70064533  1
  H  H74  1  0.69537467  0.89824933  0.45806433  1
  H  H75  1  0.91993967  0.33281633  0.51245333  1
  H  H76  1  0.89824933  0.20287467  0.54193567  1
  H  H77  1  0.66718367  0.58712333  0.51245333  1
  H  H78  1  0.15513667  0.32891733  0.69427433  1
  H  H79  1  0.14461467  0.74213333  0.59759533  1
  H  H80  1  0.67108267  0.82621933  0.69427433  1
  H  H81  1  0.05383433  0.80907967  0.29935467  1
  H  H82  1  0.09174300  0.10610700  0.31707700  1
  H  H83  1  0.33281633  0.41287667  0.48754667  1
  H  H84  1  0.01436400  0.90825700  0.31707700  1
  H  H85  1  0.10175067  0.79712533  0.45806433  1
  H  H86  1  0.82621933  0.15513667  0.30572567  1
  H  H87  1  0.72472233  0.02726267  0.49433367  1
  H  H88  1  0.74213333  0.59751867  0.40240467  1
  H  H89  1  0.69745967  0.72472233  0.50566633  1
  H  H90  1  0.97273733  0.69745967  0.49433367  1
  H  H91  1  0.83006167  0.85863233  0.76530733  1
  H  H92  1  0.30254033  0.27527767  0.49433367  1
  H  H93  1  0.02857067  0.16993833  0.76530733  1
  H  H94  1  0.85863233  0.02857067  0.23469267  1
  H  H95  1  0.84486333  0.67108267  0.30572567  1
  H  H96  1  0.30462533  0.10175067  0.54193567  1
  H  H97  1  0.85538533  0.25786667  0.40240467  1
  H  H98  1  0.32891733  0.17378067  0.30572567  1
  H  H99  1  0.19092033  0.24475467  0.29935467  1
  H  H100  1  0.20287467  0.30462533  0.45806433  1
  H  H101  1  0.90825700  0.89389300  0.68292300  1
  H  H102  1  0.92453333  0.73581467  0.93092867  1
  H  H103  1  0.47574633  0.08857867  0.03397867  1
  H  H104  1  0.46379200  0.02870800  0.87526900  1
  H  H105  1  0.07954333  0.41339367  0.84578667  1
  H  H106  1  0.61283233  0.52425367  0.03397867  1
  H  H107  1  0.42191200  0.27949900  0.63268800  1
  H  H108  1  0.94194433  0.30607067  0.83899967  1
  H  H109  1  0.84044733  0.17819667  0.02760767  1
  H  H110  1  0.06914800  0.47794800  0.73573800  1
  H  H111  1  0.83660500  0.47470100  0.56802600  1
  H  H112  1  0.80803433  0.30476267  0.09864067  1
  H  H113  1  0.77277367  0.34769733  0.01625633  1
  H  H114  1  0.26418533  0.18871867  0.93092867  1
  H  H115  1  0.63809600  0.16339500  0.56802600  1
  H  H116  1  0.25379000  0.25327300  0.82088000  1
  H  H117  1  0.74672700  0.00051700  0.82088000  1
  H  H118  1  0.69392933  0.63587367  0.83899967  1
  H  H119  1  0.65230267  0.42507633  0.01625633  1
  H  H120  1  0.56055967  0.31896933  0.65041033  1
  H  H121  1  0.91142133  0.38716767  0.03397867  1
  H  H122  1  0.36204133  0.23158267  0.79139767  1
  H  H123  1  0.58660633  0.66614967  0.84578667  1
  H  H124  1  0.56491600  0.53620800  0.87526900  1
  H  H125  1  0.33385033  0.92045667  0.84578667  1
  H  H126  1  0.82180333  0.66225067  0.02760767  1
  H  H127  1  0.81128133  0.07546667  0.93092867  1
  H  H128  1  0.33774933  0.15955267  0.02760767  1
  H  H129  1  0.72050100  0.14241300  0.63268800  1
  H  H130  1  0.75840967  0.43944033  0.65041033  1
  H  H131  1  0.99948300  0.74621000  0.82088000  1
  H  H132  1  0.68103067  0.24159033  0.65041033  1
  H  H133  1  0.76841733  0.13045867  0.79139767  1
  H  H134  1  0.49288600  0.48847000  0.63905900  1
  H  H135  1  0.39138900  0.36059600  0.82766700  1
  H  H136  1  0.40880000  0.93085200  0.73573800  1
  H  H137  1  0.36412633  0.05805567  0.83899967  1
  H  H138  1  0.63940400  0.03079300  0.82766700  1
  H  H139  1  0.49672833  0.19196567  0.09864067  1
  H  H140  1  0.96920700  0.60861100  0.82766700  1
  H  H141  1  0.69523733  0.50327167  0.09864067  1
  H  H142  1  0.52529900  0.36190400  0.56802600  1
  H  H143  1  0.51153000  0.00441600  0.63905900  1
  H  H144  1  0.97129200  0.43508400  0.87526900  1
  H  H145  1  0.52205200  0.59120000  0.73573800  1
  H  H146  1  0.99558400  0.50711400  0.63905900  1
  H  H147  1  0.85758700  0.57808800  0.63268800  1
  H  H148  1  0.86954133  0.63795867  0.79139767  1
  H  H149  1  0.57492367  0.22722633  0.01625633  1
  C  C150  1  0.39472900  0.39877000  0.16580000  1
  C  C151  1  0.06543667  0.33737433  0.16753333  1
  C  C152  1  0.16106667  0.50715733  0.37345433  1
  C  C153  1  0.34609067  0.83893333  0.37345433  1
  C  C154  1  0.17382400  0.67942400  0.95987900  1
  C  C155  1  0.09288133  0.56896767  0.26988967  1
  C  C156  1  0.47608633  0.90711867  0.26988967  1
  C  C157  1  0.49284267  0.65390933  0.37345433  1
  C  C158  1  0.50560000  0.82617600  0.95987900  1
  C  C159  1  0.43103233  0.52391367  0.26988967  1
  C  C160  1  0.27193767  0.93456333  0.16753333  1
  C  C161  1  0.32057600  0.49440000  0.95987900  1
  C  C162  1  0.00404100  0.60527100  0.16580000  1
  C  C163  1  0.19058033  0.42621467  0.06344367  1
  C  C164  1  0.60123000  0.99595900  0.16580000  1
  C  C165  1  0.23563433  0.80941967  0.06344367  1
  C  C166  1  0.66262567  0.72806233  0.16753333  1
  C  C167  1  0.57378533  0.76436567  0.06344367  1
  C  C168  1  0.06139567  0.73210333  0.49913333  1
  C  C169  1  0.73210333  0.67070767  0.50086667  1
  C  C170  1  0.82773333  0.84049067  0.70678767  1
  C  C171  1  0.01275733  0.17226667  0.70678767  1
  C  C172  1  0.84049067  0.01275733  0.29321233  1
  C  C173  1  0.75954800  0.90230100  0.60322300  1
  C  C174  1  0.14275300  0.24045200  0.60322300  1
  C  C175  1  0.15950933  0.98724267  0.70678767  1
  C  C176  1  0.17226667  0.15950933  0.29321233  1
  C  C177  1  0.09769900  0.85724700  0.60322300  1
  C  C178  1  0.93860433  0.26789667  0.50086667  1
  C  C179  1  0.98724267  0.82773333  0.29321233  1
  C  C180  1  0.67070767  0.93860433  0.49913333  1
  C  C181  1  0.85724700  0.75954800  0.39677700  1
  C  C182  1  0.26789667  0.32929233  0.49913333  1
  C  C183  1  0.90230100  0.14275300  0.39677700  1
  C  C184  1  0.32929233  0.06139567  0.50086667  1
  C  C185  1  0.24045200  0.09769900  0.39677700  1
  C  C186  1  0.72806233  0.06543667  0.83246667  1
  C  C187  1  0.39877000  0.00404100  0.83420000  1
  C  C188  1  0.49440000  0.17382400  0.04012100  1
  C  C189  1  0.67942400  0.50560000  0.04012100  1
  C  C190  1  0.50715733  0.34609067  0.62654567  1
  C  C191  1  0.42621467  0.23563433  0.93655633  1
  C  C192  1  0.80941967  0.57378533  0.93655633  1
  C  C193  1  0.82617600  0.32057600  0.04012100  1
  C  C194  1  0.83893333  0.49284267  0.62654567  1
  C  C195  1  0.76436567  0.19058033  0.93655633  1
  C  C196  1  0.60527100  0.60123000  0.83420000  1
  C  C197  1  0.65390933  0.16106667  0.62654567  1
  C  C198  1  0.33737433  0.27193767  0.83246667  1
  C  C199  1  0.52391367  0.09288133  0.73011033  1
  C  C200  1  0.93456333  0.66262567  0.83246667  1
  C  C201  1  0.56896767  0.47608633  0.73011033  1
  C  C202  1  0.99595900  0.39472900  0.83420000  1
  C  C203  1  0.90711867  0.43103233  0.73011033  1
  N  N204  1  0.47525333  0.55526467  0.33708867  1
  N  N205  1  0.44473533  0.91998867  0.33708867  1
  N  N206  1  0.56170433  0.99544967  0.23908267  1
  N  N207  1  0.08001133  0.52474667  0.33708867  1
  N  N208  1  0.66211633  0.76707867  0.09425067  1
  N  N209  1  0.58665533  0.80858667  0.99624467  1
  N  N210  1  0.00455033  0.56625467  0.23908267  1
  N  N211  1  0.10496233  0.33788367  0.09425067  1
  N  N212  1  0.23292133  0.89503767  0.09425067  1
  N  N213  1  0.43374533  0.43829567  0.23908267  1
  N  N214  1  0.22193133  0.41334467  0.99624467  1
  N  N215  1  0.19141333  0.77806867  0.99624467  1
  N  N216  1  0.14192000  0.88859800  0.67042200  1
  N  N217  1  0.11140200  0.25332200  0.67042200  1
  N  N218  1  0.22837100  0.32878300  0.57241600  1
  N  N219  1  0.74667800  0.85808000  0.67042200  1
  N  N220  1  0.32878300  0.10041200  0.42758400  1
  N  N221  1  0.25332200  0.14192000  0.32957800  1
  N  N222  1  0.67121700  0.89958800  0.57241600  1
  N  N223  1  0.77162900  0.67121700  0.42758400  1
  N  N224  1  0.89958800  0.22837100  0.42758400  1
  N  N225  1  0.10041200  0.77162900  0.57241600  1
  N  N226  1  0.88859800  0.74667800  0.32957800  1
  N  N227  1  0.85808000  0.11140200  0.32957800  1
  N  N228  1  0.80858667  0.22193133  0.00375533  1
  N  N229  1  0.77806867  0.58665533  0.00375533  1
  N  N230  1  0.89503767  0.66211633  0.90574933  1
  N  N231  1  0.41334467  0.19141333  0.00375533  1
  N  N232  1  0.99544967  0.43374533  0.76091733  1
  N  N233  1  0.91998867  0.47525333  0.66291133  1
  N  N234  1  0.33788367  0.23292133  0.90574933  1
  N  N235  1  0.43829567  0.00455033  0.76091733  1
  N  N236  1  0.56625467  0.56170433  0.76091733  1
  N  N237  1  0.76707867  0.10496233  0.90574933  1
  N  N238  1  0.55526467  0.08001133  0.66291133  1
  N  N239  1  0.52474667  0.44473533  0.66291133  1
  Cl  Cl240  1  0.72770200  0.50998000  0.25165700  1
  Cl  Cl241  1  0.17664667  0.11561133  0.08167633  1
  Cl  Cl242  1  0.49002000  0.21772200  0.25165700  1
  Cl  Cl243  1  0.93896467  0.82335333  0.08167633  1
  Cl  Cl244  1  0.88438867  0.06103533  0.08167633  1
  Cl  Cl245  1  0.78227800  0.27229800  0.25165700  1
  Cl  Cl246  1  0.39436867  0.84331333  0.58499033  1
  Cl  Cl247  1  0.84331333  0.44894467  0.41500967  1
  Cl  Cl248  1  0.15668667  0.55105533  0.58499033  1
  Cl  Cl249  1  0.60563133  0.15668667  0.41500967  1
  Cl  Cl250  1  0.55105533  0.39436867  0.41500967  1
  Cl  Cl251  1  0.44894467  0.60563133  0.58499033  1
  Cl  Cl252  1  0.06103533  0.17664667  0.91832367  1
  Cl  Cl253  1  0.50998000  0.78227800  0.74834300  1
  Cl  Cl254  1  0.82335333  0.88438867  0.91832367  1
  Cl  Cl255  1  0.27229800  0.49002000  0.74834300  1
  Cl  Cl256  1  0.21772200  0.72770200  0.74834300  1
  Cl  Cl257  1  0.11561133  0.93896467  0.91832367  1
  O  O258  1  0.23801067  0.51793233  0.09651733  1
  O  O259  1  0.27992167  0.76198933  0.09651733  1
  O  O260  1  0.48206767  0.72007833  0.09651733  1
  O  O261  1  0.18459900  0.61325500  0.23681600  1
  O  O262  1  0.38674500  0.57134400  0.23681600  1
  O  O263  1  0.42865600  0.81540100  0.23681600  1
  O  O264  1  0.90467733  0.85126567  0.42985067  1
  O  O265  1  0.94658833  0.09532267  0.42985067  1
  O  O266  1  0.14873433  0.05341167  0.42985067  1
  O  O267  1  0.85126567  0.94658833  0.57014933  1
  O  O268  1  0.05341167  0.90467733  0.57014933  1
  O  O269  1  0.09532267  0.14873433  0.57014933  1
  O  O270  1  0.57134400  0.18459900  0.76318400  1
  O  O271  1  0.61325500  0.42865600  0.76318400  1
  O  O272  1  0.81540100  0.38674500  0.76318400  1
  O  O273  1  0.51793233  0.27992167  0.90348267  1
  O  O274  1  0.72007833  0.23801067  0.90348267  1
  O  O275  1  0.76198933  0.48206767  0.90348267  1
