# generated using pymatgen
data_Na4Ge2Te5
_symmetry_space_group_name_H-M   'P 1'
_cell_length_a   14.31725200
_cell_length_b   13.08538500
_cell_length_c   15.25556178
_cell_angle_alpha   90.00000000
_cell_angle_beta   92.74618240
_cell_angle_gamma   90.00000000
_symmetry_Int_Tables_number   1
_chemical_formula_structural   Na4Ge2Te5
_chemical_formula_sum   'Na32 Ge16 Te40'
_cell_volume   2854.79771458
_cell_formula_units_Z   8
loop_
 _symmetry_equiv_pos_site_id
 _symmetry_equiv_pos_as_xyz
  1  'x, y, z'
loop_
 _atom_site_type_symbol
 _atom_site_label
 _atom_site_symmetry_multiplicity
 _atom_site_fract_x
 _atom_site_fract_y
 _atom_site_fract_z
 _atom_site_occupancy
  Na  Na0  1  0.90490300  0.62073600  0.55142000  1
  Na  Na1  1  0.42266100  0.13460200  0.07282400  1
  Na  Na2  1  0.01124700  0.15677400  0.23127100  1
  Na  Na3  1  0.71554900  0.64331500  0.15337200  1
  Na  Na4  1  0.38028800  0.63403900  0.03737700  1
  Na  Na5  1  0.50869000  0.59032100  0.77229700  1
  Na  Na6  1  0.71554900  0.85668500  0.65337200  1
  Na  Na7  1  0.42266100  0.36539800  0.57282400  1
  Na  Na8  1  0.09771200  0.62091900  0.93963500  1
  Na  Na9  1  0.79757000  0.09257600  0.85934200  1
  Na  Na10  1  0.28445100  0.35668500  0.84662800  1
  Na  Na11  1  0.61971200  0.13403900  0.46262300  1
  Na  Na12  1  0.20243000  0.59257600  0.64065800  1
  Na  Na13  1  0.01124700  0.34322600  0.73127100  1
  Na  Na14  1  0.38028800  0.86596100  0.53737700  1
  Na  Na15  1  0.09509700  0.37926400  0.44858000  1
  Na  Na16  1  0.20243000  0.90742400  0.14065800  1
  Na  Na17  1  0.57733900  0.63460200  0.42717600  1
  Na  Na18  1  0.28445100  0.14331500  0.34662800  1
  Na  Na19  1  0.79757000  0.40742400  0.35934200  1
  Na  Na20  1  0.98875300  0.84322600  0.76872900  1
  Na  Na21  1  0.09509700  0.12073600  0.94858000  1
  Na  Na22  1  0.98875300  0.65677400  0.26872900  1
  Na  Na23  1  0.50869000  0.90967900  0.27229700  1
  Na  Na24  1  0.90228800  0.37908100  0.06036500  1
  Na  Na25  1  0.90490300  0.87926400  0.05142000  1
  Na  Na26  1  0.49131000  0.09032100  0.72770300  1
  Na  Na27  1  0.09771200  0.87908100  0.43963500  1
  Na  Na28  1  0.49131000  0.40967900  0.22770300  1
  Na  Na29  1  0.57733900  0.86539800  0.92717600  1
  Na  Na30  1  0.90228800  0.12091900  0.56036500  1
  Na  Na31  1  0.61971200  0.36596100  0.96262300  1
  Ge  Ge32  1  0.67930600  0.30316500  0.71435100  1
  Ge  Ge33  1  0.77922000  0.66345400  0.91825800  1
  Ge  Ge34  1  0.77922000  0.83654600  0.41825800  1
  Ge  Ge35  1  0.28007500  0.59050100  0.41395200  1
  Ge  Ge36  1  0.82596700  0.55798300  0.79038700  1
  Ge  Ge37  1  0.17403300  0.44201700  0.20961300  1
  Ge  Ge38  1  0.17403300  0.05798300  0.70961300  1
  Ge  Ge39  1  0.32069400  0.69683500  0.28564900  1
  Ge  Ge40  1  0.32069400  0.80316500  0.78564900  1
  Ge  Ge41  1  0.22078000  0.16345400  0.58174200  1
  Ge  Ge42  1  0.71992500  0.40949900  0.58604800  1
  Ge  Ge43  1  0.28007500  0.90949900  0.91395200  1
  Ge  Ge44  1  0.82596700  0.94201700  0.29038700  1
  Ge  Ge45  1  0.71992500  0.09050100  0.08604800  1
  Ge  Ge46  1  0.67930600  0.19683500  0.21435100  1
  Ge  Ge47  1  0.22078000  0.33654600  0.08174200  1
  Te  Te48  1  0.78738100  0.65188500  0.35448800  1
  Te  Te49  1  0.00403100  0.40426000  0.24917300  1
  Te  Te50  1  0.29761800  0.09571700  0.84251900  1
  Te  Te51  1  0.09722300  0.12966800  0.45504400  1
  Te  Te52  1  0.38732900  0.11596200  0.53505200  1
  Te  Te53  1  0.61267100  0.61596200  0.96494800  1
  Te  Te54  1  0.48635900  0.66112500  0.23305800  1
  Te  Te55  1  0.81112200  0.36110400  0.83615700  1
  Te  Te56  1  0.70560000  0.11538200  0.66638000  1
  Te  Te57  1  0.70238200  0.90428300  0.15748100  1
  Te  Te58  1  0.18887800  0.86110400  0.66384300  1
  Te  Te59  1  0.99596900  0.59574000  0.75082700  1
  Te  Te60  1  0.00403100  0.09574000  0.74917300  1
  Te  Te61  1  0.51364100  0.33887500  0.76694200  1
  Te  Te62  1  0.39700100  0.61976000  0.54488500  1
  Te  Te63  1  0.81112200  0.13889600  0.33615700  1
  Te  Te64  1  0.21261900  0.34811500  0.64551200  1
  Te  Te65  1  0.99596900  0.90426000  0.25082700  1
  Te  Te66  1  0.60299900  0.11976000  0.95511500  1
  Te  Te67  1  0.60299900  0.38024000  0.45511500  1
  Te  Te68  1  0.18887800  0.63889600  0.16384300  1
  Te  Te69  1  0.48635900  0.83887500  0.73305800  1
  Te  Te70  1  0.61267100  0.88403800  0.46494800  1
  Te  Te71  1  0.29440000  0.88461800  0.33362000  1
  Te  Te72  1  0.51364100  0.16112500  0.26694200  1
  Te  Te73  1  0.78738100  0.84811500  0.85448800  1
  Te  Te74  1  0.90277700  0.62966800  0.04495600  1
  Te  Te75  1  0.70560000  0.38461800  0.16638000  1
  Te  Te76  1  0.89036400  0.37055400  0.54706700  1
  Te  Te77  1  0.90277700  0.87033200  0.54495600  1
  Te  Te78  1  0.10963600  0.62944600  0.45293300  1
  Te  Te79  1  0.89036400  0.12944600  0.04706700  1
  Te  Te80  1  0.21261900  0.15188500  0.14551200  1
  Te  Te81  1  0.39700100  0.88024000  0.04488500  1
  Te  Te82  1  0.29440000  0.61538200  0.83362000  1
  Te  Te83  1  0.38732900  0.38403800  0.03505200  1
  Te  Te84  1  0.10963600  0.87055400  0.95293300  1
  Te  Te85  1  0.29761800  0.40428300  0.34251900  1
  Te  Te86  1  0.70238200  0.59571700  0.65748100  1
  Te  Te87  1  0.09722300  0.37033200  0.95504400  1
