# generated using pymatgen
data_Na2PtO3
_symmetry_space_group_name_H-M   'P 1'
_cell_length_a   6.46793600
_cell_length_b   9.08935800
_cell_length_c   19.05827200
_cell_angle_alpha   90.00000000
_cell_angle_beta   90.00000000
_cell_angle_gamma   90.00000000
_symmetry_Int_Tables_number   1
_chemical_formula_structural   Na2PtO3
_chemical_formula_sum   'Na32 Pt16 O48'
_cell_volume   1120.42410577
_cell_formula_units_Z   16
loop_
 _symmetry_equiv_pos_site_id
 _symmetry_equiv_pos_as_xyz
  1  'x, y, z'
loop_
 _atom_site_type_symbol
 _atom_site_label
 _atom_site_symmetry_multiplicity
 _atom_site_fract_x
 _atom_site_fract_y
 _atom_site_fract_z
 _atom_site_occupancy
  Na  Na0  1  0.00000000  0.00000000  0.24419000  1
  Na  Na1  1  0.50000000  0.00000000  0.42018400  1
  Na  Na2  1  0.75000000  0.75000000  0.00581000  1
  Na  Na3  1  0.75000000  0.75000000  0.49419000  1
  Na  Na4  1  0.75000000  0.75000000  0.17018400  1
  Na  Na5  1  0.75000000  0.75000000  0.32981600  1
  Na  Na6  1  0.50000000  0.00000000  0.25581000  1
  Na  Na7  1  0.00000000  0.00000000  0.07981600  1
  Na  Na8  1  0.00000000  0.50000000  0.74419000  1
  Na  Na9  1  0.50000000  0.50000000  0.92018400  1
  Na  Na10  1  0.75000000  0.25000000  0.50581000  1
  Na  Na11  1  0.75000000  0.25000000  0.99419000  1
  Na  Na12  1  0.75000000  0.25000000  0.67018400  1
  Na  Na13  1  0.75000000  0.25000000  0.82981600  1
  Na  Na14  1  0.50000000  0.50000000  0.75581000  1
  Na  Na15  1  0.00000000  0.50000000  0.57981600  1
  Na  Na16  1  0.50000000  0.00000000  0.74419000  1
  Na  Na17  1  0.00000000  0.00000000  0.92018400  1
  Na  Na18  1  0.25000000  0.75000000  0.50581000  1
  Na  Na19  1  0.25000000  0.75000000  0.99419000  1
  Na  Na20  1  0.25000000  0.75000000  0.67018400  1
  Na  Na21  1  0.25000000  0.75000000  0.82981600  1
  Na  Na22  1  0.00000000  0.00000000  0.75581000  1
  Na  Na23  1  0.50000000  0.00000000  0.57981600  1
  Na  Na24  1  0.50000000  0.50000000  0.24419000  1
  Na  Na25  1  0.00000000  0.50000000  0.42018400  1
  Na  Na26  1  0.25000000  0.25000000  0.00581000  1
  Na  Na27  1  0.25000000  0.25000000  0.49419000  1
  Na  Na28  1  0.25000000  0.25000000  0.17018400  1
  Na  Na29  1  0.25000000  0.25000000  0.32981600  1
  Na  Na30  1  0.00000000  0.50000000  0.25581000  1
  Na  Na31  1  0.50000000  0.50000000  0.07981600  1
  Pt  Pt32  1  0.50000000  0.00000000  0.08357000  1
  Pt  Pt33  1  0.75000000  0.25000000  0.16643000  1
  Pt  Pt34  1  0.00000000  0.00000000  0.41643000  1
  Pt  Pt35  1  0.75000000  0.25000000  0.33357000  1
  Pt  Pt36  1  0.50000000  0.50000000  0.58357000  1
  Pt  Pt37  1  0.75000000  0.75000000  0.66643000  1
  Pt  Pt38  1  0.00000000  0.50000000  0.91643000  1
  Pt  Pt39  1  0.75000000  0.75000000  0.83357000  1
  Pt  Pt40  1  0.00000000  0.00000000  0.58357000  1
  Pt  Pt41  1  0.25000000  0.25000000  0.66643000  1
  Pt  Pt42  1  0.50000000  0.00000000  0.91643000  1
  Pt  Pt43  1  0.25000000  0.25000000  0.83357000  1
  Pt  Pt44  1  0.00000000  0.50000000  0.08357000  1
  Pt  Pt45  1  0.25000000  0.75000000  0.16643000  1
  Pt  Pt46  1  0.50000000  0.50000000  0.41643000  1
  Pt  Pt47  1  0.25000000  0.75000000  0.33357000  1
  O  O48  1  0.70872600  0.00000000  0.00000000  1
  O  O49  1  0.97627200  0.22904050  0.41034150  1
  O  O50  1  0.02372800  0.77095950  0.41034150  1
  O  O51  1  0.52372800  0.22904050  0.08965850  1
  O  O52  1  0.22627200  0.97904050  0.33965850  1
  O  O53  1  0.47627200  0.77095950  0.08965850  1
  O  O54  1  0.77372800  0.02095950  0.33965850  1
  O  O55  1  0.95872600  0.25000000  0.25000000  1
  O  O56  1  0.72627200  0.02095950  0.16034150  1
  O  O57  1  0.27372800  0.97904050  0.16034150  1
  O  O58  1  0.54127400  0.25000000  0.25000000  1
  O  O59  1  0.29127400  0.00000000  0.00000000  1
  O  O60  1  0.70872600  0.50000000  0.50000000  1
  O  O61  1  0.97627200  0.72904050  0.91034150  1
  O  O62  1  0.02372800  0.27095950  0.91034150  1
  O  O63  1  0.52372800  0.72904050  0.58965850  1
  O  O64  1  0.22627200  0.47904050  0.83965850  1
  O  O65  1  0.47627200  0.27095950  0.58965850  1
  O  O66  1  0.77372800  0.52095950  0.83965850  1
  O  O67  1  0.95872600  0.75000000  0.75000000  1
  O  O68  1  0.72627200  0.52095950  0.66034150  1
  O  O69  1  0.27372800  0.47904050  0.66034150  1
  O  O70  1  0.54127400  0.75000000  0.75000000  1
  O  O71  1  0.29127400  0.50000000  0.50000000  1
  O  O72  1  0.20872600  0.00000000  0.50000000  1
  O  O73  1  0.47627200  0.22904050  0.91034150  1
  O  O74  1  0.52372800  0.77095950  0.91034150  1
  O  O75  1  0.02372800  0.22904050  0.58965850  1
  O  O76  1  0.72627200  0.97904050  0.83965850  1
  O  O77  1  0.97627200  0.77095950  0.58965850  1
  O  O78  1  0.27372800  0.02095950  0.83965850  1
  O  O79  1  0.45872600  0.25000000  0.75000000  1
  O  O80  1  0.22627200  0.02095950  0.66034150  1
  O  O81  1  0.77372800  0.97904050  0.66034150  1
  O  O82  1  0.04127400  0.25000000  0.75000000  1
  O  O83  1  0.79127400  0.00000000  0.50000000  1
  O  O84  1  0.20872600  0.50000000  0.00000000  1
  O  O85  1  0.47627200  0.72904050  0.41034150  1
  O  O86  1  0.52372800  0.27095950  0.41034150  1
  O  O87  1  0.02372800  0.72904050  0.08965850  1
  O  O88  1  0.72627200  0.47904050  0.33965850  1
  O  O89  1  0.97627200  0.27095950  0.08965850  1
  O  O90  1  0.27372800  0.52095950  0.33965850  1
  O  O91  1  0.45872600  0.75000000  0.25000000  1
  O  O92  1  0.22627200  0.52095950  0.16034150  1
  O  O93  1  0.77372800  0.47904050  0.16034150  1
  O  O94  1  0.04127400  0.75000000  0.25000000  1
  O  O95  1  0.79127400  0.50000000  0.00000000  1
