# generated using pymatgen
data_Al2P3H9(CO3)3
_symmetry_space_group_name_H-M   'P 1'
_cell_length_a   14.28306687
_cell_length_b   14.28306687
_cell_length_c   8.70717300
_cell_angle_alpha   90.00000000
_cell_angle_beta   90.00000000
_cell_angle_gamma   120.00000000
_symmetry_Int_Tables_number   1
_chemical_formula_structural   Al2P3H9(CO3)3
_chemical_formula_sum   'Al8 P12 H36 C12 O36'
_cell_volume   1538.33437170
_cell_formula_units_Z   4
loop_
 _symmetry_equiv_pos_site_id
 _symmetry_equiv_pos_as_xyz
  1  'x, y, z'
loop_
 _atom_site_type_symbol
 _atom_site_label
 _atom_site_symmetry_multiplicity
 _atom_site_fract_x
 _atom_site_fract_y
 _atom_site_fract_z
 _atom_site_occupancy
  Al  Al0  1  0.33333333  0.66666667  0.99088900  1
  Al  Al1  1  0.90295933  0.39675867  0.05854600  1
  Al  Al2  1  0.09704067  0.49379933  0.55854600  1
  Al  Al3  1  0.66666667  0.33333333  0.49088900  1
  Al  Al4  1  0.60324133  0.50620067  0.05854600  1
  Al  Al5  1  0.39675867  0.90295933  0.55854600  1
  Al  Al6  1  0.50620067  0.60324133  0.55854600  1
  Al  Al7  1  0.49379933  0.09704067  0.05854600  1
  P  P8  1  0.34863133  0.86533267  0.20033300  1
  P  P9  1  0.86533267  0.34863133  0.70033300  1
  P  P10  1  0.81068633  0.52920467  0.23208100  1
  P  P11  1  0.71851833  0.18931367  0.23208100  1
  P  P12  1  0.18931367  0.71851833  0.73208100  1
  P  P13  1  0.13466733  0.48329867  0.20033300  1
  P  P14  1  0.47079533  0.28148167  0.23208100  1
  P  P15  1  0.52920467  0.81068633  0.73208100  1
  P  P16  1  0.48329867  0.13466733  0.70033300  1
  P  P17  1  0.51670133  0.65136867  0.20033300  1
  P  P18  1  0.28148167  0.47079533  0.73208100  1
  P  P19  1  0.65136867  0.51670133  0.70033300  1
  H  H20  1  0.96076333  0.66527067  0.37352600  1
  H  H21  1  0.93782033  0.71890767  0.20128500  1
  H  H22  1  0.61976433  0.83559567  0.11958400  1
  H  H23  1  0.28109233  0.21891267  0.20128500  1
  H  H24  1  0.16440433  0.78416867  0.11958400  1
  H  H25  1  0.17643833  0.73301667  0.30040100  1
  H  H26  1  0.84158333  0.14853267  0.36378500  1
  H  H27  1  0.21891267  0.28109233  0.70128500  1
  H  H28  1  0.18889333  0.86439467  0.28947900  1
  H  H29  1  0.73301667  0.17643833  0.80040100  1
  H  H30  1  0.33472933  0.29549267  0.37352600  1
  H  H31  1  0.15841667  0.30694933  0.86378500  1
  H  H32  1  0.71890767  0.93782033  0.70128500  1
  H  H33  1  0.55657833  0.82356167  0.30040100  1
  H  H34  1  0.13560533  0.32449867  0.28947900  1
  H  H35  1  0.69305067  0.85146733  0.86378500  1
  H  H36  1  0.32449867  0.13560533  0.78947900  1
  H  H37  1  0.83559567  0.61976433  0.61958400  1
  H  H38  1  0.86439467  0.18889333  0.78947900  1
  H  H39  1  0.70450733  0.03923667  0.37352600  1
  H  H40  1  0.78108733  0.06217967  0.20128500  1
  H  H41  1  0.67550133  0.81110667  0.28947900  1
  H  H42  1  0.21583133  0.38023567  0.11958400  1
  H  H43  1  0.82356167  0.55657833  0.80040100  1
  H  H44  1  0.14853267  0.84158333  0.86378500  1
  H  H45  1  0.81110667  0.67550133  0.78947900  1
  H  H46  1  0.78416867  0.16440433  0.61958400  1
  H  H47  1  0.29549267  0.33472933  0.87352600  1
  H  H48  1  0.03923667  0.70450733  0.87352600  1
  H  H49  1  0.85146733  0.69305067  0.36378500  1
  H  H50  1  0.26698333  0.44342167  0.30040100  1
  H  H51  1  0.30694933  0.15841667  0.36378500  1
  H  H52  1  0.44342167  0.26698333  0.80040100  1
  H  H53  1  0.06217967  0.78108733  0.70128500  1
  H  H54  1  0.66527067  0.96076333  0.87352600  1
  H  H55  1  0.38023567  0.21583133  0.61958400  1
  C  C56  1  0.60063133  0.79424867  0.23084400  1
  C  C57  1  0.39936867  0.19361733  0.73084400  1
  C  C58  1  0.23375233  0.33522067  0.79904000  1
  C  C59  1  0.89853167  0.66477933  0.29904000  1
  C  C60  1  0.10146833  0.76624767  0.79904000  1
  C  C61  1  0.66477933  0.89853167  0.79904000  1
  C  C62  1  0.80638267  0.20575133  0.73084400  1
  C  C63  1  0.20575133  0.80638267  0.23084400  1
  C  C64  1  0.76624767  0.10146833  0.29904000  1
  C  C65  1  0.33522067  0.23375233  0.29904000  1
  C  C66  1  0.79424867  0.60063133  0.73084400  1
  C  C67  1  0.19361733  0.39936867  0.23084400  1
  O  O68  1  0.58624733  0.21032267  0.61656200  1
  O  O69  1  0.58752633  0.61630167  0.10886800  1
  O  O70  1  0.70486933  0.24753867  0.36662200  1
  O  O71  1  0.54266933  0.29513067  0.36662200  1
  O  O72  1  0.24753867  0.70486933  0.86662200  1
  O  O73  1  0.41375267  0.62407533  0.11656200  1
  O  O74  1  0.53516433  0.73316767  0.61297600  1
  O  O75  1  0.89610233  0.40597367  0.85895500  1
  O  O76  1  0.38757933  0.50214067  0.64435000  1
  O  O77  1  0.21032267  0.58624733  0.11656200  1
  O  O78  1  0.40597367  0.89610233  0.35895500  1
  O  O79  1  0.97122467  0.38369833  0.60886800  1
  O  O80  1  0.62407533  0.41375267  0.61656200  1
  O  O81  1  0.29513067  0.54266933  0.86662200  1
  O  O82  1  0.59402633  0.49012867  0.85895500  1
  O  O83  1  0.37592467  0.78967733  0.11656200  1
  O  O84  1  0.49012867  0.59402633  0.35895500  1
  O  O85  1  0.19800333  0.46483567  0.61297600  1
  O  O86  1  0.61242067  0.11456133  0.14435000  1
  O  O87  1  0.02877533  0.41247367  0.10886800  1
  O  O88  1  0.50214067  0.38757933  0.14435000  1
  O  O89  1  0.46483567  0.19800333  0.11297600  1
  O  O90  1  0.11456133  0.61242067  0.64435000  1
  O  O91  1  0.78967733  0.37592467  0.61656200  1
  O  O92  1  0.61630167  0.58752633  0.60886800  1
  O  O93  1  0.75246133  0.45733067  0.36662200  1
  O  O94  1  0.38369833  0.97122467  0.10886800  1
  O  O95  1  0.80199667  0.26683233  0.11297600  1
  O  O96  1  0.10389767  0.50987133  0.35895500  1
  O  O97  1  0.41247367  0.02877533  0.60886800  1
  O  O98  1  0.50987133  0.10389767  0.85895500  1
  O  O99  1  0.49785933  0.88543867  0.64435000  1
  O  O100  1  0.73316767  0.53516433  0.11297600  1
  O  O101  1  0.45733067  0.75246133  0.86662200  1
  O  O102  1  0.26683233  0.80199667  0.61297600  1
  O  O103  1  0.88543867  0.49785933  0.14435000  1
