# generated using pymatgen
data_KCeH2S2O9
_symmetry_space_group_name_H-M   'P 1'
_cell_length_a   10.20701600
_cell_length_b   8.76965600
_cell_length_c   10.52291400
_cell_angle_alpha   90.00000000
_cell_angle_beta   118.65753980
_cell_angle_gamma   90.00000000
_symmetry_Int_Tables_number   1
_chemical_formula_structural   KCeH2S2O9
_chemical_formula_sum   'K4 Ce4 H8 S8 O36'
_cell_volume   826.54288494
_cell_formula_units_Z   4
loop_
 _symmetry_equiv_pos_site_id
 _symmetry_equiv_pos_as_xyz
  1  'x, y, z'
loop_
 _atom_site_type_symbol
 _atom_site_label
 _atom_site_symmetry_multiplicity
 _atom_site_fract_x
 _atom_site_fract_y
 _atom_site_fract_z
 _atom_site_occupancy
  K  K0  1  0.71576600  0.68687600  0.19580400  1
  K  K1  1  0.28423400  0.18687600  0.30419600  1
  K  K2  1  0.28423400  0.31312400  0.80419600  1
  K  K3  1  0.71576600  0.81312400  0.69580400  1
  Ce  Ce4  1  0.76451600  0.33928300  0.53294700  1
  Ce  Ce5  1  0.23548400  0.83928300  0.96705300  1
  Ce  Ce6  1  0.23548400  0.66071700  0.46705300  1
  Ce  Ce7  1  0.76451600  0.16071700  0.03294700  1
  H  H8  1  0.77666800  0.01552200  0.43108100  1
  H  H9  1  0.22333200  0.51552200  0.06891900  1
  H  H10  1  0.22333200  0.98447800  0.56891900  1
  H  H11  1  0.77666800  0.48447800  0.93108100  1
  H  H12  1  0.89854900  0.98414900  0.59179000  1
  H  H13  1  0.10145100  0.48414900  0.90821000  1
  H  H14  1  0.10145100  0.01585100  0.40821000  1
  H  H15  1  0.89854900  0.51585100  0.09179000  1
  S  S16  1  0.01811400  0.68378400  0.61035600  1
  S  S17  1  0.98188600  0.18378400  0.88964400  1
  S  S18  1  0.98188600  0.31621600  0.38964400  1
  S  S19  1  0.01811400  0.81621600  0.11035600  1
  S  S20  1  0.54811700  0.12991900  0.17585100  1
  S  S21  1  0.45188300  0.62991900  0.32414900  1
  S  S22  1  0.45188300  0.87008100  0.82414900  1
  S  S23  1  0.54811700  0.37008100  0.67585100  1
  O  O24  1  0.80385300  0.03863600  0.53236400  1
  O  O25  1  0.19614700  0.53863600  0.96763600  1
  O  O26  1  0.19614700  0.96136400  0.46763600  1
  O  O27  1  0.80385300  0.46136400  0.03236400  1
  O  O28  1  0.16782000  0.60929100  0.66710500  1
  O  O29  1  0.83218000  0.10929100  0.83289500  1
  O  O30  1  0.83218000  0.39070900  0.33289500  1
  O  O31  1  0.16782000  0.89070900  0.16710500  1
  O  O32  1  0.54672500  0.24076000  0.06682000  1
  O  O33  1  0.45327500  0.74076000  0.43318000  1
  O  O34  1  0.45327500  0.75924000  0.93318000  1
  O  O35  1  0.54672500  0.25924000  0.56682000  1
  O  O36  1  0.67685600  0.02446200  0.21125900  1
  O  O37  1  0.32314400  0.52446200  0.28874100  1
  O  O38  1  0.32314400  0.97553800  0.78874100  1
  O  O39  1  0.67685600  0.47553800  0.71125900  1
  O  O40  1  0.40376000  0.04706800  0.11439500  1
  O  O41  1  0.59624000  0.54706800  0.38560500  1
  O  O42  1  0.59624000  0.95293200  0.88560500  1
  O  O43  1  0.40376000  0.45293200  0.61439500  1
  O  O44  1  0.56799700  0.20996700  0.30826800  1
  O  O45  1  0.43200300  0.70996700  0.19173200  1
  O  O46  1  0.43200300  0.79003300  0.69173200  1
  O  O47  1  0.56799700  0.29003300  0.80826800  1
  O  O48  1  0.02930100  0.81466200  0.70687500  1
  O  O49  1  0.97069900  0.31466200  0.79312500  1
  O  O50  1  0.97069900  0.18533800  0.29312500  1
  O  O51  1  0.02930100  0.68533800  0.20687500  1
  O  O52  1  0.97588500  0.73952900  0.46245400  1
  O  O53  1  0.02411500  0.23952900  0.03754600  1
  O  O54  1  0.02411500  0.26047100  0.53754600  1
  O  O55  1  0.97588500  0.76047100  0.96245400  1
  O  O56  1  0.90576700  0.57669900  0.61019300  1
  O  O57  1  0.09423300  0.07669900  0.88980700  1
  O  O58  1  0.09423300  0.42330100  0.38980700  1
  O  O59  1  0.90576700  0.92330100  0.11019300  1
