# generated using pymatgen
data_In2Cu2SiS6
_symmetry_space_group_name_H-M   'P 1'
_cell_length_a   11.99172600
_cell_length_b   6.86166400
_cell_length_c   12.10526146
_cell_angle_alpha   90.00000000
_cell_angle_beta   110.27863540
_cell_angle_gamma   90.00000000
_symmetry_Int_Tables_number   1
_chemical_formula_structural   In2Cu2SiS6
_chemical_formula_sum   'In8 Cu8 Si4 S24'
_cell_volume   934.32205413
_cell_formula_units_Z   4
loop_
 _symmetry_equiv_pos_site_id
 _symmetry_equiv_pos_as_xyz
  1  'x, y, z'
loop_
 _atom_site_type_symbol
 _atom_site_label
 _atom_site_symmetry_multiplicity
 _atom_site_fract_x
 _atom_site_fract_y
 _atom_site_fract_z
 _atom_site_occupancy
  In  In0  1  0.41761950  0.88312750  0.55875000  1
  In  In1  1  0.24157950  0.06980450  0.25333900  1
  In  In2  1  0.74157950  0.43019550  0.75333900  1
  In  In3  1  0.41761950  0.11687250  0.05875000  1
  In  In4  1  0.91761950  0.38312750  0.55875000  1
  In  In5  1  0.74157950  0.56980450  0.25333900  1
  In  In6  1  0.24157950  0.93019550  0.75333900  1
  In  In7  1  0.91761950  0.61687250  0.05875000  1
  Cu  Cu8  1  0.60136600  0.21188900  0.40306200  1
  Cu  Cu9  1  0.40087850  0.61304250  0.25358800  1
  Cu  Cu10  1  0.60136600  0.78811100  0.90306200  1
  Cu  Cu11  1  0.40087850  0.38695750  0.75358800  1
  Cu  Cu12  1  0.10136600  0.71188900  0.40306200  1
  Cu  Cu13  1  0.90087850  0.11304250  0.25358800  1
  Cu  Cu14  1  0.10136600  0.28811100  0.90306200  1
  Cu  Cu15  1  0.90087850  0.88695750  0.75358800  1
  Si  Si16  1  0.66878050  0.26117250  0.99554700  1
  Si  Si17  1  0.66878050  0.73882750  0.49554700  1
  Si  Si18  1  0.16878050  0.76117250  0.99554700  1
  Si  Si19  1  0.16878050  0.23882750  0.49554700  1
  S  S20  1  0.42107450  0.72871950  0.75109700  1
  S  S21  1  0.59080100  0.76069400  0.30916400  1
  S  S22  1  0.28367400  0.74794300  0.36261600  1
  S  S23  1  0.09736650  0.01472150  0.04517500  1
  S  S24  1  0.59736650  0.48527850  0.54517500  1
  S  S25  1  0.42107450  0.27128050  0.25109700  1
  S  S26  1  0.78367400  0.75205700  0.86261600  1
  S  S27  1  0.35647850  0.75513550  0.06056100  1
  S  S28  1  0.59080100  0.23930600  0.80916400  1
  S  S29  1  0.35647850  0.24486450  0.56056100  1
  S  S30  1  0.61687850  0.99977050  0.55965300  1
  S  S31  1  0.11687850  0.50022950  0.05965300  1
  S  S32  1  0.92107450  0.22871950  0.75109700  1
  S  S33  1  0.09080100  0.26069400  0.30916400  1
  S  S34  1  0.78367400  0.24794300  0.36261600  1
  S  S35  1  0.59736650  0.51472150  0.04517500  1
  S  S36  1  0.09736650  0.98527850  0.54517500  1
  S  S37  1  0.92107450  0.77128050  0.25109700  1
  S  S38  1  0.28367400  0.25205700  0.86261600  1
  S  S39  1  0.85647850  0.25513550  0.06056100  1
  S  S40  1  0.09080100  0.73930600  0.80916400  1
  S  S41  1  0.85647850  0.74486450  0.56056100  1
  S  S42  1  0.11687850  0.49977050  0.55965300  1
  S  S43  1  0.61687850  0.00022950  0.05965300  1
