# generated using pymatgen
data_RbZn4(BO3)3
_symmetry_space_group_name_H-M   'P 1'
_cell_length_a   6.97993500
_cell_length_b   5.06228900
_cell_length_c   12.91963327
_cell_angle_alpha   90.00000000
_cell_angle_beta   93.08277937
_cell_angle_gamma   90.00000000
_symmetry_Int_Tables_number   1
_chemical_formula_structural   RbZn4(BO3)3
_chemical_formula_sum   'Rb2 Zn8 B6 O18'
_cell_volume   455.84748979
_cell_formula_units_Z   2
loop_
 _symmetry_equiv_pos_site_id
 _symmetry_equiv_pos_as_xyz
  1  'x, y, z'
loop_
 _atom_site_type_symbol
 _atom_site_label
 _atom_site_symmetry_multiplicity
 _atom_site_fract_x
 _atom_site_fract_y
 _atom_site_fract_z
 _atom_site_occupancy
  Rb  Rb0  1  0.00000000  0.72366900  0.75000000  1
  Rb  Rb1  1  0.00000000  0.27633100  0.25000000  1
  Zn  Zn2  1  0.48845600  0.64993100  0.62463000  1
  Zn  Zn3  1  0.51154400  0.64993100  0.87537000  1
  Zn  Zn4  1  0.51154400  0.35006900  0.37537000  1
  Zn  Zn5  1  0.48845600  0.35006900  0.12463000  1
  Zn  Zn6  1  0.20850400  0.16712500  0.56080200  1
  Zn  Zn7  1  0.79149600  0.16712500  0.93919800  1
  Zn  Zn8  1  0.79149600  0.83287500  0.43919800  1
  Zn  Zn9  1  0.20850400  0.83287500  0.06080200  1
  B  B10  1  0.50000000  0.15489400  0.75000000  1
  B  B11  1  0.50000000  0.84510600  0.25000000  1
  B  B12  1  0.19006800  0.34517700  0.95399700  1
  B  B13  1  0.80993200  0.34517700  0.54600300  1
  B  B14  1  0.80993200  0.65482300  0.04600300  1
  B  B15  1  0.19006800  0.65482300  0.45399700  1
  O  O16  1  0.50000000  0.87942300  0.75000000  1
  O  O17  1  0.50000000  0.12057700  0.25000000  1
  O  O18  1  0.27501000  0.79746500  0.53720200  1
  O  O19  1  0.72499000  0.79746500  0.96279800  1
  O  O20  1  0.72499000  0.20253500  0.46279800  1
  O  O21  1  0.27501000  0.20253500  0.03720200  1
  O  O22  1  0.40633500  0.29217700  0.66963900  1
  O  O23  1  0.59366500  0.29217700  0.83036100  1
  O  O24  1  0.59366500  0.70782300  0.33036100  1
  O  O25  1  0.40633500  0.70782300  0.16963900  1
  O  O26  1  0.26327700  0.60259400  0.93820700  1
  O  O27  1  0.73672300  0.60259400  0.56179300  1
  O  O28  1  0.73672300  0.39740600  0.06179300  1
  O  O29  1  0.26327700  0.39740600  0.43820700  1
  O  O30  1  0.04327000  0.24793400  0.89260300  1
  O  O31  1  0.95673000  0.24793400  0.60739700  1
  O  O32  1  0.95673000  0.75206600  0.10739700  1
  O  O33  1  0.04327000  0.75206600  0.39260300  1
