# generated using pymatgen
data_HgSb4C2(OF11)2
_symmetry_space_group_name_H-M   'P 1'
_cell_length_a   7.77514400
_cell_length_b   14.31770200
_cell_length_c   10.22101103
_cell_angle_alpha   90.00000000
_cell_angle_beta   114.12221911
_cell_angle_gamma   90.00000000
_symmetry_Int_Tables_number   1
_chemical_formula_structural   HgSb4C2(OF11)2
_chemical_formula_sum   'Hg2 Sb8 C4 O4 F44'
_cell_volume   1038.46564320
_cell_formula_units_Z   2
loop_
 _symmetry_equiv_pos_site_id
 _symmetry_equiv_pos_as_xyz
  1  'x, y, z'
loop_
 _atom_site_type_symbol
 _atom_site_label
 _atom_site_symmetry_multiplicity
 _atom_site_fract_x
 _atom_site_fract_y
 _atom_site_fract_z
 _atom_site_occupancy
  Hg  Hg0  1  0.50000000  0.00000000  0.00000000  1
  Hg  Hg1  1  0.50000000  0.50000000  0.50000000  1
  Sb  Sb2  1  0.78218700  0.41730500  0.25136900  1
  Sb  Sb3  1  0.69356000  0.72655300  0.86707300  1
  Sb  Sb4  1  0.78218700  0.08269500  0.75136900  1
  Sb  Sb5  1  0.69356000  0.77344700  0.36707300  1
  Sb  Sb6  1  0.30644000  0.27344700  0.13292700  1
  Sb  Sb7  1  0.21781300  0.91730500  0.24863100  1
  Sb  Sb8  1  0.21781300  0.58269500  0.74863100  1
  Sb  Sb9  1  0.30644000  0.22655300  0.63292700  1
  C  C10  1  0.30465300  0.93924000  0.80872400  1
  C  C11  1  0.30465300  0.56076000  0.30872400  1
  C  C12  1  0.69534700  0.06076000  0.19127600  1
  C  C13  1  0.69534700  0.43924000  0.69127600  1
  O  O14  1  0.20578400  0.90209300  0.70889300  1
  O  O15  1  0.79421600  0.40209300  0.79110700  1
  O  O16  1  0.79421600  0.09790700  0.29110700  1
  O  O17  1  0.20578400  0.59790700  0.20889300  1
  F  F18  1  0.80641000  0.43417400  0.07614900  1
  F  F19  1  0.82041600  0.66493700  0.04368900  1
  F  F20  1  0.28097400  0.60239500  0.58574200  1
  F  F21  1  0.80641000  0.06582600  0.57614900  1
  F  F22  1  0.71902600  0.39760500  0.41425800  1
  F  F23  1  0.46135800  0.84506300  0.36957500  1
  F  F24  1  0.71902600  0.10239500  0.91425800  1
  F  F25  1  0.62443200  0.52454300  0.21722000  1
  F  F26  1  0.52003500  0.77603700  0.69055000  1
  F  F27  1  0.53864200  0.15493700  0.63042500  1
  F  F28  1  0.09409800  0.20764400  0.12803700  1
  F  F29  1  0.10256000  0.70146300  0.71651500  1
  F  F30  1  0.90590200  0.70764400  0.37196300  1
  F  F31  1  0.82041600  0.83506300  0.54368900  1
  F  F32  1  0.27436700  0.11887200  0.73325900  1
  F  F33  1  0.37556800  0.02454300  0.28278000  1
  F  F34  1  0.27436700  0.38112800  0.23325900  1
  F  F35  1  0.37556800  0.47545700  0.78278000  1
  F  F36  1  0.19359000  0.56582600  0.92385100  1
  F  F37  1  0.17958400  0.16493700  0.45631100  1
  F  F38  1  0.47996500  0.27603700  0.80945000  1
  F  F39  1  0.46135800  0.65493700  0.86957500  1
  F  F40  1  0.61822700  0.67420400  0.46091700  1
  F  F41  1  0.10256000  0.79853700  0.21651500  1
  F  F42  1  0.72563300  0.61887200  0.76674100  1
  F  F43  1  0.28097400  0.89760500  0.08574200  1
  F  F44  1  0.01088500  0.01874200  0.86043700  1
  F  F45  1  0.47996500  0.22396300  0.30945000  1
  F  F46  1  0.98911500  0.51874200  0.63956300  1
  F  F47  1  0.72563300  0.88112800  0.26674100  1
  F  F48  1  0.38177300  0.32579600  0.53908300  1
  F  F49  1  0.89744000  0.29853700  0.28348500  1
  F  F50  1  0.17958400  0.33506300  0.95631100  1
  F  F51  1  0.90590200  0.79235600  0.87196300  1
  F  F52  1  0.38177300  0.17420400  0.03908300  1
  F  F53  1  0.89744000  0.20146300  0.78348500  1
  F  F54  1  0.19359000  0.93417400  0.42385100  1
  F  F55  1  0.53864200  0.34506300  0.13042500  1
  F  F56  1  0.62443200  0.97545700  0.71722000  1
  F  F57  1  0.98911500  0.98125800  0.13956300  1
  F  F58  1  0.09409800  0.29235600  0.62803700  1
  F  F59  1  0.52003500  0.72396300  0.19055000  1
  F  F60  1  0.01088500  0.48125800  0.36043700  1
  F  F61  1  0.61822700  0.82579600  0.96091700  1
