# generated using pymatgen
data_NbTlBr4O
_symmetry_space_group_name_H-M   'P 1'
_cell_length_a   13.93070800
_cell_length_b   4.08295000
_cell_length_c   7.84046268
_cell_angle_alpha   90.00000000
_cell_angle_beta   106.99689417
_cell_angle_gamma   90.00000000
_symmetry_Int_Tables_number   1
_chemical_formula_structural   NbTlBr4O
_chemical_formula_sum   'Nb2 Tl2 Br8 O2'
_cell_volume   426.47389743
_cell_formula_units_Z   2
loop_
 _symmetry_equiv_pos_site_id
 _symmetry_equiv_pos_as_xyz
  1  'x, y, z'
loop_
 _atom_site_type_symbol
 _atom_site_label
 _atom_site_symmetry_multiplicity
 _atom_site_fract_x
 _atom_site_fract_y
 _atom_site_fract_z
 _atom_site_occupancy
  Nb  Nb0  1  0.00000000  0.44319100  0.50000000  1
  Nb  Nb1  1  0.50000000  0.94319100  0.50000000  1
  Tl  Tl2  1  0.00000000  0.99968700  0.00000000  1
  Tl  Tl3  1  0.50000000  0.49968700  0.00000000  1
  Br  Br4  1  0.36152000  0.01306000  0.20010400  1
  Br  Br5  1  0.13400100  0.51345500  0.33544100  1
  Br  Br6  1  0.13848000  0.51306000  0.79989600  1
  Br  Br7  1  0.36599900  0.01345500  0.66455900  1
  Br  Br8  1  0.86152000  0.51306000  0.20010400  1
  Br  Br9  1  0.63400100  0.01345500  0.33544100  1
  Br  Br10  1  0.63848000  0.01306000  0.79989600  1
  Br  Br11  1  0.86599900  0.51345500  0.66455900  1
  O  O12  1  0.00000000  0.00479200  0.50000000  1
  O  O13  1  0.50000000  0.50479200  0.50000000  1
