# generated using pymatgen
data_Rb3TaO8
_symmetry_space_group_name_H-M   'P 1'
_cell_length_a   7.18574400
_cell_length_b   7.18574400
_cell_length_c   8.28295200
_cell_angle_alpha   90.00000000
_cell_angle_beta   90.00000000
_cell_angle_gamma   90.00000000
_symmetry_Int_Tables_number   1
_chemical_formula_structural   Rb3TaO8
_chemical_formula_sum   'Rb6 Ta2 O16'
_cell_volume   427.68953766
_cell_formula_units_Z   2
loop_
 _symmetry_equiv_pos_site_id
 _symmetry_equiv_pos_as_xyz
  1  'x, y, z'
loop_
 _atom_site_type_symbol
 _atom_site_label
 _atom_site_symmetry_multiplicity
 _atom_site_fract_x
 _atom_site_fract_y
 _atom_site_fract_z
 _atom_site_occupancy
  Rb  Rb0  1  0.00000000  0.00000000  0.50000000  1
  Rb  Rb1  1  0.50000000  0.00000000  0.25000000  1
  Rb  Rb2  1  0.00000000  0.50000000  0.25000000  1
  Rb  Rb3  1  0.50000000  0.50000000  0.00000000  1
  Rb  Rb4  1  0.00000000  0.50000000  0.75000000  1
  Rb  Rb5  1  0.50000000  0.00000000  0.75000000  1
  Ta  Ta6  1  0.00000000  0.00000000  0.00000000  1
  Ta  Ta7  1  0.50000000  0.50000000  0.50000000  1
  O  O8  1  0.29594400  0.29594400  0.51889000  1
  O  O9  1  0.29594400  0.70405600  0.48111000  1
  O  O10  1  0.70405600  0.29594400  0.48111000  1
  O  O11  1  0.20405600  0.20405600  0.01889000  1
  O  O12  1  0.13440850  0.13440850  0.18050950  1
  O  O13  1  0.13440850  0.86559150  0.81949050  1
  O  O14  1  0.86559150  0.13440850  0.81949050  1
  O  O15  1  0.36559150  0.36559150  0.68050950  1
  O  O16  1  0.79594400  0.79594400  0.01889000  1
  O  O17  1  0.79594400  0.20405600  0.98111000  1
  O  O18  1  0.20405600  0.79594400  0.98111000  1
  O  O19  1  0.70405600  0.70405600  0.51889000  1
  O  O20  1  0.63440850  0.63440850  0.68050950  1
  O  O21  1  0.63440850  0.36559150  0.31949050  1
  O  O22  1  0.36559150  0.63440850  0.31949050  1
  O  O23  1  0.86559150  0.86559150  0.18050950  1
