# generated using pymatgen
data_Li6ZrBeF12
_symmetry_space_group_name_H-M   'P 1'
_cell_length_a   6.68071800
_cell_length_b   6.68071800
_cell_length_c   18.82854400
_cell_angle_alpha   90.00000000
_cell_angle_beta   90.00000000
_cell_angle_gamma   90.00000000
_symmetry_Int_Tables_number   1
_chemical_formula_structural   Li6ZrBeF12
_chemical_formula_sum   'Li24 Zr4 Be4 F48'
_cell_volume   840.35544392
_cell_formula_units_Z   4
loop_
 _symmetry_equiv_pos_site_id
 _symmetry_equiv_pos_as_xyz
  1  'x, y, z'
loop_
 _atom_site_type_symbol
 _atom_site_label
 _atom_site_symmetry_multiplicity
 _atom_site_fract_x
 _atom_site_fract_y
 _atom_site_fract_z
 _atom_site_occupancy
  Li  Li0  1  0.00000000  0.50000000  0.47815200  1
  Li  Li1  1  0.23358500  0.75000000  0.12500000  1
  Li  Li2  1  0.00000000  0.50000000  0.02184800  1
  Li  Li3  1  0.76641500  0.25000000  0.12500000  1
  Li  Li4  1  0.75000000  0.26641500  0.37500000  1
  Li  Li5  1  0.23358500  0.25000000  0.12500000  1
  Li  Li6  1  0.25000000  0.26641500  0.37500000  1
  Li  Li7  1  0.25000000  0.73358500  0.37500000  1
  Li  Li8  1  0.76641500  0.75000000  0.12500000  1
  Li  Li9  1  0.75000000  0.73358500  0.37500000  1
  Li  Li10  1  0.00000000  0.00000000  0.22815200  1
  Li  Li11  1  0.50000000  0.50000000  0.27184800  1
  Li  Li12  1  0.50000000  0.00000000  0.97815200  1
  Li  Li13  1  0.73358500  0.25000000  0.62500000  1
  Li  Li14  1  0.50000000  0.00000000  0.52184800  1
  Li  Li15  1  0.26641500  0.75000000  0.62500000  1
  Li  Li16  1  0.25000000  0.76641500  0.87500000  1
  Li  Li17  1  0.73358500  0.75000000  0.62500000  1
  Li  Li18  1  0.75000000  0.76641500  0.87500000  1
  Li  Li19  1  0.75000000  0.23358500  0.87500000  1
  Li  Li20  1  0.26641500  0.25000000  0.62500000  1
  Li  Li21  1  0.25000000  0.23358500  0.87500000  1
  Li  Li22  1  0.50000000  0.50000000  0.72815200  1
  Li  Li23  1  0.00000000  0.00000000  0.77184800  1
  Zr  Zr24  1  0.50000000  0.00000000  0.25000000  1
  Zr  Zr25  1  0.50000000  0.50000000  0.00000000  1
  Zr  Zr26  1  0.00000000  0.50000000  0.75000000  1
  Zr  Zr27  1  0.00000000  0.00000000  0.50000000  1
  Be  Be28  1  0.00000000  0.00000000  0.00000000  1
  Be  Be29  1  0.00000000  0.50000000  0.25000000  1
  Be  Be30  1  0.50000000  0.50000000  0.50000000  1
  Be  Be31  1  0.50000000  0.00000000  0.75000000  1
  F  F32  1  0.30946200  0.50000000  0.44972400  1
  F  F33  1  0.00000000  0.19053800  0.05027600  1
  F  F34  1  0.00000000  0.69053800  0.19972400  1
  F  F35  1  0.71576600  0.00000000  0.45294100  1
  F  F36  1  0.00000000  0.22946700  0.41555700  1
  F  F37  1  0.50000000  0.22946700  0.33444300  1
  F  F38  1  0.72946700  0.50000000  0.08444300  1
  F  F39  1  0.27053300  0.00000000  0.16555700  1
  F  F40  1  0.27053300  0.50000000  0.08444300  1
  F  F41  1  0.78423400  0.00000000  0.29705900  1
  F  F42  1  0.72946700  0.00000000  0.16555700  1
  F  F43  1  0.28423400  0.00000000  0.45294100  1
  F  F44  1  0.00000000  0.80946200  0.05027600  1
  F  F45  1  0.80946200  0.50000000  0.30027600  1
  F  F46  1  0.21576600  0.00000000  0.29705900  1
  F  F47  1  0.00000000  0.30946200  0.19972400  1
  F  F48  1  0.19053800  0.50000000  0.30027600  1
  F  F49  1  0.69053800  0.50000000  0.44972400  1
  F  F50  1  0.00000000  0.77053300  0.41555700  1
  F  F51  1  0.50000000  0.77053300  0.33444300  1
  F  F52  1  0.50000000  0.78423400  0.04705900  1
  F  F53  1  0.50000000  0.21576600  0.04705900  1
  F  F54  1  0.50000000  0.28423400  0.20294100  1
  F  F55  1  0.50000000  0.71576600  0.20294100  1
  F  F56  1  0.80946200  0.00000000  0.94972400  1
  F  F57  1  0.50000000  0.69053800  0.55027600  1
  F  F58  1  0.50000000  0.19053800  0.69972400  1
  F  F59  1  0.21576600  0.50000000  0.95294100  1
  F  F60  1  0.50000000  0.72946700  0.91555700  1
  F  F61  1  0.00000000  0.72946700  0.83444300  1
  F  F62  1  0.22946700  0.00000000  0.58444300  1
  F  F63  1  0.77053300  0.50000000  0.66555700  1
  F  F64  1  0.77053300  0.00000000  0.58444300  1
  F  F65  1  0.28423400  0.50000000  0.79705900  1
  F  F66  1  0.22946700  0.50000000  0.66555700  1
  F  F67  1  0.78423400  0.50000000  0.95294100  1
  F  F68  1  0.50000000  0.30946200  0.55027600  1
  F  F69  1  0.30946200  0.00000000  0.80027600  1
  F  F70  1  0.71576600  0.50000000  0.79705900  1
  F  F71  1  0.50000000  0.80946200  0.69972400  1
  F  F72  1  0.69053800  0.00000000  0.80027600  1
  F  F73  1  0.19053800  0.00000000  0.94972400  1
  F  F74  1  0.50000000  0.27053300  0.91555700  1
  F  F75  1  0.00000000  0.27053300  0.83444300  1
  F  F76  1  0.00000000  0.28423400  0.54705900  1
  F  F77  1  0.00000000  0.71576600  0.54705900  1
  F  F78  1  0.00000000  0.78423400  0.70294100  1
  F  F79  1  0.00000000  0.21576600  0.70294100  1
