# generated using pymatgen
data_BaNiF4
_symmetry_space_group_name_H-M   'P 1'
_cell_length_a   4.20427000
_cell_length_b   14.77308800
_cell_length_c   5.90878600
_cell_angle_alpha   90.00000000
_cell_angle_beta   90.00000000
_cell_angle_gamma   90.00000000
_symmetry_Int_Tables_number   1
_chemical_formula_structural   BaNiF4
_chemical_formula_sum   'Ba4 Ni4 F16'
_cell_volume   366.99499795
_cell_formula_units_Z   4
loop_
 _symmetry_equiv_pos_site_id
 _symmetry_equiv_pos_as_xyz
  1  'x, y, z'
loop_
 _atom_site_type_symbol
 _atom_site_label
 _atom_site_symmetry_multiplicity
 _atom_site_fract_x
 _atom_site_fract_y
 _atom_site_fract_z
 _atom_site_occupancy
  Ba  Ba0  1  0.00000000  0.85281000  0.04171900  1
  Ba  Ba1  1  0.50000000  0.64719000  0.54171900  1
  Ba  Ba2  1  0.50000000  0.35281000  0.04171900  1
  Ba  Ba3  1  0.00000000  0.14719000  0.54171900  1
  Ni  Ni4  1  0.00000000  0.58628000  0.99960600  1
  Ni  Ni5  1  0.50000000  0.91372000  0.49960600  1
  Ni  Ni6  1  0.50000000  0.08628000  0.99960600  1
  Ni  Ni7  1  0.00000000  0.41372000  0.49960600  1
  F  F8  1  0.00000000  0.66397800  0.27203000  1
  F  F9  1  0.00000000  0.92112300  0.48941500  1
  F  F10  1  0.00000000  0.52805400  0.68082200  1
  F  F11  1  0.50000000  0.97194600  0.18082200  1
  F  F12  1  0.00000000  0.69790900  0.80670800  1
  F  F13  1  0.50000000  0.80209100  0.30670800  1
  F  F14  1  0.50000000  0.83602200  0.77203000  1
  F  F15  1  0.50000000  0.57887700  0.98941500  1
  F  F16  1  0.50000000  0.16397800  0.27203000  1
  F  F17  1  0.50000000  0.42112300  0.48941500  1
  F  F18  1  0.50000000  0.02805400  0.68082200  1
  F  F19  1  0.00000000  0.47194600  0.18082200  1
  F  F20  1  0.50000000  0.19790900  0.80670800  1
  F  F21  1  0.00000000  0.30209100  0.30670800  1
  F  F22  1  0.00000000  0.33602200  0.77203000  1
  F  F23  1  0.00000000  0.07887700  0.98941500  1
