# generated using pymatgen
data_Er2CdS4
_symmetry_space_group_name_H-M   'P 1'
_cell_length_a   7.96098362
_cell_length_b   7.96098362
_cell_length_c   97.07480601
_cell_angle_alpha   90.00000000
_cell_angle_beta   90.00000000
_cell_angle_gamma   120.00000000
_symmetry_Int_Tables_number   1
_chemical_formula_structural   Er2CdS4
_chemical_formula_sum   'Er60 Cd30 S120'
_cell_volume   5328.07861263
_cell_formula_units_Z   30
loop_
 _symmetry_equiv_pos_site_id
 _symmetry_equiv_pos_as_xyz
  1  'x, y, z'
loop_
 _atom_site_type_symbol
 _atom_site_label
 _atom_site_symmetry_multiplicity
 _atom_site_fract_x
 _atom_site_fract_y
 _atom_site_fract_z
 _atom_site_occupancy
  Er  Er0  1  0.66666667  0.33333333  0.33313333  1
  Er  Er1  1  0.33333333  0.66666667  0.06626967  1
  Er  Er2  1  0.33869933  0.16934967  0.04153767  1
  Er  Er3  1  0.83065033  0.16934967  0.04153767  1
  Er  Er4  1  0.67069867  0.83534933  0.10826433  1
  Er  Er5  1  0.83065033  0.66130067  0.04153767  1
  Er  Er6  1  0.16465067  0.83534933  0.10826433  1
  Er  Er7  1  0.99999400  0.49999700  0.17497200  1
  Er  Er8  1  0.16465067  0.32930133  0.10826433  1
  Er  Er9  1  0.33333333  0.66666667  0.14155867  1
  Er  Er10  1  0.50000300  0.49999700  0.17497200  1
  Er  Er11  1  0.50000300  0.00000600  0.17497200  1
  Er  Er12  1  0.33336333  0.16668167  0.24162367  1
  Er  Er13  1  0.66666667  0.33333333  0.20830033  1
  Er  Er14  1  0.83331833  0.16668167  0.24162367  1
  Er  Er15  1  0.66760733  0.83380367  0.30827767  1
  Er  Er16  1  0.83331833  0.66663667  0.24162367  1
  Er  Er17  1  0.16619633  0.83380367  0.30827767  1
  Er  Er18  1  0.00000000  0.00000000  0.27489300  1
  Er  Er19  1  0.16619633  0.33239267  0.30827767  1
  Er  Er20  1  0.33333333  0.66666667  0.66646667  1
  Er  Er21  1  0.00000000  0.00000000  0.39960300  1
  Er  Er22  1  0.00536600  0.50268300  0.37487100  1
  Er  Er23  1  0.49731700  0.50268300  0.37487100  1
  Er  Er24  1  0.33736533  0.16868267  0.44159767  1
  Er  Er25  1  0.49731700  0.99463400  0.37487100  1
  Er  Er26  1  0.83131733  0.16868267  0.44159767  1
  Er  Er27  1  0.66666067  0.83333033  0.50830533  1
  Er  Er28  1  0.83131733  0.66263467  0.44159767  1
  Er  Er29  1  0.00000000  0.00000000  0.47489200  1
  Er  Er30  1  0.16666967  0.83333033  0.50830533  1
  Er  Er31  1  0.16666967  0.33333933  0.50830533  1
  Er  Er32  1  0.00003000  0.50001500  0.57495700  1
  Er  Er33  1  0.33333333  0.66666667  0.54163367  1
  Er  Er34  1  0.49998500  0.50001500  0.57495700  1
  Er  Er35  1  0.33427400  0.16713700  0.64161100  1
  Er  Er36  1  0.49998500  0.99997000  0.57495700  1
  Er  Er37  1  0.83286300  0.16713700  0.64161100  1
  Er  Er38  1  0.66666667  0.33333333  0.60822633  1
  Er  Er39  1  0.83286300  0.66572600  0.64161100  1
  Er  Er40  1  0.00000000  0.00000000  0.99980000  1
  Er  Er41  1  0.66666667  0.33333333  0.73293633  1
  Er  Er42  1  0.67203267  0.83601633  0.70820433  1
  Er  Er43  1  0.16398367  0.83601633  0.70820433  1
  Er  Er44  1  0.00403200  0.50201600  0.77493100  1
  Er  Er45  1  0.16398367  0.32796733  0.70820433  1
  Er  Er46  1  0.49798400  0.50201600  0.77493100  1
  Er  Er47  1  0.33332733  0.16666367  0.84163867  1
  Er  Er48  1  0.49798400  0.99596800  0.77493100  1
  Er  Er49  1  0.66666667  0.33333333  0.80822533  1
  Er  Er50  1  0.83333633  0.16666367  0.84163867  1
  Er  Er51  1  0.83333633  0.66667267  0.84163867  1
  Er  Er52  1  0.66669667  0.83334833  0.90829033  1
  Er  Er53  1  0.00000000  0.00000000  0.87496700  1
  Er  Er54  1  0.16665167  0.83334833  0.90829033  1
  Er  Er55  1  0.00094067  0.50047033  0.97494433  1
  Er  Er56  1  0.16665167  0.33330333  0.90829033  1
  Er  Er57  1  0.49952967  0.50047033  0.97494433  1
  Er  Er58  1  0.33333333  0.66666667  0.94155967  1
  Er  Er59  1  0.49952967  0.99905933  0.97494433  1
  Cd  Cd60  1  0.33333333  0.66666667  0.01705767  1
  Cd  Cd61  1  0.66666667  0.33333333  0.00902633  1
  Cd  Cd62  1  0.66666667  0.33333333  0.08386633  1
  Cd  Cd63  1  0.66666667  0.33333333  0.13317733  1
  Cd  Cd64  1  0.00000000  0.00000000  0.07557600  1
  Cd  Cd65  1  0.00000000  0.00000000  0.15012500  1
  Cd  Cd66  1  0.00000000  0.00000000  0.19991100  1
  Cd  Cd67  1  0.33333333  0.66666667  0.21663767  1
  Cd  Cd68  1  0.33333333  0.66666667  0.26658267  1
  Cd  Cd69  1  0.66666667  0.33333333  0.28319333  1
  Cd  Cd70  1  0.00000000  0.00000000  0.35039100  1
  Cd  Cd71  1  0.33333333  0.66666667  0.34235967  1
  Cd  Cd72  1  0.33333333  0.66666667  0.41719967  1
  Cd  Cd73  1  0.33333333  0.66666667  0.46651067  1
  Cd  Cd74  1  0.66666667  0.33333333  0.40890933  1
  Cd  Cd75  1  0.66666667  0.33333333  0.48345833  1
  Cd  Cd76  1  0.66666667  0.33333333  0.53324433  1
  Cd  Cd77  1  0.00000000  0.00000000  0.54997100  1
  Cd  Cd78  1  0.00000000  0.00000000  0.59991600  1
  Cd  Cd79  1  0.33333333  0.66666667  0.61652667  1
  Cd  Cd80  1  0.66666667  0.33333333  0.68372433  1
  Cd  Cd81  1  0.00000000  0.00000000  0.67569300  1
  Cd  Cd82  1  0.00000000  0.00000000  0.75053300  1
  Cd  Cd83  1  0.00000000  0.00000000  0.79984400  1
  Cd  Cd84  1  0.33333333  0.66666667  0.74224267  1
  Cd  Cd85  1  0.33333333  0.66666667  0.81679167  1
  Cd  Cd86  1  0.33333333  0.66666667  0.86657767  1
  Cd  Cd87  1  0.66666667  0.33333333  0.88330433  1
  Cd  Cd88  1  0.66666667  0.33333333  0.93324933  1
  Cd  Cd89  1  0.00000000  0.00000000  0.94986000  1
  S  S90  1  0.50921400  0.01842800  0.02568000  1
  S  S91  1  0.50921400  0.49078600  0.02568000  1
  S  S92  1  0.66666667  0.33333333  0.05684933  1
  S  S93  1  0.98157200  0.49078600  0.02568000  1
  S  S94  1  0.84269500  0.68539000  0.09237300  1
  S  S95  1  0.68749267  0.84374633  0.05755533  1
  S  S96  1  0.00000000  0.00000000  0.02659300  1
  S  S97  1  0.15625367  0.84374633  0.05755533  1
  S  S98  1  0.00000000  0.00000000  0.12349100  1
  S  S99  1  0.84269500  0.15730500  0.09237300  1
  S  S100  1  0.15625367  0.31250733  0.05755533  1
  S  S101  1  0.31461000  0.15730500  0.09237300  1
  S  S102  1  0.02218333  0.51109167  0.12441967  1
  S  S103  1  0.17735000  0.35470000  0.15889200  1
  S  S104  1  0.17735000  0.82265000  0.15889200  1
  S  S105  1  0.33333333  0.66666667  0.09316467  1
  S  S106  1  0.48890833  0.51109167  0.12441967  1
  S  S107  1  0.33333333  0.66666667  0.19005967  1
  S  S108  1  0.48890833  0.97781667  0.12441967  1
  S  S109  1  0.64530000  0.82265000  0.15889200  1
  S  S110  1  0.51067600  0.02135200  0.22557400  1
  S  S111  1  0.35484267  0.17742133  0.19116133  1
  S  S112  1  0.82257867  0.17742133  0.19116133  1
  S  S113  1  0.66666667  0.33333333  0.15992833  1
  S  S114  1  0.66666667  0.33333333  0.25672533  1
  S  S115  1  0.51067600  0.48932400  0.22557400  1
  S  S116  1  0.82257867  0.64515733  0.19116133  1
  S  S117  1  0.97864800  0.48932400  0.22557400  1
  S  S118  1  0.84397667  0.68795333  0.29219733  1
  S  S119  1  0.68814267  0.84407133  0.25783833  1
  S  S120  1  0.00000000  0.00000000  0.22663300  1
  S  S121  1  0.15592867  0.84407133  0.25783833  1
  S  S122  1  0.00000000  0.00000000  0.32341300  1
  S  S123  1  0.84397667  0.15602333  0.29219733  1
  S  S124  1  0.15592867  0.31185733  0.25783833  1
  S  S125  1  0.31204667  0.15602333  0.29219733  1
  S  S126  1  0.01941933  0.50970967  0.32424767  1
  S  S127  1  0.49029033  0.50970967  0.32424767  1
  S  S128  1  0.33333333  0.66666667  0.29332467  1
  S  S129  1  0.49029033  0.98058067  0.32424767  1
  S  S130  1  0.17588067  0.35176133  0.35901333  1
  S  S131  1  0.17588067  0.82411933  0.35901333  1
  S  S132  1  0.33333333  0.66666667  0.39018267  1
  S  S133  1  0.64823867  0.82411933  0.35901333  1
  S  S134  1  0.50936167  0.01872333  0.42570633  1
  S  S135  1  0.35415933  0.17707967  0.39088867  1
  S  S136  1  0.66666667  0.33333333  0.35992633  1
  S  S137  1  0.82292033  0.17707967  0.39088867  1
  S  S138  1  0.66666667  0.33333333  0.45682433  1
  S  S139  1  0.50936167  0.49063833  0.42570633  1
  S  S140  1  0.82292033  0.64584067  0.39088867  1
  S  S141  1  0.98127667  0.49063833  0.42570633  1
  S  S142  1  0.68885000  0.84442500  0.45775300  1
  S  S143  1  0.84401667  0.68803333  0.49222533  1
  S  S144  1  0.84401667  0.15598333  0.49222533  1
  S  S145  1  0.00000000  0.00000000  0.42649800  1
  S  S146  1  0.15557500  0.84442500  0.45775300  1
  S  S147  1  0.00000000  0.00000000  0.52339300  1
  S  S148  1  0.15557500  0.31115000  0.45775300  1
  S  S149  1  0.31196667  0.15598333  0.49222533  1
  S  S150  1  0.17734267  0.35468533  0.55890733  1
  S  S151  1  0.02150933  0.51075467  0.52449467  1
  S  S152  1  0.48924533  0.51075467  0.52449467  1
  S  S153  1  0.33333333  0.66666667  0.49326167  1
  S  S154  1  0.33333333  0.66666667  0.59005867  1
  S  S155  1  0.17734267  0.82265733  0.55890733  1
  S  S156  1  0.48924533  0.97849067  0.52449467  1
  S  S157  1  0.64531467  0.82265733  0.55890733  1
  S  S158  1  0.51064333  0.02128667  0.62553067  1
  S  S159  1  0.35480933  0.17740467  0.59117167  1
  S  S160  1  0.66666667  0.33333333  0.55996633  1
  S  S161  1  0.82259533  0.17740467  0.59117167  1
  S  S162  1  0.66666667  0.33333333  0.65674633  1
  S  S163  1  0.51064333  0.48935667  0.62553067  1
  S  S164  1  0.82259533  0.64519067  0.59117167  1
  S  S165  1  0.97871333  0.48935667  0.62553067  1
  S  S166  1  0.68608600  0.84304300  0.65758100  1
  S  S167  1  0.15695700  0.84304300  0.65758100  1
  S  S168  1  0.00000000  0.00000000  0.62665800  1
  S  S169  1  0.15695700  0.31391400  0.65758100  1
  S  S170  1  0.84254733  0.68509467  0.69234667  1
  S  S171  1  0.84254733  0.15745267  0.69234667  1
  S  S172  1  0.00000000  0.00000000  0.72351600  1
  S  S173  1  0.31490533  0.15745267  0.69234667  1
  S  S174  1  0.17602833  0.35205667  0.75903967  1
  S  S175  1  0.02082600  0.51041300  0.72422200  1
  S  S176  1  0.33333333  0.66666667  0.69325967  1
  S  S177  1  0.48958700  0.51041300  0.72422200  1
  S  S178  1  0.33333333  0.66666667  0.79015767  1
  S  S179  1  0.17602833  0.82397167  0.75903967  1
  S  S180  1  0.48958700  0.97917400  0.72422200  1
  S  S181  1  0.64794333  0.82397167  0.75903967  1
  S  S182  1  0.35551667  0.17775833  0.79108633  1
  S  S183  1  0.51068333  0.02136667  0.82555867  1
  S  S184  1  0.51068333  0.48931667  0.82555867  1
  S  S185  1  0.66666667  0.33333333  0.75983133  1
  S  S186  1  0.82224167  0.17775833  0.79108633  1
  S  S187  1  0.66666667  0.33333333  0.85672633  1
  S  S188  1  0.82224167  0.64448333  0.79108633  1
  S  S189  1  0.97863333  0.48931667  0.82555867  1
  S  S190  1  0.84400933  0.68801867  0.89224067  1
  S  S191  1  0.68817600  0.84408800  0.85782800  1
  S  S192  1  0.15591200  0.84408800  0.85782800  1
  S  S193  1  0.00000000  0.00000000  0.82659500  1
  S  S194  1  0.00000000  0.00000000  0.92339200  1
  S  S195  1  0.84400933  0.15599067  0.89224067  1
  S  S196  1  0.15591200  0.31182400  0.85782800  1
  S  S197  1  0.31198133  0.15599067  0.89224067  1
  S  S198  1  0.17731000  0.35462000  0.95886400  1
  S  S199  1  0.02147600  0.51073800  0.92450500  1
  S  S200  1  0.33333333  0.66666667  0.89329967  1
  S  S201  1  0.48926200  0.51073800  0.92450500  1
  S  S202  1  0.33333333  0.66666667  0.99007967  1
  S  S203  1  0.17731000  0.82269000  0.95886400  1
  S  S204  1  0.48926200  0.97852400  0.92450500  1
  S  S205  1  0.64538000  0.82269000  0.95886400  1
  S  S206  1  0.35275267  0.17637633  0.99091433  1
  S  S207  1  0.82362367  0.17637633  0.99091433  1
  S  S208  1  0.66666667  0.33333333  0.95999133  1
  S  S209  1  0.82362367  0.64724733  0.99091433  1
