# generated using pymatgen
data_HIO3
_symmetry_space_group_name_H-M   'P 1'
_cell_length_a   5.68986300
_cell_length_b   6.28102400
_cell_length_c   15.26468600
_cell_angle_alpha   90.00000000
_cell_angle_beta   90.00000000
_cell_angle_gamma   90.00000000
_symmetry_Int_Tables_number   1
_chemical_formula_structural   HIO3
_chemical_formula_sum   'H8 I8 O24'
_cell_volume   545.53188312
_cell_formula_units_Z   8
loop_
 _symmetry_equiv_pos_site_id
 _symmetry_equiv_pos_as_xyz
  1  'x, y, z'
loop_
 _atom_site_type_symbol
 _atom_site_label
 _atom_site_symmetry_multiplicity
 _atom_site_fract_x
 _atom_site_fract_y
 _atom_site_fract_z
 _atom_site_occupancy
  H  H0  1  0.14121100  0.34506600  0.00170300  1
  H  H1  1  0.85878900  0.65493400  0.99829700  1
  H  H2  1  0.35878900  0.84506600  0.00170300  1
  H  H3  1  0.85878900  0.84506600  0.49829700  1
  H  H4  1  0.14121100  0.15493400  0.50170300  1
  H  H5  1  0.64121100  0.15493400  0.99829700  1
  H  H6  1  0.35878900  0.65493400  0.50170300  1
  H  H7  1  0.64121100  0.34506600  0.49829700  1
  I  I8  1  0.00491100  0.15890900  0.65561100  1
  I  I9  1  0.49508900  0.84109100  0.15561100  1
  I  I10  1  0.50491100  0.34109100  0.34438900  1
  I  I11  1  0.99508900  0.84109100  0.34438900  1
  I  I12  1  0.00491100  0.34109100  0.15561100  1
  I  I13  1  0.99508900  0.65890900  0.84438900  1
  I  I14  1  0.50491100  0.15890900  0.84438900  1
  I  I15  1  0.49508900  0.65890900  0.65561100  1
  O  O16  1  0.74683000  0.48525800  0.29054600  1
  O  O17  1  0.24683000  0.48525800  0.20945400  1
  O  O18  1  0.16391600  0.24458800  0.05268300  1
  O  O19  1  0.84605400  0.94321600  0.60290300  1
  O  O20  1  0.75317000  0.98525800  0.29054600  1
  O  O21  1  0.34605400  0.94321600  0.89709700  1
  O  O22  1  0.83608400  0.74458800  0.44731700  1
  O  O23  1  0.15394600  0.05678400  0.39709700  1
  O  O24  1  0.15394600  0.44321600  0.89709700  1
  O  O25  1  0.25317000  0.51474200  0.70945400  1
  O  O26  1  0.65394600  0.44321600  0.60290300  1
  O  O27  1  0.33608400  0.75541200  0.55268300  1
  O  O28  1  0.74683000  0.01474200  0.79054600  1
  O  O29  1  0.83608400  0.75541200  0.94731700  1
  O  O30  1  0.16391600  0.25541200  0.55268300  1
  O  O31  1  0.24683000  0.01474200  0.70945400  1
  O  O32  1  0.33608400  0.74458800  0.05268300  1
  O  O33  1  0.75317000  0.51474200  0.79054600  1
  O  O34  1  0.34605400  0.55678400  0.39709700  1
  O  O35  1  0.66391600  0.24458800  0.44731700  1
  O  O36  1  0.84605400  0.55678400  0.10290300  1
  O  O37  1  0.65394600  0.05678400  0.10290300  1
  O  O38  1  0.66391600  0.25541200  0.94731700  1
  O  O39  1  0.25317000  0.98525800  0.20945400  1
