# generated using pymatgen
data_TlAsF6
_symmetry_space_group_name_H-M   'P 1'
_cell_length_a   7.71402192
_cell_length_b   7.71402192
_cell_length_c   7.79933732
_cell_angle_alpha   90.00000000
_cell_angle_beta   90.00000000
_cell_angle_gamma   120.00000000
_symmetry_Int_Tables_number   1
_chemical_formula_structural   TlAsF6
_chemical_formula_sum   'Tl3 As3 F18'
_cell_volume   401.92967549
_cell_formula_units_Z   3
loop_
 _symmetry_equiv_pos_site_id
 _symmetry_equiv_pos_as_xyz
  1  'x, y, z'
loop_
 _atom_site_type_symbol
 _atom_site_label
 _atom_site_symmetry_multiplicity
 _atom_site_fract_x
 _atom_site_fract_y
 _atom_site_fract_z
 _atom_site_occupancy
  Tl  Tl0  1  0.00000000  0.00000000  0.00000000  1
  Tl  Tl1  1  0.66666667  0.33333333  0.33333333  1
  Tl  Tl2  1  0.33333333  0.66666667  0.66666667  1
  As  As3  1  0.00000000  0.00000000  0.50000000  1
  As  As4  1  0.66666667  0.33333333  0.83333333  1
  As  As5  1  0.33333333  0.66666667  0.16666667  1
  F  F6  1  0.21168533  0.14366467  0.36705967  1
  F  F7  1  0.93197933  0.78831467  0.36705967  1
  F  F8  1  0.06802067  0.21168533  0.63294033  1
  F  F9  1  0.85633533  0.06802067  0.36705967  1
  F  F10  1  0.14366467  0.93197933  0.63294033  1
  F  F11  1  0.78831467  0.85633533  0.63294033  1
  F  F12  1  0.87835200  0.47699800  0.70039300  1
  F  F13  1  0.59864600  0.12164800  0.70039300  1
  F  F14  1  0.73468733  0.54501867  0.96627367  1
  F  F15  1  0.52300200  0.40135400  0.70039300  1
  F  F16  1  0.81033133  0.26531267  0.96627367  1
  F  F17  1  0.45498133  0.18966867  0.96627367  1
  F  F18  1  0.54501867  0.81033133  0.03372633  1
  F  F19  1  0.26531267  0.45498133  0.03372633  1
  F  F20  1  0.40135400  0.87835200  0.29960700  1
  F  F21  1  0.18966867  0.73468733  0.03372633  1
  F  F22  1  0.47699800  0.59864600  0.29960700  1
  F  F23  1  0.12164800  0.52300200  0.29960700  1
