# generated using pymatgen
data_CsSmCdSe3
_symmetry_space_group_name_H-M   'P 1'
_cell_length_a   4.36275200
_cell_length_b   16.36961600
_cell_length_c   11.38591900
_cell_angle_alpha   90.00000000
_cell_angle_beta   90.00000000
_cell_angle_gamma   90.00000000
_symmetry_Int_Tables_number   1
_chemical_formula_structural   CsSmCdSe3
_chemical_formula_sum   'Cs4 Sm4 Cd4 Se12'
_cell_volume   813.14333756
_cell_formula_units_Z   4
loop_
 _symmetry_equiv_pos_site_id
 _symmetry_equiv_pos_as_xyz
  1  'x, y, z'
loop_
 _atom_site_type_symbol
 _atom_site_label
 _atom_site_symmetry_multiplicity
 _atom_site_fract_x
 _atom_site_fract_y
 _atom_site_fract_z
 _atom_site_occupancy
  Cs  Cs0  1  0.50000000  0.24314700  0.25000000  1
  Cs  Cs1  1  0.00000000  0.25685300  0.75000000  1
  Cs  Cs2  1  0.00000000  0.74314700  0.25000000  1
  Cs  Cs3  1  0.50000000  0.75685300  0.75000000  1
  Sm  Sm4  1  0.00000000  0.00000000  0.50000000  1
  Sm  Sm5  1  0.00000000  0.00000000  0.00000000  1
  Sm  Sm6  1  0.50000000  0.50000000  0.50000000  1
  Sm  Sm7  1  0.50000000  0.50000000  0.00000000  1
  Cd  Cd8  1  0.00000000  0.45961300  0.25000000  1
  Cd  Cd9  1  0.50000000  0.04038700  0.75000000  1
  Cd  Cd10  1  0.50000000  0.95961300  0.25000000  1
  Cd  Cd11  1  0.00000000  0.54038700  0.75000000  1
  Se  Se12  1  0.00000000  0.38094100  0.45104100  1
  Se  Se13  1  0.50000000  0.11905900  0.54895900  1
  Se  Se14  1  0.50000000  0.11905900  0.95104100  1
  Se  Se15  1  0.00000000  0.38094100  0.04895900  1
  Se  Se16  1  0.00000000  0.05962300  0.25000000  1
  Se  Se17  1  0.50000000  0.44037700  0.75000000  1
  Se  Se18  1  0.50000000  0.88094100  0.45104100  1
  Se  Se19  1  0.00000000  0.61905900  0.54895900  1
  Se  Se20  1  0.00000000  0.61905900  0.95104100  1
  Se  Se21  1  0.50000000  0.88094100  0.04895900  1
  Se  Se22  1  0.50000000  0.55962300  0.25000000  1
  Se  Se23  1  0.00000000  0.94037700  0.75000000  1
