# generated using pymatgen
data_Pr7CoI12
_symmetry_space_group_name_H-M   'P 1'
_cell_length_a   16.16594003
_cell_length_b   16.16594003
_cell_length_c   11.17682777
_cell_angle_alpha   90.00000000
_cell_angle_beta   90.00000000
_cell_angle_gamma   120.00000000
_symmetry_Int_Tables_number   1
_chemical_formula_structural   Pr7CoI12
_chemical_formula_sum   'Pr21 Co3 I36'
_cell_volume   2529.59571675
_cell_formula_units_Z   3
loop_
 _symmetry_equiv_pos_site_id
 _symmetry_equiv_pos_as_xyz
  1  'x, y, z'
loop_
 _atom_site_type_symbol
 _atom_site_label
 _atom_site_symmetry_multiplicity
 _atom_site_fract_x
 _atom_site_fract_y
 _atom_site_fract_z
 _atom_site_occupancy
  Pr  Pr0  1  0.04330400  0.88555900  0.85867500  1
  Pr  Pr1  1  0.95669600  0.11444100  0.14132500  1
  Pr  Pr2  1  0.15774500  0.04330400  0.14132500  1
  Pr  Pr3  1  0.88555900  0.84225500  0.14132500  1
  Pr  Pr4  1  0.00000000  0.00000000  0.50000000  1
  Pr  Pr5  1  0.84225500  0.95669600  0.85867500  1
  Pr  Pr6  1  0.11444100  0.15774500  0.85867500  1
  Pr  Pr7  1  0.70997067  0.21889233  0.19200833  1
  Pr  Pr8  1  0.62336267  0.44777433  0.47465833  1
  Pr  Pr9  1  0.82441167  0.37663733  0.47465833  1
  Pr  Pr10  1  0.55222567  0.17558833  0.47465833  1
  Pr  Pr11  1  0.66666667  0.33333333  0.83333333  1
  Pr  Pr12  1  0.50892167  0.29002933  0.19200833  1
  Pr  Pr13  1  0.78110767  0.49107833  0.19200833  1
  Pr  Pr14  1  0.37663733  0.55222567  0.52534167  1
  Pr  Pr15  1  0.29002933  0.78110767  0.80799167  1
  Pr  Pr16  1  0.49107833  0.70997067  0.80799167  1
  Pr  Pr17  1  0.21889233  0.50892167  0.80799167  1
  Pr  Pr18  1  0.33333333  0.66666667  0.16666667  1
  Pr  Pr19  1  0.17558833  0.62336267  0.52534167  1
  Pr  Pr20  1  0.44777433  0.82441167  0.52534167  1
  Co  Co21  1  0.00000000  0.00000000  0.00000000  1
  Co  Co22  1  0.66666667  0.33333333  0.33333333  1
  Co  Co23  1  0.33333333  0.66666667  0.66666667  1
  I  I24  1  0.94953633  0.13023367  0.66112567  1
  I  I25  1  0.05046367  0.86976633  0.33887433  1
  I  I26  1  0.25359633  0.35407967  0.67173367  1
  I  I27  1  0.81930267  0.94953633  0.33887433  1
  I  I28  1  0.10048333  0.74640367  0.67173367  1
  I  I29  1  0.74640367  0.64592033  0.32826633  1
  I  I30  1  0.89951667  0.25359633  0.32826633  1
  I  I31  1  0.64592033  0.89951667  0.67173367  1
  I  I32  1  0.35407967  0.10048333  0.32826633  1
  I  I33  1  0.86976633  0.81930267  0.66112567  1
  I  I34  1  0.13023367  0.18069733  0.33887433  1
  I  I35  1  0.18069733  0.05046367  0.66112567  1
  I  I36  1  0.61620300  0.46356700  0.99445900  1
  I  I37  1  0.71713033  0.20309967  0.67220767  1
  I  I38  1  0.92026300  0.68741300  0.00506700  1
  I  I39  1  0.48596933  0.28286967  0.67220767  1
  I  I40  1  0.76715000  0.07973700  0.00506700  1
  I  I41  1  0.41307033  0.97925367  0.66159967  1
  I  I42  1  0.56618333  0.58692967  0.66159967  1
  I  I43  1  0.31258700  0.23285000  0.00506700  1
  I  I44  1  0.02074633  0.43381667  0.66159967  1
  I  I45  1  0.53643300  0.15263600  0.99445900  1
  I  I46  1  0.79690033  0.51403067  0.67220767  1
  I  I47  1  0.84736400  0.38379700  0.99445900  1
  I  I48  1  0.28286967  0.79690033  0.32779233  1
  I  I49  1  0.38379700  0.53643300  0.00554100  1
  I  I50  1  0.58692967  0.02074633  0.33840033  1
  I  I51  1  0.15263600  0.61620300  0.00554100  1
  I  I52  1  0.43381667  0.41307033  0.33840033  1
  I  I53  1  0.07973700  0.31258700  0.99493300  1
  I  I54  1  0.23285000  0.92026300  0.99493300  1
  I  I55  1  0.97925367  0.56618333  0.33840033  1
  I  I56  1  0.68741300  0.76715000  0.99493300  1
  I  I57  1  0.20309967  0.48596933  0.32779233  1
  I  I58  1  0.46356700  0.84736400  0.00554100  1
  I  I59  1  0.51403067  0.71713033  0.32779233  1
