# generated using pymatgen
data_Na4Li5(BO3)3
_symmetry_space_group_name_H-M   'P 1'
_cell_length_a   12.57181400
_cell_length_b   7.41930600
_cell_length_c   9.87367656
_cell_angle_alpha   90.00000000
_cell_angle_beta   107.37231423
_cell_angle_gamma   90.00000000
_symmetry_Int_Tables_number   1
_chemical_formula_structural   Na4Li5(BO3)3
_chemical_formula_sum   'Na16 Li20 B12 O36'
_cell_volume   878.94885089
_cell_formula_units_Z   4
loop_
 _symmetry_equiv_pos_site_id
 _symmetry_equiv_pos_as_xyz
  1  'x, y, z'
loop_
 _atom_site_type_symbol
 _atom_site_label
 _atom_site_symmetry_multiplicity
 _atom_site_fract_x
 _atom_site_fract_y
 _atom_site_fract_z
 _atom_site_occupancy
  Na  Na0  1  0.37735300  0.25605500  0.48360300  1
  Na  Na1  1  0.72181200  0.94460000  0.78696600  1
  Na  Na2  1  0.27818800  0.94460000  0.71303400  1
  Na  Na3  1  0.62264700  0.25605500  0.01639700  1
  Na  Na4  1  0.72181200  0.05540000  0.28696600  1
  Na  Na5  1  0.27818800  0.05540000  0.21303400  1
  Na  Na6  1  0.37735300  0.74394500  0.98360300  1
  Na  Na7  1  0.62264700  0.74394500  0.51639700  1
  Na  Na8  1  0.87735300  0.75605500  0.48360300  1
  Na  Na9  1  0.22181200  0.44460000  0.78696600  1
  Na  Na10  1  0.77818800  0.44460000  0.71303400  1
  Na  Na11  1  0.12264700  0.75605500  0.01639700  1
  Na  Na12  1  0.22181200  0.55540000  0.28696600  1
  Na  Na13  1  0.77818800  0.55540000  0.21303400  1
  Na  Na14  1  0.87735300  0.24394500  0.98360300  1
  Na  Na15  1  0.12264700  0.24394500  0.51639700  1
  Li  Li16  1  0.95502100  0.96772200  0.86066600  1
  Li  Li17  1  0.50000000  0.77697700  0.75000000  1
  Li  Li18  1  0.40668250  0.11125250  0.98792200  1
  Li  Li19  1  0.04497900  0.96772200  0.63933400  1
  Li  Li20  1  0.59331750  0.11125250  0.51207800  1
  Li  Li21  1  0.50000000  0.22302300  0.25000000  1
  Li  Li22  1  0.95502100  0.03227800  0.36066600  1
  Li  Li23  1  0.40668250  0.88874750  0.48792200  1
  Li  Li24  1  0.59331750  0.88874750  0.01207800  1
  Li  Li25  1  0.04497900  0.03227800  0.13933400  1
  Li  Li26  1  0.45502100  0.46772200  0.86066600  1
  Li  Li27  1  0.00000000  0.27697700  0.75000000  1
  Li  Li28  1  0.90668250  0.61125250  0.98792200  1
  Li  Li29  1  0.54497900  0.46772200  0.63933400  1
  Li  Li30  1  0.09331750  0.61125250  0.51207800  1
  Li  Li31  1  0.00000000  0.72302300  0.25000000  1
  Li  Li32  1  0.45502100  0.53227800  0.36066600  1
  Li  Li33  1  0.90668250  0.38874750  0.48792200  1
  Li  Li34  1  0.09331750  0.38874750  0.01207800  1
  Li  Li35  1  0.54497900  0.53227800  0.13933400  1
  B  B36  1  0.50000000  0.10413300  0.75000000  1
  B  B37  1  0.50000000  0.89586700  0.25000000  1
  B  B38  1  0.83264650  0.08379950  0.59686500  1
  B  B39  1  0.83264650  0.91620050  0.09686500  1
  B  B40  1  0.16735350  0.08379950  0.90313500  1
  B  B41  1  0.16735350  0.91620050  0.40313500  1
  B  B42  1  0.00000000  0.60413300  0.75000000  1
  B  B43  1  0.00000000  0.39586700  0.25000000  1
  B  B44  1  0.33264650  0.58379950  0.59686500  1
  B  B45  1  0.33264650  0.41620050  0.09686500  1
  B  B46  1  0.66735350  0.58379950  0.90313500  1
  B  B47  1  0.66735350  0.41620050  0.40313500  1
  O  O48  1  0.58816550  0.37992650  0.47503800  1
  O  O49  1  0.41183450  0.37992650  0.02496200  1
  O  O50  1  0.47283750  0.00562250  0.85486600  1
  O  O51  1  0.85409900  0.85532800  0.23673500  1
  O  O52  1  0.41183450  0.62007350  0.52496200  1
  O  O53  1  0.85409900  0.14467200  0.73673500  1
  O  O54  1  0.26246850  0.01380650  0.46978600  1
  O  O55  1  0.73753150  0.01380650  0.03021400  1
  O  O56  1  0.50000000  0.29035700  0.75000000  1
  O  O57  1  0.52716250  0.00562250  0.64513400  1
  O  O58  1  0.58816550  0.62007350  0.97503800  1
  O  O59  1  0.47283750  0.99437750  0.35486600  1
  O  O60  1  0.52716250  0.99437750  0.14513400  1
  O  O61  1  0.50000000  0.70964300  0.25000000  1
  O  O62  1  0.14590100  0.14467200  0.76326500  1
  O  O63  1  0.14590100  0.85532800  0.26326500  1
  O  O64  1  0.26246850  0.98619350  0.96978600  1
  O  O65  1  0.73753150  0.98619350  0.53021400  1
  O  O66  1  0.08816550  0.87992650  0.47503800  1
  O  O67  1  0.91183450  0.87992650  0.02496200  1
  O  O68  1  0.97283750  0.50562250  0.85486600  1
  O  O69  1  0.35409900  0.35532800  0.23673500  1
  O  O70  1  0.91183450  0.12007350  0.52496200  1
  O  O71  1  0.35409900  0.64467200  0.73673500  1
  O  O72  1  0.76246850  0.51380650  0.46978600  1
  O  O73  1  0.23753150  0.51380650  0.03021400  1
  O  O74  1  0.00000000  0.79035700  0.75000000  1
  O  O75  1  0.02716250  0.50562250  0.64513400  1
  O  O76  1  0.08816550  0.12007350  0.97503800  1
  O  O77  1  0.97283750  0.49437750  0.35486600  1
  O  O78  1  0.02716250  0.49437750  0.14513400  1
  O  O79  1  0.00000000  0.20964300  0.25000000  1
  O  O80  1  0.64590100  0.64467200  0.76326500  1
  O  O81  1  0.64590100  0.35532800  0.26326500  1
  O  O82  1  0.76246850  0.48619350  0.96978600  1
  O  O83  1  0.23753150  0.48619350  0.53021400  1
