# generated using pymatgen
data_CsErTa6Cl18
_symmetry_space_group_name_H-M   'P 1'
_cell_length_a   9.40802419
_cell_length_b   9.40802419
_cell_length_c   17.47716500
_cell_angle_alpha   90.00000000
_cell_angle_beta   90.00000000
_cell_angle_gamma   120.00000000
_symmetry_Int_Tables_number   1
_chemical_formula_structural   CsErTa6Cl18
_chemical_formula_sum   'Cs2 Er2 Ta12 Cl36'
_cell_volume   1339.67196363
_cell_formula_units_Z   2
loop_
 _symmetry_equiv_pos_site_id
 _symmetry_equiv_pos_as_xyz
  1  'x, y, z'
loop_
 _atom_site_type_symbol
 _atom_site_label
 _atom_site_symmetry_multiplicity
 _atom_site_fract_x
 _atom_site_fract_y
 _atom_site_fract_z
 _atom_site_occupancy
  Cs  Cs0  1  0.33333333  0.66666667  0.75000000  1
  Cs  Cs1  1  0.66666667  0.33333333  0.25000000  1
  Er  Er2  1  0.66666667  0.33333333  0.75000000  1
  Er  Er3  1  0.33333333  0.66666667  0.25000000  1
  Ta  Ta4  1  0.04086433  0.19402167  0.06727700  1
  Ta  Ta5  1  0.15315733  0.95913567  0.06727700  1
  Ta  Ta6  1  0.80597833  0.95913567  0.43272300  1
  Ta  Ta7  1  0.84684267  0.04086433  0.93272300  1
  Ta  Ta8  1  0.84684267  0.80597833  0.56727700  1
  Ta  Ta9  1  0.19402167  0.04086433  0.56727700  1
  Ta  Ta10  1  0.95913567  0.15315733  0.56727700  1
  Ta  Ta11  1  0.04086433  0.84684267  0.43272300  1
  Ta  Ta12  1  0.15315733  0.19402167  0.43272300  1
  Ta  Ta13  1  0.19402167  0.15315733  0.93272300  1
  Ta  Ta14  1  0.80597833  0.84684267  0.06727700  1
  Ta  Ta15  1  0.95913567  0.80597833  0.93272300  1
  Cl  Cl16  1  0.18494633  0.95161067  0.84010700  1
  Cl  Cl17  1  0.86186933  0.58490567  0.49863200  1
  Cl  Cl18  1  0.23333567  0.18494633  0.15989300  1
  Cl  Cl19  1  0.72303633  0.58490567  0.00136800  1
  Cl  Cl20  1  0.18494633  0.23333567  0.65989300  1
  Cl  Cl21  1  0.27696367  0.86186933  0.50136800  1
  Cl  Cl22  1  0.72303633  0.13813067  0.49863200  1
  Cl  Cl23  1  0.35580833  0.90808267  0.16183400  1
  Cl  Cl24  1  0.13813067  0.41509433  0.50136800  1
  Cl  Cl25  1  0.64419167  0.09191733  0.83816600  1
  Cl  Cl26  1  0.44772567  0.35580833  0.83816600  1
  Cl  Cl27  1  0.81505367  0.04838933  0.15989300  1
  Cl  Cl28  1  0.58490567  0.86186933  0.99863200  1
  Cl  Cl29  1  0.09191733  0.64419167  0.33816600  1
  Cl  Cl30  1  0.13813067  0.72303633  0.99863200  1
  Cl  Cl31  1  0.41509433  0.27696367  0.49863200  1
  Cl  Cl32  1  0.04838933  0.23333567  0.84010700  1
  Cl  Cl33  1  0.27696367  0.41509433  0.99863200  1
  Cl  Cl34  1  0.81505367  0.76666433  0.34010700  1
  Cl  Cl35  1  0.95161067  0.18494633  0.34010700  1
  Cl  Cl36  1  0.35580833  0.44772567  0.33816600  1
  Cl  Cl37  1  0.76666433  0.95161067  0.65989300  1
  Cl  Cl38  1  0.55227433  0.90808267  0.33816600  1
  Cl  Cl39  1  0.95161067  0.76666433  0.15989300  1
  Cl  Cl40  1  0.41509433  0.13813067  0.00136800  1
  Cl  Cl41  1  0.04838933  0.81505367  0.65989300  1
  Cl  Cl42  1  0.55227433  0.64419167  0.16183400  1
  Cl  Cl43  1  0.90808267  0.35580833  0.66183400  1
  Cl  Cl44  1  0.64419167  0.55227433  0.66183400  1
  Cl  Cl45  1  0.44772567  0.09191733  0.66183400  1
  Cl  Cl46  1  0.23333567  0.04838933  0.34010700  1
  Cl  Cl47  1  0.90808267  0.55227433  0.83816600  1
  Cl  Cl48  1  0.58490567  0.72303633  0.50136800  1
  Cl  Cl49  1  0.86186933  0.27696367  0.00136800  1
  Cl  Cl50  1  0.76666433  0.81505367  0.84010700  1
  Cl  Cl51  1  0.09191733  0.44772567  0.16183400  1
