# generated using pymatgen
data_Na6PbO5
_symmetry_space_group_name_H-M   'P 1'
_cell_length_a   5.78536000
_cell_length_b   10.81430200
_cell_length_c   11.06125600
_cell_angle_alpha   90.00000000
_cell_angle_beta   90.00000000
_cell_angle_gamma   90.00000000
_symmetry_Int_Tables_number   1
_chemical_formula_structural   Na6PbO5
_chemical_formula_sum   'Na24 Pb4 O20'
_cell_volume   692.04339139
_cell_formula_units_Z   4
loop_
 _symmetry_equiv_pos_site_id
 _symmetry_equiv_pos_as_xyz
  1  'x, y, z'
loop_
 _atom_site_type_symbol
 _atom_site_label
 _atom_site_symmetry_multiplicity
 _atom_site_fract_x
 _atom_site_fract_y
 _atom_site_fract_z
 _atom_site_occupancy
  Na  Na0  1  0.67723000  0.00000000  0.93906700  1
  Na  Na1  1  0.67723000  0.00000000  0.56093300  1
  Na  Na2  1  0.32277000  0.00000000  0.43906700  1
  Na  Na3  1  0.86712150  0.29759250  0.25000000  1
  Na  Na4  1  0.50000000  0.28012500  0.00000000  1
  Na  Na5  1  0.36712150  0.20240750  0.25000000  1
  Na  Na6  1  0.00000000  0.21987500  0.50000000  1
  Na  Na7  1  0.32277000  0.00000000  0.06093300  1
  Na  Na8  1  0.13287850  0.29759250  0.75000000  1
  Na  Na9  1  0.00000000  0.21987500  0.00000000  1
  Na  Na10  1  0.50000000  0.28012500  0.50000000  1
  Na  Na11  1  0.63287850  0.20240750  0.75000000  1
  Na  Na12  1  0.17723000  0.50000000  0.93906700  1
  Na  Na13  1  0.17723000  0.50000000  0.56093300  1
  Na  Na14  1  0.82277000  0.50000000  0.43906700  1
  Na  Na15  1  0.36712150  0.79759250  0.25000000  1
  Na  Na16  1  0.00000000  0.78012500  0.00000000  1
  Na  Na17  1  0.86712150  0.70240750  0.25000000  1
  Na  Na18  1  0.50000000  0.71987500  0.50000000  1
  Na  Na19  1  0.82277000  0.50000000  0.06093300  1
  Na  Na20  1  0.63287850  0.79759250  0.75000000  1
  Na  Na21  1  0.50000000  0.71987500  0.00000000  1
  Na  Na22  1  0.00000000  0.78012500  0.50000000  1
  Na  Na23  1  0.13287850  0.70240750  0.75000000  1
  Pb  Pb24  1  0.79461200  0.00000000  0.25000000  1
  Pb  Pb25  1  0.20538800  0.00000000  0.75000000  1
  Pb  Pb26  1  0.29461200  0.50000000  0.25000000  1
  Pb  Pb27  1  0.70538800  0.50000000  0.75000000  1
  O  O28  1  0.83329600  0.00000000  0.75000000  1
  O  O29  1  0.69606350  0.13939150  0.11383200  1
  O  O30  1  0.19606350  0.36060850  0.38616800  1
  O  O31  1  0.69606350  0.13939150  0.38616800  1
  O  O32  1  0.80393650  0.36060850  0.61383200  1
  O  O33  1  0.80393650  0.36060850  0.88616800  1
  O  O34  1  0.19606350  0.36060850  0.11383200  1
  O  O35  1  0.30393650  0.13939150  0.88616800  1
  O  O36  1  0.16670400  0.00000000  0.25000000  1
  O  O37  1  0.30393650  0.13939150  0.61383200  1
  O  O38  1  0.33329600  0.50000000  0.75000000  1
  O  O39  1  0.19606350  0.63939150  0.11383200  1
  O  O40  1  0.69606350  0.86060850  0.38616800  1
  O  O41  1  0.19606350  0.63939150  0.38616800  1
  O  O42  1  0.30393650  0.86060850  0.61383200  1
  O  O43  1  0.30393650  0.86060850  0.88616800  1
  O  O44  1  0.69606350  0.86060850  0.11383200  1
  O  O45  1  0.80393650  0.63939150  0.88616800  1
  O  O46  1  0.66670400  0.50000000  0.25000000  1
  O  O47  1  0.80393650  0.63939150  0.61383200  1
