# generated using pymatgen
data_CaSiO3
_symmetry_space_group_name_H-M   'P 1'
_cell_length_a   6.90557200
_cell_length_b   11.98745000
_cell_length_c   19.79627122
_cell_angle_alpha   90.00000000
_cell_angle_beta   90.65719054
_cell_angle_gamma   90.00000000
_symmetry_Int_Tables_number   1
_chemical_formula_structural   CaSiO3
_chemical_formula_sum   'Ca24 Si24 O72'
_cell_volume   1638.63147443
_cell_formula_units_Z   24
loop_
 _symmetry_equiv_pos_site_id
 _symmetry_equiv_pos_as_xyz
  1  'x, y, z'
loop_
 _atom_site_type_symbol
 _atom_site_label
 _atom_site_symmetry_multiplicity
 _atom_site_fract_x
 _atom_site_fract_y
 _atom_site_fract_z
 _atom_site_occupancy
  Ca  Ca0  1  0.50000000  0.82882600  0.25000000  1
  Ca  Ca1  1  0.00000000  0.67117400  0.75000000  1
  Ca  Ca2  1  0.00000000  0.99452400  0.75000000  1
  Ca  Ca3  1  0.51255550  0.83589450  0.50044000  1
  Ca  Ca4  1  0.00000000  0.00000000  0.00000000  1
  Ca  Ca5  1  0.50000000  0.84316600  0.75000000  1
  Ca  Ca6  1  0.48744450  0.83589450  0.99956000  1
  Ca  Ca7  1  0.98744450  0.66410550  0.49956000  1
  Ca  Ca8  1  0.00000000  0.65683400  0.25000000  1
  Ca  Ca9  1  0.01255550  0.66410550  0.00044000  1
  Ca  Ca10  1  0.00000000  0.00000000  0.50000000  1
  Ca  Ca11  1  0.50000000  0.50547600  0.25000000  1
  Ca  Ca12  1  0.00000000  0.32882600  0.25000000  1
  Ca  Ca13  1  0.50000000  0.17117400  0.75000000  1
  Ca  Ca14  1  0.50000000  0.49452400  0.75000000  1
  Ca  Ca15  1  0.01255550  0.33589450  0.50044000  1
  Ca  Ca16  1  0.50000000  0.50000000  0.00000000  1
  Ca  Ca17  1  0.00000000  0.34316600  0.75000000  1
  Ca  Ca18  1  0.98744450  0.33589450  0.99956000  1
  Ca  Ca19  1  0.48744450  0.16410550  0.49956000  1
  Ca  Ca20  1  0.50000000  0.15683400  0.25000000  1
  Ca  Ca21  1  0.51255550  0.16410550  0.00044000  1
  Ca  Ca22  1  0.50000000  0.50000000  0.50000000  1
  Ca  Ca23  1  0.00000000  0.00547600  0.25000000  1
  Si  Si24  1  0.70191700  0.70276800  0.12218200  1
  Si  Si25  1  0.29808300  0.70276800  0.37781800  1
  Si  Si26  1  0.70689450  0.96116250  0.12493700  1
  Si  Si27  1  0.59299300  0.67035600  0.62789200  1
  Si  Si28  1  0.29310550  0.96116250  0.37506300  1
  Si  Si29  1  0.09299300  0.82964400  0.12789200  1
  Si  Si30  1  0.79808300  0.79723200  0.87781800  1
  Si  Si31  1  0.40700700  0.67035600  0.87210800  1
  Si  Si32  1  0.90700700  0.82964400  0.37210800  1
  Si  Si33  1  0.79310550  0.53883750  0.87506300  1
  Si  Si34  1  0.20689450  0.53883750  0.62493700  1
  Si  Si35  1  0.20191700  0.79723200  0.62218200  1
  Si  Si36  1  0.20191700  0.20276800  0.12218200  1
  Si  Si37  1  0.79808300  0.20276800  0.37781800  1
  Si  Si38  1  0.20689450  0.46116250  0.12493700  1
  Si  Si39  1  0.09299300  0.17035600  0.62789200  1
  Si  Si40  1  0.79310550  0.46116250  0.37506300  1
  Si  Si41  1  0.59299300  0.32964400  0.12789200  1
  Si  Si42  1  0.29808300  0.29723200  0.87781800  1
  Si  Si43  1  0.90700700  0.17035600  0.87210800  1
  Si  Si44  1  0.40700700  0.32964400  0.37210800  1
  Si  Si45  1  0.29310550  0.03883750  0.87506300  1
  Si  Si46  1  0.70689450  0.03883750  0.62493700  1
  Si  Si47  1  0.70191700  0.29723200  0.62218200  1
  O  O48  1  0.94406100  0.71844100  0.12512500  1
  O  O49  1  0.65212900  0.65451300  0.04802800  1
  O  O50  1  0.10952550  0.66736050  0.62370400  1
  O  O51  1  0.55156300  0.55744500  0.87385400  1
  O  O52  1  0.20061900  0.82977700  0.05655900  1
  O  O53  1  0.34180150  0.98527350  0.94749100  1
  O  O54  1  0.85428350  0.85082350  0.80647000  1
  O  O55  1  0.60952550  0.83263950  0.12370400  1
  O  O56  1  0.79938100  0.82977700  0.44344100  1
  O  O57  1  0.15819850  0.51472650  0.05250900  1
  O  O58  1  0.05593900  0.71844100  0.37487500  1
  O  O59  1  0.89047450  0.66736050  0.87629600  1
  O  O60  1  0.19133200  0.82770100  0.20207400  1
  O  O61  1  0.15480700  0.51212900  0.19736700  1
  O  O62  1  0.65480700  0.98787100  0.69736700  1
  O  O63  1  0.64571650  0.64917650  0.19353000  1
  O  O64  1  0.84180150  0.51472650  0.44749100  1
  O  O65  1  0.84787100  0.84548700  0.95197200  1
  O  O66  1  0.35428350  0.64917650  0.30647000  1
  O  O67  1  0.80866800  0.82770100  0.29792600  1
  O  O68  1  0.15212900  0.84548700  0.54802800  1
  O  O69  1  0.44406100  0.78155900  0.62512500  1
  O  O70  1  0.65819850  0.98527350  0.55250900  1
  O  O71  1  0.34787100  0.65451300  0.45197200  1
  O  O72  1  0.44843700  0.55744500  0.62614600  1
  O  O73  1  0.30866800  0.67229900  0.79792600  1
  O  O74  1  0.94843700  0.94255500  0.12614600  1
  O  O75  1  0.69133200  0.67229900  0.70207400  1
  O  O76  1  0.29938100  0.67022300  0.94344100  1
  O  O77  1  0.70061900  0.67022300  0.55655900  1
  O  O78  1  0.55593900  0.78155900  0.87487500  1
  O  O79  1  0.14571650  0.85082350  0.69353000  1
  O  O80  1  0.05156300  0.94255500  0.37385400  1
  O  O81  1  0.39047450  0.83263950  0.37629600  1
  O  O82  1  0.84519300  0.51212900  0.30263300  1
  O  O83  1  0.34519300  0.98787100  0.80263300  1
  O  O84  1  0.44406100  0.21844100  0.12512500  1
  O  O85  1  0.15212900  0.15451300  0.04802800  1
  O  O86  1  0.60952550  0.16736050  0.62370400  1
  O  O87  1  0.05156300  0.05744500  0.87385400  1
  O  O88  1  0.70061900  0.32977700  0.05655900  1
  O  O89  1  0.84180150  0.48527350  0.94749100  1
  O  O90  1  0.35428350  0.35082350  0.80647000  1
  O  O91  1  0.10952550  0.33263950  0.12370400  1
  O  O92  1  0.29938100  0.32977700  0.44344100  1
  O  O93  1  0.65819850  0.01472650  0.05250900  1
  O  O94  1  0.55593900  0.21844100  0.37487500  1
  O  O95  1  0.39047450  0.16736050  0.87629600  1
  O  O96  1  0.69133200  0.32770100  0.20207400  1
  O  O97  1  0.65480700  0.01212900  0.19736700  1
  O  O98  1  0.15480700  0.48787100  0.69736700  1
  O  O99  1  0.14571650  0.14917650  0.19353000  1
  O  O100  1  0.34180150  0.01472650  0.44749100  1
  O  O101  1  0.34787100  0.34548700  0.95197200  1
  O  O102  1  0.85428350  0.14917650  0.30647000  1
  O  O103  1  0.30866800  0.32770100  0.29792600  1
  O  O104  1  0.65212900  0.34548700  0.54802800  1
  O  O105  1  0.94406100  0.28155900  0.62512500  1
  O  O106  1  0.15819850  0.48527350  0.55250900  1
  O  O107  1  0.84787100  0.15451300  0.45197200  1
  O  O108  1  0.94843700  0.05744500  0.62614600  1
  O  O109  1  0.80866800  0.17229900  0.79792600  1
  O  O110  1  0.44843700  0.44255500  0.12614600  1
  O  O111  1  0.19133200  0.17229900  0.70207400  1
  O  O112  1  0.79938100  0.17022300  0.94344100  1
  O  O113  1  0.20061900  0.17022300  0.55655900  1
  O  O114  1  0.05593900  0.28155900  0.87487500  1
  O  O115  1  0.64571650  0.35082350  0.69353000  1
  O  O116  1  0.55156300  0.44255500  0.37385400  1
  O  O117  1  0.89047450  0.33263950  0.37629600  1
  O  O118  1  0.34519300  0.01212900  0.30263300  1
  O  O119  1  0.84519300  0.48787100  0.80263300  1
