# generated using pymatgen
data_Tl2S
_symmetry_space_group_name_H-M   'P 1'
_cell_length_a   12.61540046
_cell_length_b   12.61540046
_cell_length_c   19.10932528
_cell_angle_alpha   90.00000000
_cell_angle_beta   90.00000000
_cell_angle_gamma   120.00000000
_symmetry_Int_Tables_number   1
_chemical_formula_structural   Tl2S
_chemical_formula_sum   'Tl54 S27'
_cell_volume   2633.77133731
_cell_formula_units_Z   27
loop_
 _symmetry_equiv_pos_site_id
 _symmetry_equiv_pos_as_xyz
  1  'x, y, z'
loop_
 _atom_site_type_symbol
 _atom_site_label
 _atom_site_symmetry_multiplicity
 _atom_site_fract_x
 _atom_site_fract_y
 _atom_site_fract_z
 _atom_site_occupancy
  Tl  Tl0  1  0.45226133  0.57312167  0.30670567  1
  Tl  Tl1  1  0.79614567  0.88287733  0.96841633  1
  Tl  Tl2  1  0.53092433  0.43740867  0.12972567  1
  Tl  Tl3  1  0.12190300  0.54599900  0.97308500  1
  Tl  Tl4  1  0.11712267  0.91326833  0.96841633  1
  Tl  Tl5  1  0.12086033  0.54773867  0.30670567  1
  Tl  Tl6  1  0.56669400  0.79951600  0.13294600  1
  Tl  Tl7  1  0.56604533  0.79816067  0.79939867  1
  Tl  Tl8  1  0.20183933  0.76788467  0.79939867  1
  Tl  Tl9  1  0.23282200  0.43330600  0.13294600  1
  Tl  Tl10  1  0.45400100  0.57590400  0.97308500  1
  Tl  Tl11  1  0.42687833  0.87913967  0.30670567  1
  Tl  Tl12  1  0.42409600  0.87809700  0.97308500  1
  Tl  Tl13  1  0.56259133  0.09351567  0.12972567  1
  Tl  Tl14  1  0.08673167  0.20385433  0.96841633  1
  Tl  Tl15  1  0.23211533  0.43395467  0.79939867  1
  Tl  Tl16  1  0.90648433  0.46907567  0.12972567  1
  Tl  Tl17  1  0.20048400  0.76717800  0.13294600  1
  Tl  Tl18  1  0.11892800  0.90645500  0.64003900  1
  Tl  Tl19  1  0.46281233  0.21621067  0.30174967  1
  Tl  Tl20  1  0.19759100  0.77074200  0.46305900  1
  Tl  Tl21  1  0.78856967  0.87933233  0.30641833  1
  Tl  Tl22  1  0.78378933  0.24660167  0.30174967  1
  Tl  Tl23  1  0.78752700  0.88107200  0.64003900  1
  Tl  Tl24  1  0.23336067  0.13284933  0.46627933  1
  Tl  Tl25  1  0.23271200  0.13149400  0.13273200  1
  Tl  Tl26  1  0.86850600  0.10121800  0.13273200  1
  Tl  Tl27  1  0.89948867  0.76663933  0.46627933  1
  Tl  Tl28  1  0.12066767  0.90923733  0.30641833  1
  Tl  Tl29  1  0.09354500  0.21247300  0.64003900  1
  Tl  Tl30  1  0.09076267  0.21143033  0.30641833  1
  Tl  Tl31  1  0.22925800  0.42684900  0.46305900  1
  Tl  Tl32  1  0.75339833  0.53718767  0.30174967  1
  Tl  Tl33  1  0.89878200  0.76728800  0.13273200  1
  Tl  Tl34  1  0.57315100  0.80240900  0.46305900  1
  Tl  Tl35  1  0.86715067  0.10051133  0.46627933  1
  Tl  Tl36  1  0.78559467  0.23978833  0.97337233  1
  Tl  Tl37  1  0.12947900  0.54954400  0.63508300  1
  Tl  Tl38  1  0.86425767  0.10407533  0.79639233  1
  Tl  Tl39  1  0.45523633  0.21266567  0.63975167  1
  Tl  Tl40  1  0.45045600  0.57993500  0.63508300  1
  Tl  Tl41  1  0.45419367  0.21440533  0.97337233  1
  Tl  Tl42  1  0.90002733  0.46618267  0.79961267  1
  Tl  Tl43  1  0.89937867  0.46482733  0.46606533  1
  Tl  Tl44  1  0.53517267  0.43455133  0.46606533  1
  Tl  Tl45  1  0.56615533  0.09997267  0.79961267  1
  Tl  Tl46  1  0.78733433  0.24257067  0.63975167  1
  Tl  Tl47  1  0.76021167  0.54580633  0.97337233  1
  Tl  Tl48  1  0.75742933  0.54476367  0.63975167  1
  Tl  Tl49  1  0.89592467  0.76018233  0.79639233  1
  Tl  Tl50  1  0.42006500  0.87052100  0.63508300  1
  Tl  Tl51  1  0.56544867  0.10062133  0.46606533  1
  Tl  Tl52  1  0.23981767  0.13574233  0.79639233  1
  Tl  Tl53  1  0.53381733  0.43384467  0.79961267  1
  S  S54  1  0.33333333  0.66666667  0.20761167  1
  S  S55  1  0.33333333  0.66666667  0.87441867  1
  S  S56  1  0.99841467  0.66660933  0.24298233  1
  S  S57  1  0.66558533  0.66630567  0.20896367  1
  S  S58  1  0.66819467  0.00158533  0.24298233  1
  S  S59  1  0.00072033  0.33441467  0.20896367  1
  S  S60  1  0.33339067  0.33180533  0.24298233  1
  S  S61  1  0.33369433  0.99927967  0.20896367  1
  S  S62  1  0.33333333  0.66666667  0.52929967  1
  S  S63  1  0.00000000  0.00000000  0.54094500  1
  S  S64  1  0.00000000  0.00000000  0.20775200  1
  S  S65  1  0.66508133  0.99994267  0.57631567  1
  S  S66  1  0.33225200  0.99963900  0.54229700  1
  S  S67  1  0.33486133  0.33491867  0.57631567  1
  S  S68  1  0.66738700  0.66774800  0.54229700  1
  S  S69  1  0.00005733  0.66513867  0.57631567  1
  S  S70  1  0.00036100  0.33261300  0.54229700  1
  S  S71  1  0.00000000  0.00000000  0.86263300  1
  S  S72  1  0.66666667  0.33333333  0.87427833  1
  S  S73  1  0.66666667  0.33333333  0.54108533  1
  S  S74  1  0.33174800  0.33327600  0.90964900  1
  S  S75  1  0.99891867  0.33297233  0.87563033  1
  S  S76  1  0.00152800  0.66825200  0.90964900  1
  S  S77  1  0.33405367  0.00108133  0.87563033  1
  S  S78  1  0.66672400  0.99847200  0.90964900  1
  S  S79  1  0.66702767  0.66594633  0.87563033  1
  S  S80  1  0.66666667  0.33333333  0.19596633  1
