# generated using pymatgen
data_PICl8
_symmetry_space_group_name_H-M   'P 1'
_cell_length_a   12.60861600
_cell_length_b   12.80285200
_cell_length_c   16.78646000
_cell_angle_alpha   90.00000000
_cell_angle_beta   90.00000000
_cell_angle_gamma   90.00000000
_symmetry_Int_Tables_number   1
_chemical_formula_structural   PICl8
_chemical_formula_sum   'P8 I8 Cl64'
_cell_volume   2709.77519747
_cell_formula_units_Z   8
loop_
 _symmetry_equiv_pos_site_id
 _symmetry_equiv_pos_as_xyz
  1  'x, y, z'
loop_
 _atom_site_type_symbol
 _atom_site_label
 _atom_site_symmetry_multiplicity
 _atom_site_fract_x
 _atom_site_fract_y
 _atom_site_fract_z
 _atom_site_occupancy
  P  P0  1  0.25000000  0.75000000  0.49648400  1
  P  P1  1  0.25000000  0.25000000  0.00351600  1
  P  P2  1  0.25000000  0.25000000  0.49648400  1
  P  P3  1  0.75000000  0.25000000  0.50351600  1
  P  P4  1  0.75000000  0.25000000  0.99648400  1
  P  P5  1  0.75000000  0.75000000  0.50351600  1
  P  P6  1  0.75000000  0.75000000  0.99648400  1
  P  P7  1  0.25000000  0.75000000  0.00351600  1
  I  I8  1  0.43962300  0.50000000  0.25000000  1
  I  I9  1  0.92844300  0.50000000  0.25000000  1
  I  I10  1  0.57155700  0.00000000  0.25000000  1
  I  I11  1  0.06037700  0.00000000  0.25000000  1
  I  I12  1  0.93962300  0.00000000  0.75000000  1
  I  I13  1  0.42844300  0.00000000  0.75000000  1
  I  I14  1  0.07155700  0.50000000  0.75000000  1
  I  I15  1  0.56037700  0.50000000  0.75000000  1
  Cl  Cl16  1  0.33037900  0.15455200  0.07168500  1
  Cl  Cl17  1  0.22890200  0.00000000  0.75000000  1
  Cl  Cl18  1  0.65171550  0.32876850  0.06432050  1
  Cl  Cl19  1  0.15171550  0.17123150  0.93567950  1
  Cl  Cl20  1  0.56881100  0.00000000  0.40090400  1
  Cl  Cl21  1  0.15171550  0.82876850  0.93567950  1
  Cl  Cl22  1  0.56881100  0.00000000  0.09909600  1
  Cl  Cl23  1  0.27109800  0.50000000  0.75000000  1
  Cl  Cl24  1  0.33037900  0.15455200  0.42831500  1
  Cl  Cl25  1  0.05896200  0.00000000  0.09885600  1
  Cl  Cl26  1  0.34828450  0.67123150  0.56432050  1
  Cl  Cl27  1  0.44227700  0.30283700  0.25000000  1
  Cl  Cl28  1  0.36888300  0.00000000  0.25000000  1
  Cl  Cl29  1  0.16962100  0.34544800  0.42831500  1
  Cl  Cl30  1  0.44103800  0.50000000  0.09885600  1
  Cl  Cl31  1  0.94227700  0.19716300  0.75000000  1
  Cl  Cl32  1  0.16962100  0.65455200  0.07168500  1
  Cl  Cl33  1  0.93118900  0.50000000  0.40090400  1
  Cl  Cl34  1  0.44103800  0.50000000  0.40114400  1
  Cl  Cl35  1  0.34828450  0.32876850  0.93567950  1
  Cl  Cl36  1  0.55772300  0.30283700  0.75000000  1
  Cl  Cl37  1  0.16962100  0.34544800  0.07168500  1
  Cl  Cl38  1  0.15171550  0.17123150  0.56432050  1
  Cl  Cl39  1  0.66962100  0.15455200  0.92831500  1
  Cl  Cl40  1  0.13111700  0.50000000  0.25000000  1
  Cl  Cl41  1  0.33037900  0.84544800  0.42831500  1
  Cl  Cl42  1  0.05896200  0.00000000  0.40114400  1
  Cl  Cl43  1  0.84828450  0.17123150  0.43567950  1
  Cl  Cl44  1  0.83037900  0.34544800  0.57168500  1
  Cl  Cl45  1  0.34828450  0.32876850  0.56432050  1
  Cl  Cl46  1  0.93118900  0.50000000  0.09909600  1
  Cl  Cl47  1  0.05772300  0.19716300  0.25000000  1
  Cl  Cl48  1  0.83037900  0.65455200  0.57168500  1
  Cl  Cl49  1  0.72890200  0.50000000  0.25000000  1
  Cl  Cl50  1  0.15171550  0.82876850  0.56432050  1
  Cl  Cl51  1  0.65171550  0.67123150  0.43567950  1
  Cl  Cl52  1  0.06881100  0.50000000  0.90090400  1
  Cl  Cl53  1  0.65171550  0.32876850  0.43567950  1
  Cl  Cl54  1  0.06881100  0.50000000  0.59909600  1
  Cl  Cl55  1  0.77109800  0.00000000  0.25000000  1
  Cl  Cl56  1  0.83037900  0.65455200  0.92831500  1
  Cl  Cl57  1  0.55896200  0.50000000  0.59885600  1
  Cl  Cl58  1  0.84828450  0.17123150  0.06432050  1
  Cl  Cl59  1  0.94227700  0.80283700  0.75000000  1
  Cl  Cl60  1  0.86888300  0.50000000  0.75000000  1
  Cl  Cl61  1  0.66962100  0.84544800  0.92831500  1
  Cl  Cl62  1  0.94103800  0.00000000  0.59885600  1
  Cl  Cl63  1  0.44227700  0.69716300  0.25000000  1
  Cl  Cl64  1  0.66962100  0.15455200  0.57168500  1
  Cl  Cl65  1  0.43118900  0.00000000  0.90090400  1
  Cl  Cl66  1  0.94103800  0.00000000  0.90114400  1
  Cl  Cl67  1  0.84828450  0.82876850  0.43567950  1
  Cl  Cl68  1  0.05772300  0.80283700  0.25000000  1
  Cl  Cl69  1  0.66962100  0.84544800  0.57168500  1
  Cl  Cl70  1  0.65171550  0.67123150  0.06432050  1
  Cl  Cl71  1  0.16962100  0.65455200  0.42831500  1
  Cl  Cl72  1  0.63111700  0.00000000  0.75000000  1
  Cl  Cl73  1  0.83037900  0.34544800  0.92831500  1
  Cl  Cl74  1  0.55896200  0.50000000  0.90114400  1
  Cl  Cl75  1  0.34828450  0.67123150  0.93567950  1
  Cl  Cl76  1  0.33037900  0.84544800  0.07168500  1
  Cl  Cl77  1  0.84828450  0.82876850  0.06432050  1
  Cl  Cl78  1  0.43118900  0.00000000  0.59909600  1
  Cl  Cl79  1  0.55772300  0.69716300  0.75000000  1
