# generated using pymatgen
data_NaB5H10O13
_symmetry_space_group_name_H-M   'P 1'
_cell_length_a   11.12959800
_cell_length_b   16.42252800
_cell_length_c   13.56403919
_cell_angle_alpha   90.00000000
_cell_angle_beta   112.08575527
_cell_angle_gamma   90.00000000
_symmetry_Int_Tables_number   1
_chemical_formula_structural   NaB5H10O13
_chemical_formula_sum   'Na8 B40 H80 O104'
_cell_volume   2297.26553353
_cell_formula_units_Z   8
loop_
 _symmetry_equiv_pos_site_id
 _symmetry_equiv_pos_as_xyz
  1  'x, y, z'
loop_
 _atom_site_type_symbol
 _atom_site_label
 _atom_site_symmetry_multiplicity
 _atom_site_fract_x
 _atom_site_fract_y
 _atom_site_fract_z
 _atom_site_occupancy
  Na  Na0  1  0.50000000  0.65543300  0.75000000  1
  Na  Na1  1  0.50000000  0.34456700  0.25000000  1
  Na  Na2  1  0.50000000  0.12393800  0.75000000  1
  Na  Na3  1  0.50000000  0.87606200  0.25000000  1
  Na  Na4  1  0.00000000  0.15543300  0.75000000  1
  Na  Na5  1  0.00000000  0.84456700  0.25000000  1
  Na  Na6  1  0.00000000  0.62393800  0.75000000  1
  Na  Na7  1  0.00000000  0.37606200  0.25000000  1
  B  B8  1  0.25325900  0.91611500  0.82202200  1
  B  B9  1  0.74674100  0.91611500  0.67797800  1
  B  B10  1  0.74674100  0.08388500  0.17797800  1
  B  B11  1  0.25325900  0.08388500  0.32202200  1
  B  B12  1  0.17753150  0.84274150  0.95081100  1
  B  B13  1  0.82246850  0.84274150  0.54918900  1
  B  B14  1  0.82246850  0.15725850  0.04918900  1
  B  B15  1  0.17753150  0.15725850  0.45081100  1
  B  B16  1  0.36383400  0.93005200  0.01918300  1
  B  B17  1  0.63616600  0.93005200  0.48081700  1
  B  B18  1  0.63616600  0.06994800  0.98081700  1
  B  B19  1  0.36383400  0.06994800  0.51918300  1
  B  B20  1  0.24839850  0.88614750  0.64027300  1
  B  B21  1  0.75160150  0.88614750  0.85972700  1
  B  B22  1  0.75160150  0.11385250  0.35972700  1
  B  B23  1  0.24839850  0.11385250  0.14027300  1
  B  B24  1  0.11454150  0.99444050  0.66346400  1
  B  B25  1  0.88545850  0.99444050  0.83653600  1
  B  B26  1  0.88545850  0.00555950  0.33653600  1
  B  B27  1  0.11454150  0.00555950  0.16346400  1
  B  B28  1  0.75325900  0.41611500  0.82202200  1
  B  B29  1  0.24674100  0.41611500  0.67797800  1
  B  B30  1  0.24674100  0.58388500  0.17797800  1
  B  B31  1  0.75325900  0.58388500  0.32202200  1
  B  B32  1  0.67753150  0.34274150  0.95081100  1
  B  B33  1  0.32246850  0.34274150  0.54918900  1
  B  B34  1  0.32246850  0.65725850  0.04918900  1
  B  B35  1  0.67753150  0.65725850  0.45081100  1
  B  B36  1  0.86383400  0.43005200  0.01918300  1
  B  B37  1  0.13616600  0.43005200  0.48081700  1
  B  B38  1  0.13616600  0.56994800  0.98081700  1
  B  B39  1  0.86383400  0.56994800  0.51918300  1
  B  B40  1  0.74839850  0.38614750  0.64027300  1
  B  B41  1  0.25160150  0.38614750  0.85972700  1
  B  B42  1  0.25160150  0.61385250  0.35972700  1
  B  B43  1  0.74839850  0.61385250  0.14027300  1
  B  B44  1  0.61454150  0.49444050  0.66346400  1
  B  B45  1  0.38545850  0.49444050  0.83653600  1
  B  B46  1  0.38545850  0.50555950  0.33653600  1
  B  B47  1  0.61454150  0.50555950  0.16346400  1
  H  H48  1  0.52080950  0.27014250  0.90705800  1
  H  H49  1  0.47919050  0.27014250  0.59294200  1
  H  H50  1  0.47919050  0.72985750  0.09294200  1
  H  H51  1  0.52080950  0.72985750  0.40705800  1
  H  H52  1  0.52375950  0.99799550  0.09608400  1
  H  H53  1  0.47624050  0.99799550  0.40391600  1
  H  H54  1  0.47624050  0.00200450  0.90391600  1
  H  H55  1  0.52375950  0.00200450  0.59608400  1
  H  H56  1  0.37141200  0.81293000  0.59975800  1
  H  H57  1  0.62858800  0.81293000  0.90024200  1
  H  H58  1  0.62858800  0.18707000  0.40024200  1
  H  H59  1  0.37141200  0.18707000  0.09975800  1
  H  H60  1  0.48092300  0.56029100  0.54666600  1
  H  H61  1  0.51907700  0.56029100  0.95333400  1
  H  H62  1  0.51907700  0.43970900  0.45333400  1
  H  H63  1  0.48092300  0.43970900  0.04666600  1
  H  H64  1  0.41976300  0.80399600  0.82226500  1
  H  H65  1  0.58023700  0.80399600  0.67773500  1
  H  H66  1  0.58023700  0.19600400  0.17773500  1
  H  H67  1  0.41976300  0.19600400  0.32226500  1
  H  H68  1  0.45670100  0.74222500  0.91921200  1
  H  H69  1  0.54329900  0.74222500  0.58078800  1
  H  H70  1  0.54329900  0.25777500  0.08078800  1
  H  H71  1  0.45670100  0.25777500  0.41921200  1
  H  H72  1  0.75251800  0.14625200  0.56480600  1
  H  H73  1  0.24748200  0.14625200  0.93519400  1
  H  H74  1  0.24748200  0.85374800  0.43519400  1
  H  H75  1  0.75251800  0.85374800  0.06480600  1
  H  H76  1  0.77537650  0.08535750  0.66125500  1
  H  H77  1  0.22462350  0.08535750  0.83874500  1
  H  H78  1  0.22462350  0.91464250  0.33874500  1
  H  H79  1  0.77537650  0.91464250  0.16125500  1
  H  H80  1  0.63587200  0.27098300  0.75058100  1
  H  H81  1  0.36412800  0.27098300  0.74941900  1
  H  H82  1  0.36412800  0.72901700  0.24941900  1
  H  H83  1  0.63587200  0.72901700  0.25058100  1
  H  H84  1  0.67063300  0.20278600  0.67773500  1
  H  H85  1  0.32936700  0.20278600  0.82226500  1
  H  H86  1  0.32936700  0.79721400  0.32226500  1
  H  H87  1  0.67063300  0.79721400  0.17773500  1
  H  H88  1  0.02080950  0.77014250  0.90705800  1
  H  H89  1  0.97919050  0.77014250  0.59294200  1
  H  H90  1  0.97919050  0.22985750  0.09294200  1
  H  H91  1  0.02080950  0.22985750  0.40705800  1
  H  H92  1  0.02375950  0.49799550  0.09608400  1
  H  H93  1  0.97624050  0.49799550  0.40391600  1
  H  H94  1  0.97624050  0.50200450  0.90391600  1
  H  H95  1  0.02375950  0.50200450  0.59608400  1
  H  H96  1  0.87141200  0.31293000  0.59975800  1
  H  H97  1  0.12858800  0.31293000  0.90024200  1
  H  H98  1  0.12858800  0.68707000  0.40024200  1
  H  H99  1  0.87141200  0.68707000  0.09975800  1
  H  H100  1  0.98092300  0.06029100  0.54666600  1
  H  H101  1  0.01907700  0.06029100  0.95333400  1
  H  H102  1  0.01907700  0.93970900  0.45333400  1
  H  H103  1  0.98092300  0.93970900  0.04666600  1
  H  H104  1  0.91976300  0.30399600  0.82226500  1
  H  H105  1  0.08023700  0.30399600  0.67773500  1
  H  H106  1  0.08023700  0.69600400  0.17773500  1
  H  H107  1  0.91976300  0.69600400  0.32226500  1
  H  H108  1  0.95670100  0.24222500  0.91921200  1
  H  H109  1  0.04329900  0.24222500  0.58078800  1
  H  H110  1  0.04329900  0.75777500  0.08078800  1
  H  H111  1  0.95670100  0.75777500  0.41921200  1
  H  H112  1  0.25251800  0.64625200  0.56480600  1
  H  H113  1  0.74748200  0.64625200  0.93519400  1
  H  H114  1  0.74748200  0.35374800  0.43519400  1
  H  H115  1  0.25251800  0.35374800  0.06480600  1
  H  H116  1  0.27537650  0.58535750  0.66125500  1
  H  H117  1  0.72462350  0.58535750  0.83874500  1
  H  H118  1  0.72462350  0.41464250  0.33874500  1
  H  H119  1  0.27537650  0.41464250  0.16125500  1
  H  H120  1  0.13587200  0.77098300  0.75058100  1
  H  H121  1  0.86412800  0.77098300  0.74941900  1
  H  H122  1  0.86412800  0.22901700  0.24941900  1
  H  H123  1  0.13587200  0.22901700  0.25058100  1
  H  H124  1  0.17063300  0.70278600  0.67773500  1
  H  H125  1  0.82936700  0.70278600  0.82226500  1
  H  H126  1  0.82936700  0.29721400  0.32226500  1
  H  H127  1  0.17063300  0.29721400  0.17773500  1
  O  O128  1  0.59137750  0.29283050  0.97220600  1
  O  O129  1  0.40862250  0.29283050  0.52779400  1
  O  O130  1  0.40862250  0.70716950  0.02779400  1
  O  O131  1  0.59137750  0.70716950  0.47220600  1
  O  O132  1  0.27152350  0.88168250  0.03687900  1
  O  O133  1  0.72847650  0.88168250  0.46312100  1
  O  O134  1  0.72847650  0.11831750  0.96312100  1
  O  O135  1  0.27152350  0.11831750  0.53687900  1
  O  O136  1  0.45822700  0.96169900  0.10818600  1
  O  O137  1  0.54177300  0.96169900  0.39181400  1
  O  O138  1  0.54177300  0.03830100  0.89181400  1
  O  O139  1  0.45822700  0.03830100  0.60818600  1
  O  O140  1  0.17263950  0.85488850  0.84915700  1
  O  O141  1  0.82736050  0.85488850  0.65084300  1
  O  O142  1  0.82736050  0.14511150  0.15084300  1
  O  O143  1  0.17263950  0.14511150  0.34915700  1
  O  O144  1  0.36157200  0.94396700  0.91875100  1
  O  O145  1  0.63842800  0.94396700  0.58124900  1
  O  O146  1  0.63842800  0.05603300  0.08124900  1
  O  O147  1  0.36157200  0.05603300  0.41875100  1
  O  O148  1  0.30658700  0.87718300  0.74836600  1
  O  O149  1  0.69341300  0.87718300  0.75163400  1
  O  O150  1  0.69341300  0.12281700  0.25163400  1
  O  O151  1  0.30658700  0.12281700  0.24836600  1
  O  O152  1  0.17614000  0.98840800  0.77127100  1
  O  O153  1  0.82386000  0.98840800  0.72872900  1
  O  O154  1  0.82386000  0.01159200  0.22872900  1
  O  O155  1  0.17614000  0.01159200  0.27127100  1
  O  O156  1  0.28895150  0.84567250  0.57031600  1
  O  O157  1  0.71104850  0.84567250  0.92968400  1
  O  O158  1  0.71104850  0.15432750  0.42968400  1
  O  O159  1  0.28895150  0.15432750  0.07031600  1
  O  O160  1  0.14177050  0.93905850  0.59584900  1
  O  O161  1  0.85822950  0.93905850  0.90415100  1
  O  O162  1  0.85822950  0.06094150  0.40415100  1
  O  O163  1  0.14177050  0.06094150  0.09584900  1
  O  O164  1  0.52862000  0.55707900  0.62410500  1
  O  O165  1  0.47138000  0.55707900  0.87589500  1
  O  O166  1  0.47138000  0.44292100  0.37589500  1
  O  O167  1  0.52862000  0.44292100  0.12410500  1
  O  O168  1  0.48607950  0.76364350  0.86372200  1
  O  O169  1  0.51392050  0.76364350  0.63627800  1
  O  O170  1  0.51392050  0.23635650  0.13627800  1
  O  O171  1  0.48607950  0.23635650  0.36372200  1
  O  O172  1  0.77149950  0.14386250  0.64257200  1
  O  O173  1  0.22850050  0.14386250  0.85742800  1
  O  O174  1  0.22850050  0.85613750  0.35742800  1
  O  O175  1  0.77149950  0.85613750  0.14257200  1
  O  O176  1  0.59919950  0.22922950  0.69466200  1
  O  O177  1  0.40080050  0.22922950  0.80533800  1
  O  O178  1  0.40080050  0.77077050  0.30533800  1
  O  O179  1  0.59919950  0.77077050  0.19466200  1
  O  O180  1  0.09137750  0.79283050  0.97220600  1
  O  O181  1  0.90862250  0.79283050  0.52779400  1
  O  O182  1  0.90862250  0.20716950  0.02779400  1
  O  O183  1  0.09137750  0.20716950  0.47220600  1
  O  O184  1  0.77152350  0.38168250  0.03687900  1
  O  O185  1  0.22847650  0.38168250  0.46312100  1
  O  O186  1  0.22847650  0.61831750  0.96312100  1
  O  O187  1  0.77152350  0.61831750  0.53687900  1
  O  O188  1  0.95822700  0.46169900  0.10818600  1
  O  O189  1  0.04177300  0.46169900  0.39181400  1
  O  O190  1  0.04177300  0.53830100  0.89181400  1
  O  O191  1  0.95822700  0.53830100  0.60818600  1
  O  O192  1  0.67263950  0.35488850  0.84915700  1
  O  O193  1  0.32736050  0.35488850  0.65084300  1
  O  O194  1  0.32736050  0.64511150  0.15084300  1
  O  O195  1  0.67263950  0.64511150  0.34915700  1
  O  O196  1  0.86157200  0.44396700  0.91875100  1
  O  O197  1  0.13842800  0.44396700  0.58124900  1
  O  O198  1  0.13842800  0.55603300  0.08124900  1
  O  O199  1  0.86157200  0.55603300  0.41875100  1
  O  O200  1  0.80658700  0.37718300  0.74836600  1
  O  O201  1  0.19341300  0.37718300  0.75163400  1
  O  O202  1  0.19341300  0.62281700  0.25163400  1
  O  O203  1  0.80658700  0.62281700  0.24836600  1
  O  O204  1  0.67614000  0.48840800  0.77127100  1
  O  O205  1  0.32386000  0.48840800  0.72872900  1
  O  O206  1  0.32386000  0.51159200  0.22872900  1
  O  O207  1  0.67614000  0.51159200  0.27127100  1
  O  O208  1  0.78895150  0.34567250  0.57031600  1
  O  O209  1  0.21104850  0.34567250  0.92968400  1
  O  O210  1  0.21104850  0.65432750  0.42968400  1
  O  O211  1  0.78895150  0.65432750  0.07031600  1
  O  O212  1  0.64177050  0.43905850  0.59584900  1
  O  O213  1  0.35822950  0.43905850  0.90415100  1
  O  O214  1  0.35822950  0.56094150  0.40415100  1
  O  O215  1  0.64177050  0.56094150  0.09584900  1
  O  O216  1  0.02862000  0.05707900  0.62410500  1
  O  O217  1  0.97138000  0.05707900  0.87589500  1
  O  O218  1  0.97138000  0.94292100  0.37589500  1
  O  O219  1  0.02862000  0.94292100  0.12410500  1
  O  O220  1  0.98607950  0.26364350  0.86372200  1
  O  O221  1  0.01392050  0.26364350  0.63627800  1
  O  O222  1  0.01392050  0.73635650  0.13627800  1
  O  O223  1  0.98607950  0.73635650  0.36372200  1
  O  O224  1  0.27149950  0.64386250  0.64257200  1
  O  O225  1  0.72850050  0.64386250  0.85742800  1
  O  O226  1  0.72850050  0.35613750  0.35742800  1
  O  O227  1  0.27149950  0.35613750  0.14257200  1
  O  O228  1  0.09919950  0.72922950  0.69466200  1
  O  O229  1  0.90080050  0.72922950  0.80533800  1
  O  O230  1  0.90080050  0.27077050  0.30533800  1
  O  O231  1  0.09919950  0.27077050  0.19466200  1
