# generated using pymatgen
data_Ag2TeO4
_symmetry_space_group_name_H-M   'P 1'
_cell_length_a   9.17442600
_cell_length_b   9.43577400
_cell_length_c   13.94802336
_cell_angle_alpha   90.00000000
_cell_angle_beta   91.60268070
_cell_angle_gamma   90.00000000
_symmetry_Int_Tables_number   1
_chemical_formula_structural   Ag2TeO4
_chemical_formula_sum   'Ag24 Te12 O48'
_cell_volume   1206.97749537
_cell_formula_units_Z   12
loop_
 _symmetry_equiv_pos_site_id
 _symmetry_equiv_pos_as_xyz
  1  'x, y, z'
loop_
 _atom_site_type_symbol
 _atom_site_label
 _atom_site_symmetry_multiplicity
 _atom_site_fract_x
 _atom_site_fract_y
 _atom_site_fract_z
 _atom_site_occupancy
  Ag  Ag0  1  0.50000000  0.22527800  0.25000000  1
  Ag  Ag1  1  0.67217400  0.93789900  0.32676200  1
  Ag  Ag2  1  0.50000000  0.44848100  0.75000000  1
  Ag  Ag3  1  0.50000000  0.77472200  0.75000000  1
  Ag  Ag4  1  0.50000000  0.55151900  0.25000000  1
  Ag  Ag5  1  0.32782600  0.06210100  0.67323800  1
  Ag  Ag6  1  0.63192900  0.14911300  0.06764900  1
  Ag  Ag7  1  0.36807100  0.14911300  0.43235100  1
  Ag  Ag8  1  0.32782600  0.93789900  0.17323800  1
  Ag  Ag9  1  0.63192900  0.85088700  0.56764900  1
  Ag  Ag10  1  0.67217400  0.06210100  0.82676200  1
  Ag  Ag11  1  0.36807100  0.85088700  0.93235100  1
  Ag  Ag12  1  0.00000000  0.72527800  0.25000000  1
  Ag  Ag13  1  0.17217400  0.43789900  0.32676200  1
  Ag  Ag14  1  0.00000000  0.94848100  0.75000000  1
  Ag  Ag15  1  0.00000000  0.27472200  0.75000000  1
  Ag  Ag16  1  0.00000000  0.05151900  0.25000000  1
  Ag  Ag17  1  0.82782600  0.56210100  0.67323800  1
  Ag  Ag18  1  0.13192900  0.64911300  0.06764900  1
  Ag  Ag19  1  0.86807100  0.64911300  0.43235100  1
  Ag  Ag20  1  0.82782600  0.43789900  0.17323800  1
  Ag  Ag21  1  0.13192900  0.35088700  0.56764900  1
  Ag  Ag22  1  0.17217400  0.56210100  0.82676200  1
  Ag  Ag23  1  0.86807100  0.35088700  0.93235100  1
  Te  Te24  1  0.29166150  0.79494750  0.39651200  1
  Te  Te25  1  0.70833850  0.20505250  0.60348800  1
  Te  Te26  1  0.70833850  0.79494750  0.10348800  1
  Te  Te27  1  0.00000000  0.00000000  0.50000000  1
  Te  Te28  1  0.29166150  0.20505250  0.89651200  1
  Te  Te29  1  0.00000000  0.00000000  0.00000000  1
  Te  Te30  1  0.79166150  0.29494750  0.39651200  1
  Te  Te31  1  0.20833850  0.70505250  0.60348800  1
  Te  Te32  1  0.20833850  0.29494750  0.10348800  1
  Te  Te33  1  0.50000000  0.50000000  0.50000000  1
  Te  Te34  1  0.79166150  0.70505250  0.89651200  1
  Te  Te35  1  0.50000000  0.50000000  0.00000000  1
  O  O36  1  0.83892900  0.88589900  0.45328800  1
  O  O37  1  0.66381050  0.84491850  0.96549500  1
  O  O38  1  0.58571800  0.94181100  0.14835400  1
  O  O39  1  0.45508900  0.34477500  0.90306600  1
  O  O40  1  0.58571800  0.05818900  0.64835400  1
  O  O41  1  0.41428200  0.94181100  0.35164600  1
  O  O42  1  0.45508900  0.65522500  0.40306600  1
  O  O43  1  0.88037050  0.92610250  0.10779000  1
  O  O44  1  0.41428200  0.05818900  0.85164600  1
  O  O45  1  0.83892900  0.11410100  0.95328800  1
  O  O46  1  0.54491100  0.34477500  0.59693400  1
  O  O47  1  0.16107100  0.11410100  0.54671200  1
  O  O48  1  0.26619850  0.78131750  0.72562200  1
  O  O49  1  0.88037050  0.07389750  0.60779000  1
  O  O50  1  0.33618950  0.15508150  0.03450500  1
  O  O51  1  0.26619850  0.21868250  0.22562200  1
  O  O52  1  0.54491100  0.65522500  0.09693400  1
  O  O53  1  0.16107100  0.88589900  0.04671200  1
  O  O54  1  0.73380150  0.21868250  0.27437800  1
  O  O55  1  0.66381050  0.15508150  0.46549500  1
  O  O56  1  0.11962950  0.07389750  0.89221000  1
  O  O57  1  0.11962950  0.92610250  0.39221000  1
  O  O58  1  0.73380150  0.78131750  0.77437800  1
  O  O59  1  0.33618950  0.84491850  0.53450500  1
  O  O60  1  0.33892900  0.38589900  0.45328800  1
  O  O61  1  0.16381050  0.34491850  0.96549500  1
  O  O62  1  0.08571800  0.44181100  0.14835400  1
  O  O63  1  0.95508900  0.84477500  0.90306600  1
  O  O64  1  0.08571800  0.55818900  0.64835400  1
  O  O65  1  0.91428200  0.44181100  0.35164600  1
  O  O66  1  0.95508900  0.15522500  0.40306600  1
  O  O67  1  0.38037050  0.42610250  0.10779000  1
  O  O68  1  0.91428200  0.55818900  0.85164600  1
  O  O69  1  0.33892900  0.61410100  0.95328800  1
  O  O70  1  0.04491100  0.84477500  0.59693400  1
  O  O71  1  0.66107100  0.61410100  0.54671200  1
  O  O72  1  0.76619850  0.28131750  0.72562200  1
  O  O73  1  0.38037050  0.57389750  0.60779000  1
  O  O74  1  0.83618950  0.65508150  0.03450500  1
  O  O75  1  0.76619850  0.71868250  0.22562200  1
  O  O76  1  0.04491100  0.15522500  0.09693400  1
  O  O77  1  0.66107100  0.38589900  0.04671200  1
  O  O78  1  0.23380150  0.71868250  0.27437800  1
  O  O79  1  0.16381050  0.65508150  0.46549500  1
  O  O80  1  0.61962950  0.57389750  0.89221000  1
  O  O81  1  0.61962950  0.42610250  0.39221000  1
  O  O82  1  0.23380150  0.28131750  0.77437800  1
  O  O83  1  0.83618950  0.34491850  0.53450500  1
