# generated using pymatgen
data_Na2Cu2Si4O11
_symmetry_space_group_name_H-M   'P 1'
_cell_length_a   5.24620900
_cell_length_b   6.36432552
_cell_length_c   8.36124001
_cell_angle_alpha   96.68654493
_cell_angle_beta   96.76526118
_cell_angle_gamma   100.80263328
_symmetry_Int_Tables_number   1
_chemical_formula_structural   Na2Cu2Si4O11
_chemical_formula_sum   'Na2 Cu2 Si4 O11'
_cell_volume   269.55367589
_cell_formula_units_Z   1
loop_
 _symmetry_equiv_pos_site_id
 _symmetry_equiv_pos_as_xyz
  1  'x, y, z'
loop_
 _atom_site_type_symbol
 _atom_site_label
 _atom_site_symmetry_multiplicity
 _atom_site_fract_x
 _atom_site_fract_y
 _atom_site_fract_z
 _atom_site_occupancy
  Na  Na0  1  0.86849300  0.35222900  0.19522400  1
  Na  Na1  1  0.13150700  0.64777100  0.80477600  1
  Cu  Cu2  1  0.29662200  0.11144400  0.07126100  1
  Cu  Cu3  1  0.70337800  0.88855600  0.92873900  1
  Si  Si4  1  0.40595600  0.65607600  0.18960100  1
  Si  Si5  1  0.01544900  0.13472000  0.67906400  1
  Si  Si6  1  0.59404400  0.34392400  0.81039900  1
  Si  Si7  1  0.98455100  0.86528000  0.32093600  1
  O  O8  1  0.29153900  0.32161600  0.71507500  1
  O  O9  1  0.70846100  0.67838400  0.28492500  1
  O  O10  1  0.59524200  0.17371900  0.94593700  1
  O  O11  1  0.40475800  0.82628100  0.05406300  1
  O  O12  1  0.00283600  0.97695400  0.81655100  1
  O  O13  1  0.99716400  0.02304600  0.18344900  1
  O  O14  1  0.22138100  0.72777900  0.32726000  1
  O  O15  1  0.72284800  0.58771700  0.89009300  1
  O  O16  1  0.77861900  0.27222100  0.67274000  1
  O  O17  1  0.00000000  0.00000000  0.50000000  1
  O  O18  1  0.27715200  0.41228300  0.10990700  1
