# generated using pymatgen
data_LiCr(PO3)3
_symmetry_space_group_name_H-M   'P 1'
_cell_length_a   11.55904800
_cell_length_b   6.43698800
_cell_length_c   9.83578584
_cell_angle_alpha   90.00000000
_cell_angle_beta   93.26840771
_cell_angle_gamma   90.00000000
_symmetry_Int_Tables_number   1
_chemical_formula_structural   LiCr(PO3)3
_chemical_formula_sum   'Li4 Cr4 P12 O36'
_cell_volume   730.64570272
_cell_formula_units_Z   4
loop_
 _symmetry_equiv_pos_site_id
 _symmetry_equiv_pos_as_xyz
  1  'x, y, z'
loop_
 _atom_site_type_symbol
 _atom_site_label
 _atom_site_symmetry_multiplicity
 _atom_site_fract_x
 _atom_site_fract_y
 _atom_site_fract_z
 _atom_site_occupancy
  Li  Li0  1  0.84552200  0.55691900  0.50343300  1
  Li  Li1  1  0.84552200  0.44308100  0.00343300  1
  Li  Li2  1  0.34552200  0.05691900  0.50343300  1
  Li  Li3  1  0.34552200  0.94308100  0.00343300  1
  Cr  Cr4  1  0.66811600  0.00583200  0.49995800  1
  Cr  Cr5  1  0.66811600  0.99416800  0.99995800  1
  Cr  Cr6  1  0.16811600  0.50583200  0.49995800  1
  Cr  Cr7  1  0.16811600  0.49416800  0.99995800  1
  P  P8  1  0.62177950  0.65772550  0.74521100  1
  P  P9  1  0.86549950  0.12387550  0.75364000  1
  P  P10  1  0.50906250  0.75717350  0.25062500  1
  P  P11  1  0.62177950  0.34227450  0.24521100  1
  P  P12  1  0.50906250  0.24282650  0.75062500  1
  P  P13  1  0.86549950  0.87612450  0.25364000  1
  P  P14  1  0.12177950  0.15772550  0.74521100  1
  P  P15  1  0.36549950  0.62387550  0.75364000  1
  P  P16  1  0.00906250  0.25717350  0.25062500  1
  P  P17  1  0.12177950  0.84227450  0.24521100  1
  P  P18  1  0.00906250  0.74282650  0.75062500  1
  P  P19  1  0.36549950  0.37612450  0.25364000  1
  O  O20  1  0.67921400  0.27161900  0.11918600  1
  O  O21  1  0.99011000  0.36714700  0.11686200  1
  O  O22  1  0.67921400  0.72838100  0.61918600  1
  O  O23  1  0.81677000  0.79477700  0.38115900  1
  O  O24  1  0.81677000  0.20522300  0.88115900  1
  O  O25  1  0.67672100  0.28072500  0.38139200  1
  O  O26  1  0.61232800  0.40945700  0.73923200  1
  O  O27  1  0.89808100  0.11644800  0.27845800  1
  O  O28  1  0.98886100  0.77122700  0.23215800  1
  O  O29  1  0.61232800  0.59054300  0.23923200  1
  O  O30  1  0.79615200  0.84722100  0.12099500  1
  O  O31  1  0.53178450  0.88396050  0.37769300  1
  O  O32  1  0.67672100  0.71927500  0.88139200  1
  O  O33  1  0.98886100  0.22877300  0.73215800  1
  O  O34  1  0.79615200  0.15277900  0.62099500  1
  O  O35  1  0.89808100  0.88355200  0.77845800  1
  O  O36  1  0.53178450  0.11603950  0.87769300  1
  O  O37  1  0.99011000  0.63285300  0.61686200  1
  O  O38  1  0.17921400  0.77161900  0.11918600  1
  O  O39  1  0.49011000  0.86714700  0.11686200  1
  O  O40  1  0.17921400  0.22838100  0.61918600  1
  O  O41  1  0.31677000  0.29477700  0.38115900  1
  O  O42  1  0.31677000  0.70522300  0.88115900  1
  O  O43  1  0.17672100  0.78072500  0.38139200  1
  O  O44  1  0.11232800  0.90945700  0.73923200  1
  O  O45  1  0.39808100  0.61644800  0.27845800  1
  O  O46  1  0.48886100  0.27122700  0.23215800  1
  O  O47  1  0.11232800  0.09054300  0.23923200  1
  O  O48  1  0.29615200  0.34722100  0.12099500  1
  O  O49  1  0.03178450  0.38396050  0.37769300  1
  O  O50  1  0.17672100  0.21927500  0.88139200  1
  O  O51  1  0.48886100  0.72877300  0.73215800  1
  O  O52  1  0.29615200  0.65277900  0.62099500  1
  O  O53  1  0.39808100  0.38355200  0.77845800  1
  O  O54  1  0.03178450  0.61603950  0.87769300  1
  O  O55  1  0.49011000  0.13285300  0.61686200  1
