# generated using pymatgen
data_Ca12Al14O33
_symmetry_space_group_name_H-M   'P 1'
_cell_length_a   12.12037800
_cell_length_b   12.12037800
_cell_length_c   12.01567200
_cell_angle_alpha   90.00000000
_cell_angle_beta   90.00000000
_cell_angle_gamma   90.00000000
_symmetry_Int_Tables_number   1
_chemical_formula_structural   Ca12Al14O33
_chemical_formula_sum   'Ca24 Al28 O66'
_cell_volume   1765.14502699
_cell_formula_units_Z   2
loop_
 _symmetry_equiv_pos_site_id
 _symmetry_equiv_pos_as_xyz
  1  'x, y, z'
loop_
 _atom_site_type_symbol
 _atom_site_label
 _atom_site_symmetry_multiplicity
 _atom_site_fract_x
 _atom_site_fract_y
 _atom_site_fract_z
 _atom_site_occupancy
  Ca  Ca0  1  0.00000000  0.00000000  0.32250700  1
  Ca  Ca1  1  0.61158950  0.74695950  0.37765550  1
  Ca  Ca2  1  0.75304050  0.11158950  0.12234450  1
  Ca  Ca3  1  0.63493900  0.25395400  0.87778700  1
  Ca  Ca4  1  0.24695950  0.88841050  0.12234450  1
  Ca  Ca5  1  0.00000000  0.00000000  0.67749300  1
  Ca  Ca6  1  0.38841050  0.25304050  0.37765550  1
  Ca  Ca7  1  0.24604600  0.13493900  0.62221300  1
  Ca  Ca8  1  0.00000000  0.50000000  0.48726800  1
  Ca  Ca9  1  0.25395400  0.36506100  0.12221300  1
  Ca  Ca10  1  0.00000000  0.50000000  0.01273200  1
  Ca  Ca11  1  0.86506100  0.24604600  0.37778700  1
  Ca  Ca12  1  0.50000000  0.50000000  0.82250700  1
  Ca  Ca13  1  0.11158950  0.24695950  0.87765550  1
  Ca  Ca14  1  0.25304050  0.61158950  0.62234450  1
  Ca  Ca15  1  0.13493900  0.75395400  0.37778700  1
  Ca  Ca16  1  0.74695950  0.38841050  0.62234450  1
  Ca  Ca17  1  0.50000000  0.50000000  0.17749300  1
  Ca  Ca18  1  0.88841050  0.75304050  0.87765550  1
  Ca  Ca19  1  0.74604600  0.63493900  0.12221300  1
  Ca  Ca20  1  0.50000000  0.00000000  0.98726800  1
  Ca  Ca21  1  0.75395400  0.86506100  0.62221300  1
  Ca  Ca22  1  0.50000000  0.00000000  0.51273200  1
  Ca  Ca23  1  0.36506100  0.74604600  0.87778700  1
  Al  Al24  1  0.50000000  0.00000000  0.25000000  1
  Al  Al25  1  0.00000000  0.00000000  0.00000000  1
  Al  Al26  1  0.37403000  0.24980600  0.87533100  1
  Al  Al27  1  0.51767250  0.23069850  0.10829350  1
  Al  Al28  1  0.73059500  0.51674800  0.35841800  1
  Al  Al29  1  0.26940500  0.48325200  0.35841800  1
  Al  Al30  1  0.24980600  0.62597000  0.12466900  1
  Al  Al31  1  0.01674800  0.76940500  0.14158200  1
  Al  Al32  1  0.98232750  0.26930150  0.60829350  1
  Al  Al33  1  0.12597000  0.25019400  0.37533100  1
  Al  Al34  1  0.23069850  0.48232750  0.89170650  1
  Al  Al35  1  0.98325200  0.23059500  0.14158200  1
  Al  Al36  1  0.25019400  0.87403000  0.62466900  1
  Al  Al37  1  0.26930150  0.01767250  0.39170650  1
  Al  Al38  1  0.00000000  0.50000000  0.75000000  1
  Al  Al39  1  0.50000000  0.50000000  0.50000000  1
  Al  Al40  1  0.87403000  0.74980600  0.37533100  1
  Al  Al41  1  0.01767250  0.73069850  0.60829350  1
  Al  Al42  1  0.23059500  0.01674800  0.85841800  1
  Al  Al43  1  0.76940500  0.98325200  0.85841800  1
  Al  Al44  1  0.74980600  0.12597000  0.62466900  1
  Al  Al45  1  0.51674800  0.26940500  0.64158200  1
  Al  Al46  1  0.48232750  0.76930150  0.10829350  1
  Al  Al47  1  0.62597000  0.75019400  0.87533100  1
  Al  Al48  1  0.73069850  0.98232750  0.39170650  1
  Al  Al49  1  0.48325200  0.73059500  0.64158200  1
  Al  Al50  1  0.75019400  0.37403000  0.12466900  1
  Al  Al51  1  0.76930150  0.51767250  0.89170650  1
  O  O52  1  0.27951750  0.34668750  0.92844350  1
  O  O53  1  0.59746400  0.94264600  0.34224900  1
  O  O54  1  0.93979250  0.10642950  0.08028650  1
  O  O55  1  0.60642950  0.56020750  0.41971350  1
  O  O56  1  0.46436650  0.30791850  0.77725750  1
  O  O57  1  0.06020750  0.89357050  0.08028650  1
  O  O58  1  0.44264600  0.90253600  0.15775100  1
  O  O59  1  0.65331250  0.27951750  0.07155650  1
  O  O60  1  0.19417900  0.93018100  0.30838600  1
  O  O61  1  0.55735400  0.09746400  0.15775100  1
  O  O62  1  0.39357050  0.43979250  0.41971350  1
  O  O63  1  0.78830900  0.64756300  0.31735600  1
  O  O64  1  0.68207200  0.06698000  0.93816900  1
  O  O65  1  0.46314900  0.19208800  0.97554300  1
  O  O66  1  0.84668750  0.22048250  0.57155650  1
  O  O67  1  0.30791850  0.53563350  0.22274250  1
  O  O68  1  0.14756300  0.71169100  0.18264400  1
  O  O69  1  0.06981900  0.19417900  0.69161400  1
  O  O70  1  0.43018100  0.30582100  0.19161400  1
  O  O71  1  0.21169100  0.35243700  0.31735600  1
  O  O72  1  0.19208150  0.96436650  0.72274250  1
  O  O73  1  0.03685100  0.30791200  0.47554300  1
  O  O74  1  0.22048250  0.15331250  0.42844350  1
  O  O75  1  0.19208800  0.53685100  0.02445700  1
  O  O76  1  0.81792800  0.43302000  0.43816900  1
  O  O77  1  0.43302000  0.18207200  0.56183100  1
  O  O78  1  0.03563350  0.19208150  0.27725750  1
  O  O79  1  0.00000000  0.00000000  0.50000000  1
  O  O80  1  0.06698000  0.31792800  0.06183100  1
  O  O81  1  0.85243700  0.28830900  0.18264400  1
  O  O82  1  0.30791200  0.96314900  0.52445700  1
  O  O83  1  0.40253600  0.05735400  0.34224900  1
  O  O84  1  0.30582100  0.56981900  0.80838600  1
  O  O85  1  0.77951750  0.84668750  0.42844350  1
  O  O86  1  0.09746400  0.44264600  0.84224900  1
  O  O87  1  0.43979250  0.60642950  0.58028650  1
  O  O88  1  0.10642950  0.06020750  0.91971350  1
  O  O89  1  0.96436650  0.80791850  0.27725750  1
  O  O90  1  0.56020750  0.39357050  0.58028650  1
  O  O91  1  0.94264600  0.40253600  0.65775100  1
  O  O92  1  0.15331250  0.77951750  0.57155650  1
  O  O93  1  0.69417900  0.43018100  0.80838600  1
  O  O94  1  0.05735400  0.59746400  0.65775100  1
  O  O95  1  0.89357050  0.93979250  0.91971350  1
  O  O96  1  0.28830900  0.14756300  0.81735600  1
  O  O97  1  0.18207200  0.56698000  0.43816900  1
  O  O98  1  0.96314900  0.69208800  0.47554300  1
  O  O99  1  0.34668750  0.72048250  0.07155650  1
  O  O100  1  0.80791850  0.03563350  0.72274250  1
  O  O101  1  0.64756300  0.21169100  0.68264400  1
  O  O102  1  0.56981900  0.69417900  0.19161400  1
  O  O103  1  0.93018100  0.80582100  0.69161400  1
  O  O104  1  0.71169100  0.85243700  0.81735600  1
  O  O105  1  0.69208150  0.46436650  0.22274250  1
  O  O106  1  0.53685100  0.80791200  0.97554300  1
  O  O107  1  0.72048250  0.65331250  0.92844350  1
  O  O108  1  0.69208800  0.03685100  0.52445700  1
  O  O109  1  0.31792800  0.93302000  0.93816900  1
  O  O110  1  0.93302000  0.68207200  0.06183100  1
  O  O111  1  0.53563350  0.69208150  0.77725750  1
  O  O112  1  0.50000000  0.50000000  0.00000000  1
  O  O113  1  0.56698000  0.81792800  0.56183100  1
  O  O114  1  0.35243700  0.78830900  0.68264400  1
  O  O115  1  0.80791200  0.46314900  0.02445700  1
  O  O116  1  0.90253600  0.55735400  0.84224900  1
  O  O117  1  0.80582100  0.06981900  0.30838600  1
