# generated using pymatgen
data_K3U3Si2O13
_symmetry_space_group_name_H-M   'P 1'
_cell_length_a   9.66601788
_cell_length_b   9.66601788
_cell_length_c   8.46371200
_cell_angle_alpha   90.00000000
_cell_angle_beta   90.00000000
_cell_angle_gamma   120.00000000
_symmetry_Int_Tables_number   1
_chemical_formula_structural   K3U3Si2O13
_chemical_formula_sum   'K6 U6 Si4 O26'
_cell_volume   684.83618093
_cell_formula_units_Z   2
loop_
 _symmetry_equiv_pos_site_id
 _symmetry_equiv_pos_as_xyz
  1  'x, y, z'
loop_
 _atom_site_type_symbol
 _atom_site_label
 _atom_site_symmetry_multiplicity
 _atom_site_fract_x
 _atom_site_fract_y
 _atom_site_fract_z
 _atom_site_occupancy
  K  K0  1  0.95894500  0.57383600  0.75000000  1
  K  K1  1  0.04105500  0.61489100  0.25000000  1
  K  K2  1  0.42616400  0.38510900  0.75000000  1
  K  K3  1  0.38510900  0.42616400  0.25000000  1
  K  K4  1  0.61489100  0.04105500  0.75000000  1
  K  K5  1  0.57383600  0.95894500  0.25000000  1
  U  U6  1  0.75614300  0.75614300  0.00000000  1
  U  U7  1  0.00000000  0.24385700  0.00000000  1
  U  U8  1  0.24385700  0.00000000  0.50000000  1
  U  U9  1  0.24385700  0.00000000  0.00000000  1
  U  U10  1  0.75614300  0.75614300  0.50000000  1
  U  U11  1  0.00000000  0.24385700  0.50000000  1
  Si  Si12  1  0.33333333  0.66666667  0.55518800  1
  Si  Si13  1  0.66666667  0.33333333  0.05518800  1
  Si  Si14  1  0.33333333  0.66666667  0.94481200  1
  Si  Si15  1  0.66666667  0.33333333  0.44481200  1
  O  O16  1  0.00120200  0.25397200  0.25000000  1
  O  O17  1  0.32345700  0.82114300  0.00796200  1
  O  O18  1  0.32345700  0.82114300  0.49203800  1
  O  O19  1  0.00000000  0.80890850  0.00000000  1
  O  O20  1  0.25277000  0.99879800  0.25000000  1
  O  O21  1  0.80890850  0.00000000  0.50000000  1
  O  O22  1  0.50231400  0.17885700  0.50796200  1
  O  O23  1  0.00000000  0.80890850  0.50000000  1
  O  O24  1  0.67654300  0.49768600  0.99203800  1
  O  O25  1  0.82114300  0.32345700  0.99203800  1
  O  O26  1  0.49768600  0.67654300  0.00796200  1
  O  O27  1  0.80890850  0.00000000  0.00000000  1
  O  O28  1  0.49768600  0.67654300  0.49203800  1
  O  O29  1  0.17885700  0.50231400  0.00796200  1
  O  O30  1  0.74602800  0.74723000  0.25000000  1
  O  O31  1  0.19109150  0.19109150  0.00000000  1
  O  O32  1  0.82114300  0.32345700  0.50796200  1
  O  O33  1  0.25397200  0.00120200  0.75000000  1
  O  O34  1  0.99879800  0.25277000  0.75000000  1
  O  O35  1  0.67654300  0.49768600  0.50796200  1
  O  O36  1  0.50231400  0.17885700  0.99203800  1
  O  O37  1  0.74723000  0.74602800  0.75000000  1
  O  O38  1  0.19109150  0.19109150  0.50000000  1
  O  O39  1  0.17885700  0.50231400  0.49203800  1
  O  O40  1  0.66666667  0.33333333  0.25000000  1
  O  O41  1  0.33333333  0.66666667  0.75000000  1
