# generated using pymatgen
data_CsLa2CuSe4
_symmetry_space_group_name_H-M   'P 1'
_cell_length_a   4.34437200
_cell_length_b   15.17869600
_cell_length_c   14.89066300
_cell_angle_alpha   90.00000000
_cell_angle_beta   90.00000000
_cell_angle_gamma   90.00000000
_symmetry_Int_Tables_number   1
_chemical_formula_structural   CsLa2CuSe4
_chemical_formula_sum   'Cs4 La8 Cu4 Se16'
_cell_volume   981.91863876
_cell_formula_units_Z   4
loop_
 _symmetry_equiv_pos_site_id
 _symmetry_equiv_pos_as_xyz
  1  'x, y, z'
loop_
 _atom_site_type_symbol
 _atom_site_label
 _atom_site_symmetry_multiplicity
 _atom_site_fract_x
 _atom_site_fract_y
 _atom_site_fract_z
 _atom_site_occupancy
  Cs  Cs0  1  0.00000000  0.10535200  0.25000000  1
  Cs  Cs1  1  0.50000000  0.39464800  0.75000000  1
  Cs  Cs2  1  0.50000000  0.60535200  0.25000000  1
  Cs  Cs3  1  0.00000000  0.89464800  0.75000000  1
  La  La4  1  0.00000000  0.36536900  0.43903900  1
  La  La5  1  0.50000000  0.13463100  0.56096100  1
  La  La6  1  0.50000000  0.13463100  0.93903900  1
  La  La7  1  0.00000000  0.36536900  0.06096100  1
  La  La8  1  0.50000000  0.86536900  0.43903900  1
  La  La9  1  0.00000000  0.63463100  0.56096100  1
  La  La10  1  0.00000000  0.63463100  0.93903900  1
  La  La11  1  0.50000000  0.86536900  0.06096100  1
  Cu  Cu12  1  0.50000000  0.33463500  0.25000000  1
  Cu  Cu13  1  0.00000000  0.16536500  0.75000000  1
  Cu  Cu14  1  0.00000000  0.83463500  0.25000000  1
  Cu  Cu15  1  0.50000000  0.66536500  0.75000000  1
  Se  Se16  1  0.00000000  0.25903900  0.88803800  1
  Se  Se17  1  0.50000000  0.24096100  0.11196200  1
  Se  Se18  1  0.50000000  0.24096100  0.38803800  1
  Se  Se19  1  0.00000000  0.25903900  0.61196200  1
  Se  Se20  1  0.00000000  0.42048700  0.25000000  1
  Se  Se21  1  0.50000000  0.07951300  0.75000000  1
  Se  Se22  1  0.00000000  0.00000000  0.50000000  1
  Se  Se23  1  0.00000000  0.00000000  0.00000000  1
  Se  Se24  1  0.50000000  0.75903900  0.88803800  1
  Se  Se25  1  0.00000000  0.74096100  0.11196200  1
  Se  Se26  1  0.00000000  0.74096100  0.38803800  1
  Se  Se27  1  0.50000000  0.75903900  0.61196200  1
  Se  Se28  1  0.50000000  0.92048700  0.25000000  1
  Se  Se29  1  0.00000000  0.57951300  0.75000000  1
  Se  Se30  1  0.50000000  0.50000000  0.50000000  1
  Se  Se31  1  0.50000000  0.50000000  0.00000000  1
