# generated using pymatgen
data_SrLi2Nb2O7
_symmetry_space_group_name_H-M   'P 1'
_cell_length_a   5.67659800
_cell_length_b   18.33533400
_cell_length_c   5.66558300
_cell_angle_alpha   90.00000000
_cell_angle_beta   90.00000000
_cell_angle_gamma   90.00000000
_symmetry_Int_Tables_number   1
_chemical_formula_structural   SrLi2Nb2O7
_chemical_formula_sum   'Sr4 Li8 Nb8 O28'
_cell_volume   589.68702457
_cell_formula_units_Z   4
loop_
 _symmetry_equiv_pos_site_id
 _symmetry_equiv_pos_as_xyz
  1  'x, y, z'
loop_
 _atom_site_type_symbol
 _atom_site_label
 _atom_site_symmetry_multiplicity
 _atom_site_fract_x
 _atom_site_fract_y
 _atom_site_fract_z
 _atom_site_occupancy
  Sr  Sr0  1  0.74493800  0.00000000  0.25000000  1
  Sr  Sr1  1  0.25506200  0.00000000  0.75000000  1
  Sr  Sr2  1  0.24493800  0.50000000  0.25000000  1
  Sr  Sr3  1  0.75506200  0.50000000  0.75000000  1
  Li  Li4  1  0.50000000  0.23841600  0.00000000  1
  Li  Li5  1  0.00000000  0.26158400  0.00000000  1
  Li  Li6  1  0.00000000  0.26158400  0.50000000  1
  Li  Li7  1  0.50000000  0.23841600  0.50000000  1
  Li  Li8  1  0.00000000  0.73841600  0.00000000  1
  Li  Li9  1  0.50000000  0.76158400  0.00000000  1
  Li  Li10  1  0.50000000  0.76158400  0.50000000  1
  Li  Li11  1  0.00000000  0.73841600  0.50000000  1
  Nb  Nb12  1  0.25382450  0.38461250  0.75000000  1
  Nb  Nb13  1  0.74617550  0.38461250  0.25000000  1
  Nb  Nb14  1  0.24617550  0.11538750  0.25000000  1
  Nb  Nb15  1  0.75382450  0.11538750  0.75000000  1
  Nb  Nb16  1  0.75382450  0.88461250  0.75000000  1
  Nb  Nb17  1  0.24617550  0.88461250  0.25000000  1
  Nb  Nb18  1  0.74617550  0.61538750  0.25000000  1
  Nb  Nb19  1  0.25382450  0.61538750  0.75000000  1
  O  O20  1  0.00000000  0.38368800  0.00000000  1
  O  O21  1  0.00000000  0.09480200  0.50000000  1
  O  O22  1  0.50000000  0.11631200  0.50000000  1
  O  O23  1  0.21893300  0.21823100  0.25000000  1
  O  O24  1  0.70301600  0.00000000  0.75000000  1
  O  O25  1  0.00000000  0.09480200  0.00000000  1
  O  O26  1  0.00000000  0.38368800  0.50000000  1
  O  O27  1  0.78106700  0.21823100  0.75000000  1
  O  O28  1  0.29698400  0.00000000  0.25000000  1
  O  O29  1  0.71893300  0.28176900  0.25000000  1
  O  O30  1  0.50000000  0.11631200  0.00000000  1
  O  O31  1  0.28106700  0.28176900  0.75000000  1
  O  O32  1  0.50000000  0.40519800  0.00000000  1
  O  O33  1  0.50000000  0.40519800  0.50000000  1
  O  O34  1  0.50000000  0.88368800  0.00000000  1
  O  O35  1  0.50000000  0.59480200  0.50000000  1
  O  O36  1  0.00000000  0.61631200  0.50000000  1
  O  O37  1  0.71893300  0.71823100  0.25000000  1
  O  O38  1  0.20301600  0.50000000  0.75000000  1
  O  O39  1  0.50000000  0.59480200  0.00000000  1
  O  O40  1  0.50000000  0.88368800  0.50000000  1
  O  O41  1  0.28106700  0.71823100  0.75000000  1
  O  O42  1  0.79698400  0.50000000  0.25000000  1
  O  O43  1  0.21893300  0.78176900  0.25000000  1
  O  O44  1  0.00000000  0.61631200  0.00000000  1
  O  O45  1  0.78106700  0.78176900  0.75000000  1
  O  O46  1  0.00000000  0.90519800  0.00000000  1
  O  O47  1  0.00000000  0.90519800  0.50000000  1
