# generated using pymatgen
data_Na2MgH8(SO6)2
_symmetry_space_group_name_H-M   'P 1'
_cell_length_a   5.56310600
_cell_length_b   8.36560600
_cell_length_c   11.22432551
_cell_angle_alpha   90.00000000
_cell_angle_beta   100.31269445
_cell_angle_gamma   90.00000000
_symmetry_Int_Tables_number   1
_chemical_formula_structural   Na2MgH8(SO6)2
_chemical_formula_sum   'Na4 Mg2 H16 S4 O24'
_cell_volume   513.92749517
_cell_formula_units_Z   2
loop_
 _symmetry_equiv_pos_site_id
 _symmetry_equiv_pos_as_xyz
  1  'x, y, z'
loop_
 _atom_site_type_symbol
 _atom_site_label
 _atom_site_symmetry_multiplicity
 _atom_site_fract_x
 _atom_site_fract_y
 _atom_site_fract_z
 _atom_site_occupancy
  Na  Na0  1  0.12338000  0.57245000  0.86128900  1
  Na  Na1  1  0.12338000  0.92755000  0.36128900  1
  Na  Na2  1  0.87662000  0.07245000  0.63871100  1
  Na  Na3  1  0.87662000  0.42755000  0.13871100  1
  Mg  Mg4  1  0.00000000  0.00000000  0.00000000  1
  Mg  Mg5  1  0.00000000  0.50000000  0.50000000  1
  H  H6  1  0.23578500  0.55232300  0.31752400  1
  H  H7  1  0.23868900  0.22385700  0.51557700  1
  H  H8  1  0.22752000  0.13653500  0.84479000  1
  H  H9  1  0.23868900  0.27614300  0.01557700  1
  H  H10  1  0.77248000  0.63653500  0.65521000  1
  H  H11  1  0.33047300  0.30180500  0.64057400  1
  H  H12  1  0.76421500  0.44767700  0.68247600  1
  H  H13  1  0.76421500  0.05232300  0.18247600  1
  H  H14  1  0.76131100  0.77614300  0.48442300  1
  H  H15  1  0.23578500  0.94767700  0.81752400  1
  H  H16  1  0.33047300  0.19819500  0.14057400  1
  H  H17  1  0.66952700  0.80180500  0.85942600  1
  H  H18  1  0.66952700  0.69819500  0.35942600  1
  H  H19  1  0.76131100  0.72385700  0.98442300  1
  H  H20  1  0.22752000  0.36346500  0.34479000  1
  H  H21  1  0.77248000  0.86346500  0.15521000  1
  S  S22  1  0.37624400  0.79073100  0.63571600  1
  S  S23  1  0.62375600  0.20926900  0.36428400  1
  S  S24  1  0.37624400  0.70926900  0.13571600  1
  S  S25  1  0.62375600  0.29073100  0.86428400  1
  O  O26  1  0.21882500  0.57813400  0.07879200  1
  O  O27  1  0.63922300  0.82262200  0.62733000  1
  O  O28  1  0.87044000  0.53603200  0.66171300  1
  O  O29  1  0.78117500  0.07813400  0.42120800  1
  O  O30  1  0.12956000  0.03603200  0.83828700  1
  O  O31  1  0.36150700  0.77878400  0.76839900  1
  O  O32  1  0.63849300  0.22121600  0.23160100  1
  O  O33  1  0.36077700  0.32262200  0.87267000  1
  O  O34  1  0.36077700  0.17737800  0.37267000  1
  O  O35  1  0.63849300  0.27878400  0.73160100  1
  O  O36  1  0.87044000  0.96396800  0.16171300  1
  O  O37  1  0.63922300  0.67737800  0.12733000  1
  O  O38  1  0.78117500  0.42186600  0.92120800  1
  O  O39  1  0.21882500  0.92186600  0.57879200  1
  O  O40  1  0.69541200  0.13579000  0.92506500  1
  O  O41  1  0.12956000  0.46396800  0.33828700  1
  O  O42  1  0.18072900  0.28936400  0.57815400  1
  O  O43  1  0.36150700  0.72121600  0.26839900  1
  O  O44  1  0.81927100  0.78936400  0.92184600  1
  O  O45  1  0.81927100  0.71063600  0.42184600  1
  O  O46  1  0.69541200  0.36421000  0.42506500  1
  O  O47  1  0.30458800  0.63579000  0.57493500  1
  O  O48  1  0.30458800  0.86421000  0.07493500  1
  O  O49  1  0.18072900  0.21063600  0.07815400  1
