# generated using pymatgen
data_Cs2Cd3Te4
_symmetry_space_group_name_H-M   'P 1'
_cell_length_a   6.88900800
_cell_length_b   13.43410600
_cell_length_c   15.78537400
_cell_angle_alpha   90.00000000
_cell_angle_beta   90.00000000
_cell_angle_gamma   90.00000000
_symmetry_Int_Tables_number   1
_chemical_formula_structural   Cs2Cd3Te4
_chemical_formula_sum   'Cs8 Cd12 Te16'
_cell_volume   1460.89948444
_cell_formula_units_Z   4
loop_
 _symmetry_equiv_pos_site_id
 _symmetry_equiv_pos_as_xyz
  1  'x, y, z'
loop_
 _atom_site_type_symbol
 _atom_site_label
 _atom_site_symmetry_multiplicity
 _atom_site_fract_x
 _atom_site_fract_y
 _atom_site_fract_z
 _atom_site_occupancy
  Cs  Cs0  1  0.73151100  0.87727900  0.00000000  1
  Cs  Cs1  1  0.76848900  0.37727900  0.00000000  1
  Cs  Cs2  1  0.23151100  0.62272100  0.00000000  1
  Cs  Cs3  1  0.26848900  0.12272100  0.00000000  1
  Cs  Cs4  1  0.23151100  0.37727900  0.50000000  1
  Cs  Cs5  1  0.26848900  0.87727900  0.50000000  1
  Cs  Cs6  1  0.73151100  0.12272100  0.50000000  1
  Cs  Cs7  1  0.76848900  0.62272100  0.50000000  1
  Cd  Cd8  1  0.00000000  0.72801700  0.25000000  1
  Cd  Cd9  1  0.50000000  0.50000000  0.25000000  1
  Cd  Cd10  1  0.00000000  0.72801700  0.75000000  1
  Cd  Cd11  1  0.00000000  0.27198300  0.25000000  1
  Cd  Cd12  1  0.50000000  0.50000000  0.75000000  1
  Cd  Cd13  1  0.00000000  0.27198300  0.75000000  1
  Cd  Cd14  1  0.50000000  0.22801700  0.75000000  1
  Cd  Cd15  1  0.00000000  0.00000000  0.75000000  1
  Cd  Cd16  1  0.50000000  0.22801700  0.25000000  1
  Cd  Cd17  1  0.50000000  0.77198300  0.75000000  1
  Cd  Cd18  1  0.00000000  0.00000000  0.25000000  1
  Cd  Cd19  1  0.50000000  0.77198300  0.25000000  1
  Te  Te20  1  0.27589400  0.63134700  0.64236000  1
  Te  Te21  1  0.27589400  0.36865300  0.85764000  1
  Te  Te22  1  0.72410600  0.63134700  0.14236000  1
  Te  Te23  1  0.72410600  0.36865300  0.64236000  1
  Te  Te24  1  0.72410600  0.36865300  0.35764000  1
  Te  Te25  1  0.27589400  0.36865300  0.14236000  1
  Te  Te26  1  0.72410600  0.63134700  0.85764000  1
  Te  Te27  1  0.27589400  0.63134700  0.35764000  1
  Te  Te28  1  0.77589400  0.13134700  0.14236000  1
  Te  Te29  1  0.77589400  0.86865300  0.35764000  1
  Te  Te30  1  0.22410600  0.13134700  0.64236000  1
  Te  Te31  1  0.22410600  0.86865300  0.14236000  1
  Te  Te32  1  0.22410600  0.86865300  0.85764000  1
  Te  Te33  1  0.77589400  0.86865300  0.64236000  1
  Te  Te34  1  0.22410600  0.13134700  0.35764000  1
  Te  Te35  1  0.77589400  0.13134700  0.85764000  1
