# generated using pymatgen
data_Li6Br3N
_symmetry_space_group_name_H-M   'P 1'
_cell_length_a   11.52442800
_cell_length_b   11.61247400
_cell_length_c   22.78985800
_cell_angle_alpha   90.00000000
_cell_angle_beta   90.00000000
_cell_angle_gamma   90.00000000
_symmetry_Int_Tables_number   1
_chemical_formula_structural   Li6Br3N
_chemical_formula_sum   'Li96 Br48 N16'
_cell_volume   3049.90107308
_cell_formula_units_Z   16
loop_
 _symmetry_equiv_pos_site_id
 _symmetry_equiv_pos_as_xyz
  1  'x, y, z'
loop_
 _atom_site_type_symbol
 _atom_site_label
 _atom_site_symmetry_multiplicity
 _atom_site_fract_x
 _atom_site_fract_y
 _atom_site_fract_z
 _atom_site_occupancy
  Li  Li0  1  0.93348100  0.39390700  0.94190300  1
  Li  Li1  1  0.81753400  0.85598700  0.69308200  1
  Li  Li2  1  0.60672750  0.88711850  0.53515250  1
  Li  Li3  1  0.93348100  0.60609300  0.55809700  1
  Li  Li4  1  0.68246600  0.35598700  0.69308200  1
  Li  Li5  1  0.35286550  0.82186550  0.69248450  1
  Li  Li6  1  0.88746150  0.93341150  0.94604050  1
  Li  Li7  1  0.38746150  0.93341150  0.55395950  1
  Li  Li8  1  0.85286550  0.17813450  0.69248450  1
  Li  Li9  1  0.10672750  0.11288150  0.53515250  1
  Li  Li10  1  0.11253850  0.56658850  0.94604050  1
  Li  Li11  1  0.68246600  0.64401300  0.80691800  1
  Li  Li12  1  0.63454250  0.85868150  0.78004150  1
  Li  Li13  1  0.38746150  0.06658850  0.94604050  1
  Li  Li14  1  0.60672750  0.11288150  0.96484750  1
  Li  Li15  1  0.31753400  0.85598700  0.80691800  1
  Li  Li16  1  0.43348100  0.39390700  0.55809700  1
  Li  Li17  1  0.14713450  0.67813450  0.80751550  1
  Li  Li18  1  0.61253850  0.56658850  0.55395950  1
  Li  Li19  1  0.56651900  0.89390700  0.94190300  1
  Li  Li20  1  0.56651900  0.10609300  0.55809700  1
  Li  Li21  1  0.36545750  0.64131850  0.78004150  1
  Li  Li22  1  0.36545750  0.35868150  0.71995850  1
  Li  Li23  1  0.63454250  0.14131850  0.71995850  1
  Li  Li24  1  0.64713450  0.67813450  0.69248450  1
  Li  Li25  1  0.14713450  0.32186550  0.69248450  1
  Li  Li26  1  0.86545750  0.64131850  0.71995850  1
  Li  Li27  1  0.43348100  0.60609300  0.94190300  1
  Li  Li28  1  0.64713450  0.32186550  0.80751550  1
  Li  Li29  1  0.10672750  0.88711850  0.96484750  1
  Li  Li30  1  0.39327250  0.61288150  0.53515250  1
  Li  Li31  1  0.18246600  0.64401300  0.69308200  1
  Li  Li32  1  0.81753400  0.14401300  0.80691800  1
  Li  Li33  1  0.85286550  0.82186550  0.80751550  1
  Li  Li34  1  0.35286550  0.17813450  0.80751550  1
  Li  Li35  1  0.13454250  0.14131850  0.78004150  1
  Li  Li36  1  0.06651900  0.10609300  0.94190300  1
  Li  Li37  1  0.89327250  0.61288150  0.96484750  1
  Li  Li38  1  0.11253850  0.43341150  0.55395950  1
  Li  Li39  1  0.39327250  0.38711850  0.96484750  1
  Li  Li40  1  0.89327250  0.38711850  0.53515250  1
  Li  Li41  1  0.31753400  0.14401300  0.69308200  1
  Li  Li42  1  0.06651900  0.89390700  0.55809700  1
  Li  Li43  1  0.13454250  0.85868150  0.71995850  1
  Li  Li44  1  0.88746150  0.06658850  0.55395950  1
  Li  Li45  1  0.86545750  0.35868150  0.78004150  1
  Li  Li46  1  0.18246600  0.35598700  0.80691800  1
  Li  Li47  1  0.61253850  0.43341150  0.94604050  1
  Li  Li48  1  0.43348100  0.89390700  0.44190300  1
  Li  Li49  1  0.31753400  0.35598700  0.19308200  1
  Li  Li50  1  0.10672750  0.38711850  0.03515250  1
  Li  Li51  1  0.43348100  0.10609300  0.05809700  1
  Li  Li52  1  0.18246600  0.85598700  0.19308200  1
  Li  Li53  1  0.85286550  0.32186550  0.19248450  1
  Li  Li54  1  0.38746150  0.43341150  0.44604050  1
  Li  Li55  1  0.88746150  0.43341150  0.05395950  1
  Li  Li56  1  0.35286550  0.67813450  0.19248450  1
  Li  Li57  1  0.60672750  0.61288150  0.03515250  1
  Li  Li58  1  0.61253850  0.06658850  0.44604050  1
  Li  Li59  1  0.18246600  0.14401300  0.30691800  1
  Li  Li60  1  0.13454250  0.35868150  0.28004150  1
  Li  Li61  1  0.88746150  0.56658850  0.44604050  1
  Li  Li62  1  0.10672750  0.61288150  0.46484750  1
  Li  Li63  1  0.81753400  0.35598700  0.30691800  1
  Li  Li64  1  0.93348100  0.89390700  0.05809700  1
  Li  Li65  1  0.64713450  0.17813450  0.30751550  1
  Li  Li66  1  0.11253850  0.06658850  0.05395950  1
  Li  Li67  1  0.06651900  0.39390700  0.44190300  1
  Li  Li68  1  0.06651900  0.60609300  0.05809700  1
  Li  Li69  1  0.86545750  0.14131850  0.28004150  1
  Li  Li70  1  0.86545750  0.85868150  0.21995850  1
  Li  Li71  1  0.13454250  0.64131850  0.21995850  1
  Li  Li72  1  0.14713450  0.17813450  0.19248450  1
  Li  Li73  1  0.64713450  0.82186550  0.19248450  1
  Li  Li74  1  0.36545750  0.14131850  0.21995850  1
  Li  Li75  1  0.93348100  0.10609300  0.44190300  1
  Li  Li76  1  0.14713450  0.82186550  0.30751550  1
  Li  Li77  1  0.60672750  0.38711850  0.46484750  1
  Li  Li78  1  0.89327250  0.11288150  0.03515250  1
  Li  Li79  1  0.68246600  0.14401300  0.19308200  1
  Li  Li80  1  0.31753400  0.64401300  0.30691800  1
  Li  Li81  1  0.35286550  0.32186550  0.30751550  1
  Li  Li82  1  0.85286550  0.67813450  0.30751550  1
  Li  Li83  1  0.63454250  0.64131850  0.28004150  1
  Li  Li84  1  0.56651900  0.60609300  0.44190300  1
  Li  Li85  1  0.39327250  0.11288150  0.46484750  1
  Li  Li86  1  0.61253850  0.93341150  0.05395950  1
  Li  Li87  1  0.89327250  0.88711850  0.46484750  1
  Li  Li88  1  0.39327250  0.88711850  0.03515250  1
  Li  Li89  1  0.81753400  0.64401300  0.19308200  1
  Li  Li90  1  0.56651900  0.39390700  0.05809700  1
  Li  Li91  1  0.63454250  0.35868150  0.21995850  1
  Li  Li92  1  0.38746150  0.56658850  0.05395950  1
  Li  Li93  1  0.36545750  0.85868150  0.28004150  1
  Li  Li94  1  0.68246600  0.85598700  0.30691800  1
  Li  Li95  1  0.11253850  0.93341150  0.44604050  1
  Br  Br96  1  0.52904000  0.50000000  0.75000000  1
  Br  Br97  1  0.00000000  0.75000000  0.88582100  1
  Br  Br98  1  0.26799000  0.51114800  0.87282400  1
  Br  Br99  1  0.25000000  0.73028400  0.00000000  1
  Br  Br100  1  0.73201000  0.98885200  0.87282400  1
  Br  Br101  1  0.50000000  0.25000000  0.63683300  1
  Br  Br102  1  0.02904000  0.50000000  0.75000000  1
  Br  Br103  1  0.23201000  0.01114800  0.87282400  1
  Br  Br104  1  0.75000000  0.26971600  0.00000000  1
  Br  Br105  1  0.76799000  0.51114800  0.62717600  1
  Br  Br106  1  0.00000000  0.75000000  0.63683300  1
  Br  Br107  1  0.75000000  0.76971600  0.00000000  1
  Br  Br108  1  0.47096000  0.00000000  0.75000000  1
  Br  Br109  1  0.50000000  0.25000000  0.88582100  1
  Br  Br110  1  0.00000000  0.25000000  0.61417900  1
  Br  Br111  1  0.00000000  0.25000000  0.86316700  1
  Br  Br112  1  0.25000000  0.23028400  0.00000000  1
  Br  Br113  1  0.73201000  0.01114800  0.62717600  1
  Br  Br114  1  0.76799000  0.48885200  0.87282400  1
  Br  Br115  1  0.97096000  0.00000000  0.75000000  1
  Br  Br116  1  0.50000000  0.75000000  0.61417900  1
  Br  Br117  1  0.50000000  0.75000000  0.86316700  1
  Br  Br118  1  0.23201000  0.98885200  0.62717600  1
  Br  Br119  1  0.26799000  0.48885200  0.62717600  1
  Br  Br120  1  0.02904000  0.00000000  0.25000000  1
  Br  Br121  1  0.50000000  0.25000000  0.38582100  1
  Br  Br122  1  0.76799000  0.01114800  0.37282400  1
  Br  Br123  1  0.75000000  0.23028400  0.50000000  1
  Br  Br124  1  0.23201000  0.48885200  0.37282400  1
  Br  Br125  1  0.00000000  0.75000000  0.13683300  1
  Br  Br126  1  0.52904000  0.00000000  0.25000000  1
  Br  Br127  1  0.73201000  0.51114800  0.37282400  1
  Br  Br128  1  0.25000000  0.76971600  0.50000000  1
  Br  Br129  1  0.26799000  0.01114800  0.12717600  1
  Br  Br130  1  0.50000000  0.25000000  0.13683300  1
  Br  Br131  1  0.25000000  0.26971600  0.50000000  1
  Br  Br132  1  0.97096000  0.50000000  0.25000000  1
  Br  Br133  1  0.00000000  0.75000000  0.38582100  1
  Br  Br134  1  0.50000000  0.75000000  0.11417900  1
  Br  Br135  1  0.50000000  0.75000000  0.36316700  1
  Br  Br136  1  0.75000000  0.73028400  0.50000000  1
  Br  Br137  1  0.23201000  0.51114800  0.12717600  1
  Br  Br138  1  0.26799000  0.98885200  0.37282400  1
  Br  Br139  1  0.47096000  0.50000000  0.25000000  1
  Br  Br140  1  0.00000000  0.25000000  0.11417900  1
  Br  Br141  1  0.00000000  0.25000000  0.36316700  1
  Br  Br142  1  0.73201000  0.48885200  0.12717600  1
  Br  Br143  1  0.76799000  0.98885200  0.12717600  1
  N  N144  1  0.25000000  0.25000000  0.75000000  1
  N  N145  1  0.50000000  0.00000000  0.00000000  1
  N  N146  1  0.00000000  0.50000000  0.00000000  1
  N  N147  1  0.75000000  0.25000000  0.75000000  1
  N  N148  1  0.00000000  0.00000000  0.00000000  1
  N  N149  1  0.50000000  0.50000000  0.00000000  1
  N  N150  1  0.75000000  0.75000000  0.75000000  1
  N  N151  1  0.25000000  0.75000000  0.75000000  1
  N  N152  1  0.75000000  0.75000000  0.25000000  1
  N  N153  1  0.00000000  0.50000000  0.50000000  1
  N  N154  1  0.50000000  0.00000000  0.50000000  1
  N  N155  1  0.25000000  0.75000000  0.25000000  1
  N  N156  1  0.50000000  0.50000000  0.50000000  1
  N  N157  1  0.00000000  0.00000000  0.50000000  1
  N  N158  1  0.25000000  0.25000000  0.25000000  1
  N  N159  1  0.75000000  0.25000000  0.25000000  1
