# generated using pymatgen
data_U3O8
_symmetry_space_group_name_H-M   'P 1'
_cell_length_a   6.98435800
_cell_length_b   11.63237200
_cell_length_c   8.31849600
_cell_angle_alpha   90.00000000
_cell_angle_beta   90.00000000
_cell_angle_gamma   90.00000000
_symmetry_Int_Tables_number   1
_chemical_formula_structural   U3O8
_chemical_formula_sum   'U12 O32'
_cell_volume   675.83329968
_cell_formula_units_Z   4
loop_
 _symmetry_equiv_pos_site_id
 _symmetry_equiv_pos_as_xyz
  1  'x, y, z'
loop_
 _atom_site_type_symbol
 _atom_site_label
 _atom_site_symmetry_multiplicity
 _atom_site_fract_x
 _atom_site_fract_y
 _atom_site_fract_z
 _atom_site_occupancy
  U  U0  1  0.50408100  0.82011100  0.25000000  1
  U  U1  1  0.01060400  0.00000000  0.25000000  1
  U  U2  1  0.49591900  0.82011100  0.75000000  1
  U  U3  1  0.49591900  0.17988900  0.75000000  1
  U  U4  1  0.50408100  0.17988900  0.25000000  1
  U  U5  1  0.98939600  0.00000000  0.75000000  1
  U  U6  1  0.00408100  0.32011100  0.25000000  1
  U  U7  1  0.51060400  0.50000000  0.25000000  1
  U  U8  1  0.99591900  0.32011100  0.75000000  1
  U  U9  1  0.99591900  0.67988900  0.75000000  1
  U  U10  1  0.00408100  0.67988900  0.25000000  1
  U  U11  1  0.48939600  0.50000000  0.75000000  1
  O  O12  1  0.50000000  0.81825300  0.00000000  1
  O  O13  1  0.52738200  0.00000000  0.75000000  1
  O  O14  1  0.00000000  0.00000000  0.50000000  1
  O  O15  1  0.18237900  0.84511200  0.25000000  1
  O  O16  1  0.81762100  0.15488800  0.75000000  1
  O  O17  1  0.18237900  0.15488800  0.25000000  1
  O  O18  1  0.50000000  0.18174700  0.50000000  1
  O  O19  1  0.18626100  0.86130000  0.75000000  1
  O  O20  1  0.81373900  0.86130000  0.25000000  1
  O  O21  1  0.18626100  0.13870000  0.75000000  1
  O  O22  1  0.50000000  0.18174700  0.00000000  1
  O  O23  1  0.50000000  0.81825300  0.50000000  1
  O  O24  1  0.47261800  0.00000000  0.25000000  1
  O  O25  1  0.81373900  0.13870000  0.25000000  1
  O  O26  1  0.00000000  0.00000000  0.00000000  1
  O  O27  1  0.81762100  0.84511200  0.75000000  1
  O  O28  1  0.00000000  0.31825300  0.00000000  1
  O  O29  1  0.02738200  0.50000000  0.75000000  1
  O  O30  1  0.50000000  0.50000000  0.50000000  1
  O  O31  1  0.68237900  0.34511200  0.25000000  1
  O  O32  1  0.31762100  0.65488800  0.75000000  1
  O  O33  1  0.68237900  0.65488800  0.25000000  1
  O  O34  1  0.00000000  0.68174700  0.50000000  1
  O  O35  1  0.68626100  0.36130000  0.75000000  1
  O  O36  1  0.31373900  0.36130000  0.25000000  1
  O  O37  1  0.68626100  0.63870000  0.75000000  1
  O  O38  1  0.00000000  0.68174700  0.00000000  1
  O  O39  1  0.00000000  0.31825300  0.50000000  1
  O  O40  1  0.97261800  0.50000000  0.25000000  1
  O  O41  1  0.31373900  0.63870000  0.25000000  1
  O  O42  1  0.50000000  0.50000000  0.00000000  1
  O  O43  1  0.31762100  0.34511200  0.75000000  1
