# generated using pymatgen
data_Ba2AlCu2F11
_symmetry_space_group_name_H-M   'P 1'
_cell_length_a   7.41391771
_cell_length_b   7.41391771
_cell_length_c   14.37655300
_cell_angle_alpha   90.00000000
_cell_angle_beta   90.00000000
_cell_angle_gamma   120.00000000
_symmetry_Int_Tables_number   1
_chemical_formula_structural   Ba2AlCu2F11
_chemical_formula_sum   'Ba6 Al3 Cu6 F33'
_cell_volume   684.35418055
_cell_formula_units_Z   3
loop_
 _symmetry_equiv_pos_site_id
 _symmetry_equiv_pos_as_xyz
  1  'x, y, z'
loop_
 _atom_site_type_symbol
 _atom_site_label
 _atom_site_symmetry_multiplicity
 _atom_site_fract_x
 _atom_site_fract_y
 _atom_site_fract_z
 _atom_site_occupancy
  Ba  Ba0  1  0.86980500  0.85457100  0.66660300  1
  Ba  Ba1  1  0.50605900  0.16158100  0.80055200  1
  Ba  Ba2  1  0.98476600  0.13019500  0.99993633  1
  Ba  Ba3  1  0.83841900  0.34447800  0.46721867  1
  Ba  Ba4  1  0.65552200  0.49394100  0.13388533  1
  Ba  Ba5  1  0.14542900  0.01523400  0.33326967  1
  Al  Al6  1  0.50139900  0.67434800  0.87190300  1
  Al  Al7  1  0.17294900  0.49860100  0.20523633  1
  Al  Al8  1  0.32565200  0.82705100  0.53856967  1
  Cu  Cu9  1  0.97987200  0.66190000  0.89047900  1
  Cu  Cu10  1  0.12536500  0.43544700  0.72222300  1
  Cu  Cu11  1  0.56455300  0.68991800  0.38888967  1
  Cu  Cu12  1  0.68202800  0.02012800  0.22381233  1
  Cu  Cu13  1  0.31008200  0.87463500  0.05555633  1
  Cu  Cu14  1  0.33810000  0.31797200  0.55714567  1
  F  F15  1  0.01506300  0.75783300  0.02189200  1
  F  F16  1  0.83842800  0.37745400  0.92864300  1
  F  F17  1  0.74277000  0.98493700  0.35522533  1
  F  F18  1  0.42380200  0.08164500  0.48374200  1
  F  F19  1  0.85530400  0.91201300  0.18167200  1
  F  F20  1  0.23794700  0.29362300  0.17817800  1
  F  F21  1  0.91835500  0.34215700  0.15040867  1
  F  F22  1  0.70637700  0.94432400  0.84484467  1
  F  F23  1  0.05670900  0.14469600  0.51500533  1
  F  F24  1  0.59490100  0.00669600  0.09353400  1
  F  F25  1  0.65784300  0.57619800  0.81707533  1
  F  F26  1  0.24216700  0.25723000  0.68855867  1
  F  F27  1  0.62460100  0.69252800  0.98176600  1
  F  F28  1  0.36231400  0.14555100  0.02104300  1
  F  F29  1  0.06792700  0.37539900  0.31509933  1
  F  F30  1  0.62254600  0.46097400  0.59530967  1
  F  F31  1  0.34598100  0.78969300  0.90931600  1
  F  F32  1  0.41179500  0.40509900  0.42686733  1
  F  F33  1  0.33311900  0.73413300  0.41841800  1
  F  F34  1  0.30747200  0.93207300  0.64843267  1
  F  F35  1  0.40101400  0.66688100  0.75175133  1
  F  F36  1  0.85444900  0.21676300  0.68770967  1
  F  F37  1  0.78323700  0.63768600  0.35437633  1
  F  F38  1  0.44371200  0.65401900  0.24264933  1
  F  F39  1  0.99330400  0.58820500  0.76020067  1
  F  F40  1  0.08798700  0.94329100  0.84833867  1
  F  F41  1  0.53902600  0.16157200  0.26197633  1
  F  F42  1  0.28775000  0.41135000  0.88800600  1
  F  F43  1  0.12360000  0.71225000  0.22133933  1
  F  F44  1  0.26586700  0.59898600  0.08508467  1
  F  F45  1  0.05567600  0.76205300  0.51151133  1
  F  F46  1  0.21030700  0.55628800  0.57598267  1
  F  F47  1  0.58865000  0.87640000  0.55467267  1
