# generated using pymatgen
data_Ag3BiO3
_symmetry_space_group_name_H-M   'P 1'
_cell_length_a   14.46337400
_cell_length_b   14.46337400
_cell_length_c   8.90957000
_cell_angle_alpha   90.00000000
_cell_angle_beta   90.00000000
_cell_angle_gamma   90.00000000
_symmetry_Int_Tables_number   1
_chemical_formula_structural   Ag3BiO3
_chemical_formula_sum   'Ag48 Bi16 O48'
_cell_volume   1863.78570895
_cell_formula_units_Z   16
loop_
 _symmetry_equiv_pos_site_id
 _symmetry_equiv_pos_as_xyz
  1  'x, y, z'
loop_
 _atom_site_type_symbol
 _atom_site_label
 _atom_site_symmetry_multiplicity
 _atom_site_fract_x
 _atom_site_fract_y
 _atom_site_fract_z
 _atom_site_occupancy
  Ag  Ag0  1  0.78526400  0.84994800  0.13627300  1
  Ag  Ag1  1  0.09136850  0.94652050  0.60036650  1
  Ag  Ag2  1  0.56114350  0.58358550  0.40645350  1
  Ag  Ag3  1  0.69792400  0.14769400  0.61886700  1
  Ag  Ag4  1  0.50085800  0.27172800  0.63345000  1
  Ag  Ag5  1  0.21473600  0.15005200  0.13627300  1
  Ag  Ag6  1  0.58358550  0.93885650  0.15645350  1
  Ag  Ag7  1  0.91053550  0.97595050  0.26824150  1
  Ag  Ag8  1  0.41641450  0.06114350  0.15645350  1
  Ag  Ag9  1  0.35230600  0.69792400  0.86886700  1
  Ag  Ag10  1  0.27172800  0.99914200  0.38345000  1
  Ag  Ag11  1  0.52404950  0.91053550  0.51824150  1
  Ag  Ag12  1  0.43885650  0.41641450  0.40645350  1
  Ag  Ag13  1  0.08946450  0.02404950  0.26824150  1
  Ag  Ag14  1  0.72827200  0.00085800  0.38345000  1
  Ag  Ag15  1  0.55347950  0.09136850  0.85036650  1
  Ag  Ag16  1  0.34994800  0.21473600  0.38627300  1
  Ag  Ag17  1  0.90863150  0.05347950  0.60036650  1
  Ag  Ag18  1  0.49914200  0.72827200  0.63345000  1
  Ag  Ag19  1  0.44652050  0.90863150  0.85036650  1
  Ag  Ag20  1  0.30207600  0.85230600  0.61886700  1
  Ag  Ag21  1  0.65005200  0.78526400  0.38627300  1
  Ag  Ag22  1  0.64769400  0.30207600  0.86886700  1
  Ag  Ag23  1  0.47595050  0.08946450  0.51824150  1
  Ag  Ag24  1  0.28526400  0.34994800  0.63627300  1
  Ag  Ag25  1  0.59136850  0.44652050  0.10036650  1
  Ag  Ag26  1  0.06114350  0.08358550  0.90645350  1
  Ag  Ag27  1  0.19792400  0.64769400  0.11886700  1
  Ag  Ag28  1  0.00085800  0.77172800  0.13345000  1
  Ag  Ag29  1  0.71473600  0.65005200  0.63627300  1
  Ag  Ag30  1  0.08358550  0.43885650  0.65645350  1
  Ag  Ag31  1  0.41053550  0.47595050  0.76824150  1
  Ag  Ag32  1  0.91641450  0.56114350  0.65645350  1
  Ag  Ag33  1  0.85230600  0.19792400  0.36886700  1
  Ag  Ag34  1  0.77172800  0.49914200  0.88345000  1
  Ag  Ag35  1  0.02404950  0.41053550  0.01824150  1
  Ag  Ag36  1  0.93885650  0.91641450  0.90645350  1
  Ag  Ag37  1  0.58946450  0.52404950  0.76824150  1
  Ag  Ag38  1  0.22827200  0.50085800  0.88345000  1
  Ag  Ag39  1  0.05347950  0.59136850  0.35036650  1
  Ag  Ag40  1  0.84994800  0.71473600  0.88627300  1
  Ag  Ag41  1  0.40863150  0.55347950  0.10036650  1
  Ag  Ag42  1  0.99914200  0.22827200  0.13345000  1
  Ag  Ag43  1  0.94652050  0.40863150  0.35036650  1
  Ag  Ag44  1  0.80207600  0.35230600  0.11886700  1
  Ag  Ag45  1  0.15005200  0.28526400  0.88627300  1
  Ag  Ag46  1  0.14769400  0.80207600  0.36886700  1
  Ag  Ag47  1  0.97595050  0.58946450  0.01824150  1
  Bi  Bi48  1  0.40129200  0.28034900  0.00412100  1
  Bi  Bi49  1  0.59886300  0.22773700  0.25442700  1
  Bi  Bi50  1  0.71965100  0.90129200  0.75412100  1
  Bi  Bi51  1  0.22773700  0.90113700  0.00442700  1
  Bi  Bi52  1  0.77226300  0.09886300  0.00442700  1
  Bi  Bi53  1  0.40113700  0.77226300  0.25442700  1
  Bi  Bi54  1  0.28034900  0.09870800  0.75412100  1
  Bi  Bi55  1  0.59870800  0.71965100  0.00412100  1
  Bi  Bi56  1  0.90129200  0.78034900  0.50412100  1
  Bi  Bi57  1  0.09886300  0.72773700  0.75442700  1
  Bi  Bi58  1  0.21965100  0.40129200  0.25412100  1
  Bi  Bi59  1  0.72773700  0.40113700  0.50442700  1
  Bi  Bi60  1  0.27226300  0.59886300  0.50442700  1
  Bi  Bi61  1  0.90113700  0.27226300  0.75442700  1
  Bi  Bi62  1  0.78034900  0.59870800  0.25412100  1
  Bi  Bi63  1  0.09870800  0.21965100  0.50412100  1
  O  O64  1  0.70520800  0.95406800  0.01866400  1
  O  O65  1  0.62802300  0.25848200  0.50167100  1
  O  O66  1  0.37176200  0.25296300  0.75647500  1
  O  O67  1  0.78228300  0.04671800  0.73558000  1
  O  O68  1  0.74151800  0.12802300  0.25167100  1
  O  O69  1  0.59081700  0.96391300  0.71873600  1
  O  O70  1  0.54671800  0.21771700  0.98558000  1
  O  O71  1  0.54593200  0.70520800  0.26866400  1
  O  O72  1  0.37197700  0.74151800  0.50167100  1
  O  O73  1  0.62823800  0.74703700  0.75647500  1
  O  O74  1  0.45406800  0.29479200  0.26866400  1
  O  O75  1  0.53444400  0.09944900  0.29631700  1
  O  O76  1  0.09944900  0.96555600  0.04631700  1
  O  O77  1  0.25848200  0.87197700  0.25167100  1
  O  O78  1  0.46391300  0.40918300  0.96873600  1
  O  O79  1  0.21771700  0.95328200  0.73558000  1
  O  O80  1  0.53608700  0.59081700  0.96873600  1
  O  O81  1  0.45328200  0.78228300  0.98558000  1
  O  O82  1  0.90055100  0.03444400  0.04631700  1
  O  O83  1  0.29479200  0.04593200  0.01866400  1
  O  O84  1  0.46555600  0.90055100  0.29631700  1
  O  O85  1  0.40918300  0.03608700  0.71873600  1
  O  O86  1  0.25296300  0.12823800  0.50647500  1
  O  O87  1  0.74703700  0.87176200  0.50647500  1
  O  O88  1  0.20520800  0.45406800  0.51866400  1
  O  O89  1  0.12802300  0.75848200  0.00167100  1
  O  O90  1  0.87176200  0.75296300  0.25647500  1
  O  O91  1  0.28228300  0.54671800  0.23558000  1
  O  O92  1  0.24151800  0.62802300  0.75167100  1
  O  O93  1  0.09081700  0.46391300  0.21873600  1
  O  O94  1  0.04671800  0.71771700  0.48558000  1
  O  O95  1  0.04593200  0.20520800  0.76866400  1
  O  O96  1  0.87197700  0.24151800  0.00167100  1
  O  O97  1  0.12823800  0.24703700  0.25647500  1
  O  O98  1  0.95406800  0.79479200  0.76866400  1
  O  O99  1  0.03444400  0.59944900  0.79631700  1
  O  O100  1  0.59944900  0.46555600  0.54631700  1
  O  O101  1  0.75848200  0.37197700  0.75167100  1
  O  O102  1  0.96391300  0.90918300  0.46873600  1
  O  O103  1  0.71771700  0.45328200  0.23558000  1
  O  O104  1  0.03608700  0.09081700  0.46873600  1
  O  O105  1  0.95328200  0.28228300  0.48558000  1
  O  O106  1  0.40055100  0.53444400  0.54631700  1
  O  O107  1  0.79479200  0.54593200  0.51866400  1
  O  O108  1  0.96555600  0.40055100  0.79631700  1
  O  O109  1  0.90918300  0.53608700  0.21873600  1
  O  O110  1  0.75296300  0.62823800  0.00647500  1
  O  O111  1  0.24703700  0.37176200  0.00647500  1
