# generated using pymatgen
data_CdAg4Ge2S7
_symmetry_space_group_name_H-M   'P 1'
_cell_length_a   17.80967400
_cell_length_b   6.93321600
_cell_length_c   10.65016113
_cell_angle_alpha   90.00000000
_cell_angle_beta   93.22046449
_cell_angle_gamma   90.00000000
_symmetry_Int_Tables_number   1
_chemical_formula_structural   CdAg4Ge2S7
_chemical_formula_sum   'Cd4 Ag16 Ge8 S28'
_cell_volume   1312.98717139
_cell_formula_units_Z   4
loop_
 _symmetry_equiv_pos_site_id
 _symmetry_equiv_pos_as_xyz
  1  'x, y, z'
loop_
 _atom_site_type_symbol
 _atom_site_label
 _atom_site_symmetry_multiplicity
 _atom_site_fract_x
 _atom_site_fract_y
 _atom_site_fract_z
 _atom_site_occupancy
  Cd  Cd0  1  0.64963550  0.68024750  0.71048400  1
  Cd  Cd1  1  0.64963550  0.31975250  0.21048400  1
  Cd  Cd2  1  0.14963550  0.18024750  0.71048400  1
  Cd  Cd3  1  0.14963550  0.81975250  0.21048400  1
  Ag  Ag4  1  0.50469200  0.67987400  0.00029500  1
  Ag  Ag5  1  0.50469200  0.32012600  0.50029500  1
  Ag  Ag6  1  0.93651200  0.32313700  0.61383000  1
  Ag  Ag7  1  0.93651200  0.67686300  0.11383000  1
  Ag  Ag8  1  0.78896850  0.31923850  0.90239900  1
  Ag  Ag9  1  0.78896850  0.68076150  0.40239900  1
  Ag  Ag10  1  0.72374950  0.12104850  0.55490400  1
  Ag  Ag11  1  0.72374950  0.87895150  0.05490400  1
  Ag  Ag12  1  0.00469200  0.17987400  0.00029500  1
  Ag  Ag13  1  0.00469200  0.82012600  0.50029500  1
  Ag  Ag14  1  0.43651200  0.82313700  0.61383000  1
  Ag  Ag15  1  0.43651200  0.17686300  0.11383000  1
  Ag  Ag16  1  0.28896850  0.81923850  0.90239900  1
  Ag  Ag17  1  0.28896850  0.18076150  0.40239900  1
  Ag  Ag18  1  0.22374950  0.62104850  0.55490400  1
  Ag  Ag19  1  0.22374950  0.37895150  0.05490400  1
  Ge  Ge20  1  0.57238900  0.17472600  0.83134500  1
  Ge  Ge21  1  0.57238900  0.82527400  0.33134500  1
  Ge  Ge22  1  0.86222450  0.82731850  0.75617400  1
  Ge  Ge23  1  0.86222450  0.17268150  0.25617400  1
  Ge  Ge24  1  0.07238900  0.67472600  0.83134500  1
  Ge  Ge25  1  0.07238900  0.32527400  0.33134500  1
  Ge  Ge26  1  0.36222450  0.32731850  0.75617400  1
  Ge  Ge27  1  0.36222450  0.67268150  0.25617400  1
  S  S28  1  0.96897950  0.16553950  0.40412500  1
  S  S29  1  0.96897950  0.83446050  0.90412500  1
  S  S30  1  0.83371400  0.13359100  0.71626500  1
  S  S31  1  0.83371400  0.86640900  0.21626500  1
  S  S32  1  0.76874550  0.68479550  0.85852000  1
  S  S33  1  0.76874550  0.31520450  0.35852000  1
  S  S34  1  0.66498250  0.19907450  0.98327700  1
  S  S35  1  0.66498250  0.80092550  0.48327700  1
  S  S36  1  0.61504000  0.32183700  0.66101500  1
  S  S37  1  0.61504000  0.67816300  0.16101500  1
  S  S38  1  0.53926550  0.13453150  0.29664300  1
  S  S39  1  0.53926550  0.86546850  0.79664300  1
  S  S40  1  0.88860300  0.66943200  0.58392300  1
  S  S41  1  0.88860300  0.33056800  0.08392300  1
  S  S42  1  0.46897950  0.66553950  0.40412500  1
  S  S43  1  0.46897950  0.33446050  0.90412500  1
  S  S44  1  0.33371400  0.63359100  0.71626500  1
  S  S45  1  0.33371400  0.36640900  0.21626500  1
  S  S46  1  0.26874550  0.18479550  0.85852000  1
  S  S47  1  0.26874550  0.81520450  0.35852000  1
  S  S48  1  0.16498250  0.69907450  0.98327700  1
  S  S49  1  0.16498250  0.30092550  0.48327700  1
  S  S50  1  0.11504000  0.82183700  0.66101500  1
  S  S51  1  0.11504000  0.17816300  0.16101500  1
  S  S52  1  0.03926550  0.63453150  0.29664300  1
  S  S53  1  0.03926550  0.36546850  0.79664300  1
  S  S54  1  0.38860300  0.16943200  0.58392300  1
  S  S55  1  0.38860300  0.83056800  0.08392300  1
