# generated using pymatgen
data_Ba3SrTa2O9
_symmetry_space_group_name_H-M   'P 1'
_cell_length_a   6.09539018
_cell_length_b   6.09539018
_cell_length_c   15.99008700
_cell_angle_alpha   90.00000000
_cell_angle_beta   90.00000000
_cell_angle_gamma   120.00000000
_symmetry_Int_Tables_number   1
_chemical_formula_structural   Ba3SrTa2O9
_chemical_formula_sum   'Ba6 Sr2 Ta4 O18'
_cell_volume   514.49893528
_cell_formula_units_Z   2
loop_
 _symmetry_equiv_pos_site_id
 _symmetry_equiv_pos_as_xyz
  1  'x, y, z'
loop_
 _atom_site_type_symbol
 _atom_site_label
 _atom_site_symmetry_multiplicity
 _atom_site_fract_x
 _atom_site_fract_y
 _atom_site_fract_z
 _atom_site_occupancy
  Ba  Ba0  1  0.00000000  0.00000000  0.75000000  1
  Ba  Ba1  1  0.00000000  0.00000000  0.25000000  1
  Ba  Ba2  1  0.66666667  0.33333333  0.37656400  1
  Ba  Ba3  1  0.33333333  0.66666667  0.87656400  1
  Ba  Ba4  1  0.33333333  0.66666667  0.62343600  1
  Ba  Ba5  1  0.66666667  0.33333333  0.12343600  1
  Sr  Sr6  1  0.00000000  0.00000000  0.50000000  1
  Sr  Sr7  1  0.00000000  0.00000000  0.00000000  1
  Ta  Ta8  1  0.66666667  0.33333333  0.65634100  1
  Ta  Ta9  1  0.33333333  0.66666667  0.15634100  1
  Ta  Ta10  1  0.33333333  0.66666667  0.34365900  1
  Ta  Ta11  1  0.66666667  0.33333333  0.84365900  1
  O  O12  1  0.96401700  0.48200850  0.75000000  1
  O  O13  1  0.48200850  0.96401700  0.25000000  1
  O  O14  1  0.48200850  0.51799150  0.25000000  1
  O  O15  1  0.51799150  0.48200850  0.75000000  1
  O  O16  1  0.51799150  0.03598300  0.75000000  1
  O  O17  1  0.03598300  0.51799150  0.25000000  1
  O  O18  1  0.34710300  0.17355150  0.89850900  1
  O  O19  1  0.17355150  0.34710300  0.39850900  1
  O  O20  1  0.17355150  0.82644850  0.39850900  1
  O  O21  1  0.82644850  0.17355150  0.89850900  1
  O  O22  1  0.82644850  0.65289700  0.89850900  1
  O  O23  1  0.65289700  0.82644850  0.10149100  1
  O  O24  1  0.17355150  0.34710300  0.10149100  1
  O  O25  1  0.65289700  0.82644850  0.39850900  1
  O  O26  1  0.17355150  0.82644850  0.10149100  1
  O  O27  1  0.82644850  0.17355150  0.60149100  1
  O  O28  1  0.34710300  0.17355150  0.60149100  1
  O  O29  1  0.82644850  0.65289700  0.60149100  1
