# generated using pymatgen
data_AlPO4
_symmetry_space_group_name_H-M   'P 1'
_cell_length_a   8.61534700
_cell_length_b   14.08666800
_cell_length_c   24.27801900
_cell_angle_alpha   90.00000000
_cell_angle_beta   90.00000000
_cell_angle_gamma   90.00000000
_symmetry_Int_Tables_number   1
_chemical_formula_structural   AlPO4
_chemical_formula_sum   'Al24 P24 O96'
_cell_volume   2946.41760146
_cell_formula_units_Z   24
loop_
 _symmetry_equiv_pos_site_id
 _symmetry_equiv_pos_as_xyz
  1  'x, y, z'
loop_
 _atom_site_type_symbol
 _atom_site_label
 _atom_site_symmetry_multiplicity
 _atom_site_fract_x
 _atom_site_fract_y
 _atom_site_fract_z
 _atom_site_occupancy
  Al  Al0  1  0.42599200  0.21224600  0.33405200  1
  Al  Al1  1  0.92552700  0.38942200  0.05675500  1
  Al  Al2  1  0.92762300  0.21721700  0.66526000  1
  Al  Al3  1  0.42738000  0.89304400  0.22967300  1
  Al  Al4  1  0.42472400  0.40542100  0.93675100  1
  Al  Al5  1  0.92738000  0.39304400  0.27032700  1
  Al  Al6  1  0.92599200  0.71224600  0.16594800  1
  Al  Al7  1  0.92525700  0.10545400  0.23066800  1
  Al  Al8  1  0.42472400  0.59457900  0.06324900  1
  Al  Al9  1  0.92762300  0.78278300  0.33474000  1
  Al  Al10  1  0.42762300  0.71721700  0.83474000  1
  Al  Al11  1  0.42599200  0.78775400  0.66594800  1
  Al  Al12  1  0.92472400  0.09457900  0.43675100  1
  Al  Al13  1  0.92738000  0.60695600  0.72967300  1
  Al  Al14  1  0.42738000  0.10695600  0.77032700  1
  Al  Al15  1  0.92472400  0.90542100  0.56324900  1
  Al  Al16  1  0.42525700  0.60545400  0.26933200  1
  Al  Al17  1  0.42762300  0.28278300  0.16526000  1
  Al  Al18  1  0.92599200  0.28775400  0.83405200  1
  Al  Al19  1  0.42525700  0.39454600  0.73066800  1
  Al  Al20  1  0.92552700  0.61057800  0.94324500  1
  Al  Al21  1  0.42552700  0.88942200  0.44324500  1
  Al  Al22  1  0.42552700  0.11057800  0.55675500  1
  Al  Al23  1  0.92525700  0.89454600  0.76933200  1
  P  P24  1  0.04921000  0.10530800  0.77144400  1
  P  P25  1  0.54921000  0.60530800  0.72855600  1
  P  P26  1  0.05049400  0.21360800  0.33672800  1
  P  P27  1  0.05049400  0.78639200  0.66327200  1
  P  P28  1  0.54967000  0.10343900  0.22844200  1
  P  P29  1  0.05461400  0.59687800  0.06401200  1
  P  P30  1  0.55461400  0.90312200  0.56401200  1
  P  P31  1  0.54940700  0.78273900  0.33594100  1
  P  P32  1  0.05401100  0.88861400  0.44181600  1
  P  P33  1  0.04967000  0.60343900  0.27155800  1
  P  P34  1  0.55461400  0.09687800  0.43598800  1
  P  P35  1  0.04940700  0.71726100  0.83594100  1
  P  P36  1  0.04921000  0.89469200  0.22855600  1
  P  P37  1  0.04940700  0.28273900  0.16405900  1
  P  P38  1  0.55401100  0.61138600  0.94181600  1
  P  P39  1  0.55049400  0.28639200  0.83672800  1
  P  P40  1  0.54921000  0.39469200  0.27144400  1
  P  P41  1  0.05461400  0.40312200  0.93598800  1
  P  P42  1  0.54967000  0.89656100  0.77155800  1
  P  P43  1  0.55049400  0.71360800  0.16327200  1
  P  P44  1  0.05401100  0.11138600  0.55818400  1
  P  P45  1  0.55401100  0.38861400  0.05818400  1
  P  P46  1  0.04967000  0.39656100  0.72844200  1
  P  P47  1  0.54940700  0.21726100  0.66405900  1
  O  O48  1  0.52425900  0.13260300  0.49491800  1
  O  O49  1  0.48656000  0.49225400  0.28857000  1
  O  O50  1  0.48027200  0.31442300  0.89243100  1
  O  O51  1  0.47686100  0.68646000  0.32090500  1
  O  O52  1  0.22451800  0.39145300  0.74007100  1
  O  O53  1  0.96089600  0.12780000  0.50504100  1
  O  O54  1  0.72700800  0.62691300  0.95367300  1
  O  O55  1  0.47852200  0.63334900  0.78450400  1
  O  O56  1  0.02425900  0.36739700  0.99491800  1
  O  O57  1  0.97852200  0.13334900  0.71549600  1
  O  O58  1  0.49941900  0.31669000  0.10127200  1
  O  O59  1  0.98656000  0.00774600  0.78857000  1
  O  O60  1  0.00804300  0.67198400  0.31855200  1
  O  O61  1  0.50466500  0.67750300  0.68386800  1
  O  O62  1  0.51281000  0.82382400  0.60457000  1
  O  O63  1  0.22637000  0.27341800  0.16372200  1
  O  O64  1  0.99304700  0.31058800  0.10647500  1
  O  O65  1  0.99304700  0.68941200  0.89352500  1
  O  O66  1  0.52425900  0.86739700  0.50508200  1
  O  O67  1  0.00080100  0.35959200  0.20577600  1
  O  O68  1  0.72609700  0.39917500  0.26616700  1
  O  O69  1  0.97686100  0.18646000  0.17909500  1
  O  O70  1  0.50466500  0.32249700  0.31613200  1
  O  O71  1  0.72451800  0.89145300  0.75992900  1
  O  O72  1  0.00804300  0.32801600  0.68144800  1
  O  O73  1  0.22451800  0.60854700  0.25992900  1
  O  O74  1  0.50804300  0.82801600  0.81855200  1
  O  O75  1  0.97686100  0.81354000  0.82090500  1
  O  O76  1  0.01281000  0.67617600  0.10457000  1
  O  O77  1  0.01330400  0.86281700  0.70678500  1
  O  O78  1  0.72700800  0.37308700  0.04632700  1
  O  O79  1  0.72451800  0.10854700  0.24007100  1
  O  O80  1  0.02822100  0.99067400  0.42035500  1
  O  O81  1  0.72656100  0.27694600  0.84296400  1
  O  O82  1  0.22609700  0.10082500  0.76616700  1
  O  O83  1  0.00466500  0.17750300  0.81613200  1
  O  O84  1  0.99941900  0.81669000  0.39872800  1
  O  O85  1  0.96025000  0.37044800  0.78130500  1
  O  O86  1  0.46025000  0.87044800  0.71869500  1
  O  O87  1  0.72676600  0.07062300  0.42967600  1
  O  O88  1  0.72609700  0.60082500  0.73383300  1
  O  O89  1  0.49304700  0.18941200  0.60647500  1
  O  O90  1  0.22656100  0.22305400  0.34296400  1
  O  O91  1  0.96025000  0.62955200  0.21869500  1
  O  O92  1  0.45558900  0.99175700  0.57663600  1
  O  O93  1  0.49304700  0.81058800  0.39352500  1
  O  O94  1  0.47852200  0.36665100  0.21549600  1
  O  O95  1  0.98112700  0.69023300  0.67989900  1
  O  O96  1  0.99941900  0.18331000  0.60127200  1
  O  O97  1  0.01281000  0.32382400  0.89543000  1
  O  O98  1  0.00466500  0.82249700  0.18386800  1
  O  O99  1  0.95558900  0.50824300  0.07663600  1
  O  O100  1  0.50080100  0.85959200  0.29422400  1
  O  O101  1  0.22609700  0.89917500  0.23383300  1
  O  O102  1  0.46025000  0.12955200  0.28130500  1
  O  O103  1  0.72637000  0.22658200  0.66372200  1
  O  O104  1  0.00502100  0.49736000  0.71073400  1
  O  O105  1  0.52822100  0.50932600  0.92035500  1
  O  O106  1  0.51281000  0.17617600  0.39543000  1
  O  O107  1  0.50502100  0.99736000  0.78926600  1
  O  O108  1  0.45558900  0.00824300  0.42336400  1
  O  O109  1  0.50080100  0.14040800  0.70577600  1
  O  O110  1  0.22637000  0.72658200  0.83627800  1
  O  O111  1  0.49941900  0.68331000  0.89872800  1
  O  O112  1  0.52822100  0.49067400  0.07964500  1
  O  O113  1  0.98112700  0.30976700  0.32010100  1
  O  O114  1  0.00502100  0.50264000  0.28926600  1
  O  O115  1  0.48027200  0.68557700  0.10756900  1
  O  O116  1  0.22676600  0.57062300  0.07032400  1
  O  O117  1  0.48656000  0.50774600  0.71143000  1
  O  O118  1  0.97852200  0.86665100  0.28450400  1
  O  O119  1  0.98656000  0.99225400  0.21143000  1
  O  O120  1  0.51330400  0.36281700  0.79321500  1
  O  O121  1  0.48112700  0.80976700  0.17989900  1
  O  O122  1  0.98027200  0.81442300  0.60756900  1
  O  O123  1  0.50502100  0.00264000  0.21073400  1
  O  O124  1  0.46089600  0.37220000  0.00504100  1
  O  O125  1  0.02425900  0.63260300  0.00508200  1
  O  O126  1  0.22700800  0.87308700  0.45367300  1
  O  O127  1  0.72637000  0.77341800  0.33627800  1
  O  O128  1  0.51330400  0.63718300  0.20678500  1
  O  O129  1  0.46089600  0.62780000  0.99495900  1
  O  O130  1  0.48112700  0.19023300  0.82010100  1
  O  O131  1  0.22676600  0.42937700  0.92967600  1
  O  O132  1  0.00080100  0.64040800  0.79422400  1
  O  O133  1  0.02822100  0.00932600  0.57964500  1
  O  O134  1  0.22656100  0.77694600  0.65703600  1
  O  O135  1  0.47686100  0.31354000  0.67909500  1
  O  O136  1  0.96089600  0.87220000  0.49495900  1
  O  O137  1  0.01330400  0.13718300  0.29321500  1
  O  O138  1  0.50804300  0.17198400  0.18144800  1
  O  O139  1  0.98027200  0.18557700  0.39243100  1
  O  O140  1  0.95558900  0.49175700  0.92336400  1
  O  O141  1  0.72676600  0.92937700  0.57032400  1
  O  O142  1  0.72656100  0.72305400  0.15703600  1
  O  O143  1  0.22700800  0.12691300  0.54632700  1
