# generated using pymatgen
data_Sr3MoN4
_symmetry_space_group_name_H-M   'P 1'
_cell_length_a   17.97807600
_cell_length_b   10.37161400
_cell_length_c   9.97244818
_cell_angle_alpha   90.00000000
_cell_angle_beta   97.93704563
_cell_angle_gamma   90.00000000
_symmetry_Int_Tables_number   1
_chemical_formula_structural   Sr3MoN4
_chemical_formula_sum   'Sr36 Mo12 N48'
_cell_volume   1841.66619980
_cell_formula_units_Z   12
loop_
 _symmetry_equiv_pos_site_id
 _symmetry_equiv_pos_as_xyz
  1  'x, y, z'
loop_
 _atom_site_type_symbol
 _atom_site_label
 _atom_site_symmetry_multiplicity
 _atom_site_fract_x
 _atom_site_fract_y
 _atom_site_fract_z
 _atom_site_occupancy
  Sr  Sr0  1  0.68489500  0.96440000  0.29833700  1
  Sr  Sr1  1  0.52203900  0.83899700  0.08703900  1
  Sr  Sr2  1  0.65428100  0.26578100  0.09928000  1
  Sr  Sr3  1  0.81510500  0.53560000  0.70166300  1
  Sr  Sr4  1  0.81510500  0.46440000  0.20166300  1
  Sr  Sr5  1  0.97796100  0.33899700  0.41296100  1
  Sr  Sr6  1  0.68489500  0.03560000  0.79833700  1
  Sr  Sr7  1  0.84571900  0.23421900  0.90072000  1
  Sr  Sr8  1  0.82244900  0.87251000  0.04553400  1
  Sr  Sr9  1  0.00000000  0.01453700  0.75000000  1
  Sr  Sr10  1  0.97796100  0.66100300  0.91296100  1
  Sr  Sr11  1  0.00000000  0.98546300  0.25000000  1
  Sr  Sr12  1  0.82244900  0.12749000  0.54553400  1
  Sr  Sr13  1  0.52203900  0.16100300  0.58703900  1
  Sr  Sr14  1  0.67755100  0.62749000  0.95446600  1
  Sr  Sr15  1  0.65428100  0.73421900  0.59928000  1
  Sr  Sr16  1  0.84571900  0.76578100  0.40072000  1
  Sr  Sr17  1  0.67755100  0.37251000  0.45446600  1
  Sr  Sr18  1  0.18489500  0.46440000  0.29833700  1
  Sr  Sr19  1  0.02203900  0.33899700  0.08703900  1
  Sr  Sr20  1  0.15428100  0.76578100  0.09928000  1
  Sr  Sr21  1  0.31510500  0.03560000  0.70166300  1
  Sr  Sr22  1  0.31510500  0.96440000  0.20166300  1
  Sr  Sr23  1  0.47796100  0.83899700  0.41296100  1
  Sr  Sr24  1  0.18489500  0.53560000  0.79833700  1
  Sr  Sr25  1  0.34571900  0.73421900  0.90072000  1
  Sr  Sr26  1  0.32244900  0.37251000  0.04553400  1
  Sr  Sr27  1  0.50000000  0.51453700  0.75000000  1
  Sr  Sr28  1  0.47796100  0.16100300  0.91296100  1
  Sr  Sr29  1  0.50000000  0.48546300  0.25000000  1
  Sr  Sr30  1  0.32244900  0.62749000  0.54553400  1
  Sr  Sr31  1  0.02203900  0.66100300  0.58703900  1
  Sr  Sr32  1  0.17755100  0.12749000  0.95446600  1
  Sr  Sr33  1  0.15428100  0.23421900  0.59928000  1
  Sr  Sr34  1  0.34571900  0.26578100  0.40072000  1
  Sr  Sr35  1  0.17755100  0.87251000  0.45446600  1
  Mo  Mo36  1  0.67556400  0.64820500  0.28784600  1
  Mo  Mo37  1  0.67556400  0.35179500  0.78784600  1
  Mo  Mo38  1  0.00000000  0.33428500  0.75000000  1
  Mo  Mo39  1  0.00000000  0.66571500  0.25000000  1
  Mo  Mo40  1  0.82443600  0.85179500  0.71215400  1
  Mo  Mo41  1  0.82443600  0.14820500  0.21215400  1
  Mo  Mo42  1  0.17556400  0.14820500  0.28784600  1
  Mo  Mo43  1  0.17556400  0.85179500  0.78784600  1
  Mo  Mo44  1  0.50000000  0.83428500  0.75000000  1
  Mo  Mo45  1  0.50000000  0.16571500  0.25000000  1
  Mo  Mo46  1  0.32443600  0.35179500  0.71215400  1
  Mo  Mo47  1  0.32443600  0.64820500  0.21215400  1
  N  N48  1  0.90263800  0.74597600  0.66330500  1
  N  N49  1  0.76566100  0.75125100  0.81653900  1
  N  N50  1  0.94908600  0.77847900  0.12228800  1
  N  N51  1  0.76029700  0.90538000  0.55664400  1
  N  N52  1  0.55091400  0.72152100  0.87771200  1
  N  N53  1  0.73433900  0.74874900  0.18346100  1
  N  N54  1  0.86078800  0.00216200  0.30900900  1
  N  N55  1  0.93485600  0.56639600  0.34396700  1
  N  N56  1  0.76566100  0.24874900  0.31653900  1
  N  N57  1  0.93485600  0.43360400  0.84396700  1
  N  N58  1  0.59736200  0.24597600  0.83669500  1
  N  N59  1  0.55091400  0.27847900  0.37771200  1
  N  N60  1  0.56514400  0.06639600  0.15603300  1
  N  N61  1  0.73970300  0.59462000  0.44335600  1
  N  N62  1  0.90263800  0.25402400  0.16330500  1
  N  N63  1  0.63921200  0.49783800  0.69099100  1
  N  N64  1  0.76029700  0.09462000  0.05664400  1
  N  N65  1  0.56514400  0.93360400  0.65603300  1
  N  N66  1  0.86078800  0.99783800  0.80900900  1
  N  N67  1  0.73433900  0.25125100  0.68346100  1
  N  N68  1  0.63921200  0.50216200  0.19099100  1
  N  N69  1  0.73970300  0.40538000  0.94335600  1
  N  N70  1  0.59736200  0.75402400  0.33669500  1
  N  N71  1  0.94908600  0.22152100  0.62228800  1
  N  N72  1  0.40263800  0.24597600  0.66330500  1
  N  N73  1  0.26566100  0.25125100  0.81653900  1
  N  N74  1  0.44908600  0.27847900  0.12228800  1
  N  N75  1  0.26029700  0.40538000  0.55664400  1
  N  N76  1  0.05091400  0.22152100  0.87771200  1
  N  N77  1  0.23433900  0.24874900  0.18346100  1
  N  N78  1  0.36078800  0.50216200  0.30900900  1
  N  N79  1  0.43485600  0.06639600  0.34396700  1
  N  N80  1  0.26566100  0.74874900  0.31653900  1
  N  N81  1  0.43485600  0.93360400  0.84396700  1
  N  N82  1  0.09736200  0.74597600  0.83669500  1
  N  N83  1  0.05091400  0.77847900  0.37771200  1
  N  N84  1  0.06514400  0.56639600  0.15603300  1
  N  N85  1  0.23970300  0.09462000  0.44335600  1
  N  N86  1  0.40263800  0.75402400  0.16330500  1
  N  N87  1  0.13921200  0.99783800  0.69099100  1
  N  N88  1  0.26029700  0.59462000  0.05664400  1
  N  N89  1  0.06514400  0.43360400  0.65603300  1
  N  N90  1  0.36078800  0.49783800  0.80900900  1
  N  N91  1  0.23433900  0.75125100  0.68346100  1
  N  N92  1  0.13921200  0.00216200  0.19099100  1
  N  N93  1  0.23970300  0.90538000  0.94335600  1
  N  N94  1  0.09736200  0.25402400  0.33669500  1
  N  N95  1  0.44908600  0.72152100  0.62228800  1
