# generated using pymatgen
data_TbTaO4
_symmetry_space_group_name_H-M   'P 1'
_cell_length_a   7.09345800
_cell_length_b   11.10531400
_cell_length_c   5.12329714
_cell_angle_alpha   90.00000000
_cell_angle_beta   130.91999592
_cell_angle_gamma   90.00000000
_symmetry_Int_Tables_number   1
_chemical_formula_structural   TbTaO4
_chemical_formula_sum   'Tb4 Ta4 O16'
_cell_volume   304.96125217
_cell_formula_units_Z   4
loop_
 _symmetry_equiv_pos_site_id
 _symmetry_equiv_pos_as_xyz
  1  'x, y, z'
loop_
 _atom_site_type_symbol
 _atom_site_label
 _atom_site_symmetry_multiplicity
 _atom_site_fract_x
 _atom_site_fract_y
 _atom_site_fract_z
 _atom_site_occupancy
  Tb  Tb0  1  0.00000000  0.36961400  0.75000000  1
  Tb  Tb1  1  0.50000000  0.13038600  0.25000000  1
  Tb  Tb2  1  0.50000000  0.86961400  0.75000000  1
  Tb  Tb3  1  0.00000000  0.63038600  0.25000000  1
  Ta  Ta4  1  0.00000000  0.10360200  0.25000000  1
  Ta  Ta5  1  0.50000000  0.39639800  0.75000000  1
  Ta  Ta6  1  0.50000000  0.60360200  0.25000000  1
  Ta  Ta7  1  0.00000000  0.89639800  0.75000000  1
  O  O8  1  0.74447350  0.46817550  0.20652500  1
  O  O9  1  0.84172150  0.20972650  0.33888100  1
  O  O10  1  0.75552650  0.03182450  0.79347500  1
  O  O11  1  0.34172150  0.29027350  0.83888100  1
  O  O12  1  0.25552650  0.46817550  0.29347500  1
  O  O13  1  0.15827850  0.20972650  0.16111900  1
  O  O14  1  0.65827850  0.29027350  0.66111900  1
  O  O15  1  0.24447350  0.03182450  0.70652500  1
  O  O16  1  0.24447350  0.96817550  0.20652500  1
  O  O17  1  0.34172150  0.70972650  0.33888100  1
  O  O18  1  0.25552650  0.53182450  0.79347500  1
  O  O19  1  0.84172150  0.79027350  0.83888100  1
  O  O20  1  0.75552650  0.96817550  0.29347500  1
  O  O21  1  0.65827850  0.70972650  0.16111900  1
  O  O22  1  0.15827850  0.79027350  0.66111900  1
  O  O23  1  0.74447350  0.53182450  0.70652500  1
