# generated using pymatgen
data_Dy(PO3)3
_symmetry_space_group_name_H-M   'P 1'
_cell_length_a   14.44376000
_cell_length_b   6.91757000
_cell_length_c   10.26427004
_cell_angle_alpha   90.00000000
_cell_angle_beta   126.98479998
_cell_angle_gamma   90.00000000
_symmetry_Int_Tables_number   1
_chemical_formula_structural   Dy(PO3)3
_chemical_formula_sum   'Dy4 P12 O36'
_cell_volume   819.21389123
_cell_formula_units_Z   4
loop_
 _symmetry_equiv_pos_site_id
 _symmetry_equiv_pos_as_xyz
  1  'x, y, z'
loop_
 _atom_site_type_symbol
 _atom_site_label
 _atom_site_symmetry_multiplicity
 _atom_site_fract_x
 _atom_site_fract_y
 _atom_site_fract_z
 _atom_site_occupancy
  Dy  Dy0  1  0.55253500  0.24144800  0.75438600  1
  Dy  Dy1  1  0.55253500  0.75855200  0.25438600  1
  Dy  Dy2  1  0.05253500  0.74144800  0.75438600  1
  Dy  Dy3  1  0.05253500  0.25855200  0.25438600  1
  P  P4  1  0.71263950  0.10083850  0.59588400  1
  P  P5  1  0.79729700  0.57988200  0.98754800  1
  P  P6  1  0.90668600  0.89869900  0.92108600  1
  P  P7  1  0.21263950  0.39916150  0.09588400  1
  P  P8  1  0.29729700  0.92011800  0.48754800  1
  P  P9  1  0.40668600  0.60130100  0.42108600  1
  P  P10  1  0.21263950  0.60083850  0.59588400  1
  P  P11  1  0.29729700  0.07988200  0.98754800  1
  P  P12  1  0.40668600  0.39869900  0.92108600  1
  P  P13  1  0.71263950  0.89916150  0.09588400  1
  P  P14  1  0.79729700  0.42011800  0.48754800  1
  P  P15  1  0.90668600  0.10130100  0.42108600  1
  O  O16  1  0.32859000  0.48302400  0.25582000  1
  O  O17  1  0.67368450  0.97505050  0.45232600  1
  O  O18  1  0.76690450  0.29954550  0.59001100  1
  O  O19  1  0.81450150  0.73710750  0.88892200  1
  O  O20  1  0.12574350  0.35299250  0.12581000  1
  O  O21  1  0.67368450  0.02494950  0.95232600  1
  O  O22  1  0.69263850  0.46405750  0.86324700  1
  O  O23  1  0.50017550  0.69216950  0.41883700  1
  O  O24  1  0.62574350  0.14700750  0.62581000  1
  O  O25  1  0.44158200  0.52382300  0.06341500  1
  O  O26  1  0.40862250  0.97476250  0.10760800  1
  O  O27  1  0.19263850  0.03594250  0.36324700  1
  O  O28  1  0.50017550  0.30783050  0.91883700  1
  O  O29  1  0.40862250  0.02523750  0.60760800  1
  O  O30  1  0.82859000  0.01697600  0.75582000  1
  O  O31  1  0.44158200  0.47617700  0.56341500  1
  O  O32  1  0.31450150  0.76289250  0.38892200  1
  O  O33  1  0.26690450  0.20045450  0.09001100  1
  O  O34  1  0.82859000  0.98302400  0.25582000  1
  O  O35  1  0.17368450  0.47505050  0.45232600  1
  O  O36  1  0.26690450  0.79954550  0.59001100  1
  O  O37  1  0.31450150  0.23710750  0.88892200  1
  O  O38  1  0.62574350  0.85299250  0.12581000  1
  O  O39  1  0.17368450  0.52494950  0.95232600  1
  O  O40  1  0.19263850  0.96405750  0.86324700  1
  O  O41  1  0.00017550  0.19216950  0.41883700  1
  O  O42  1  0.12574350  0.64700750  0.62581000  1
  O  O43  1  0.94158200  0.02382300  0.06341500  1
  O  O44  1  0.90862250  0.47476250  0.10760800  1
  O  O45  1  0.69263850  0.53594250  0.36324700  1
  O  O46  1  0.00017550  0.80783050  0.91883700  1
  O  O47  1  0.90862250  0.52523750  0.60760800  1
  O  O48  1  0.32859000  0.51697600  0.75582000  1
  O  O49  1  0.94158200  0.97617700  0.56341500  1
  O  O50  1  0.81450150  0.26289250  0.38892200  1
  O  O51  1  0.76690450  0.70045450  0.09001100  1
