# generated using pymatgen
data_K2Nd2IrO7
_symmetry_space_group_name_H-M   'P 1'
_cell_length_a   5.77163623
_cell_length_b   5.77163623
_cell_length_c   38.26856067
_cell_angle_alpha   90.00000000
_cell_angle_beta   90.00000000
_cell_angle_gamma   120.00000000
_symmetry_Int_Tables_number   1
_chemical_formula_structural   K2Nd2IrO7
_chemical_formula_sum   'K12 Nd12 Ir6 O42'
_cell_volume   1104.00403930
_cell_formula_units_Z   6
loop_
 _symmetry_equiv_pos_site_id
 _symmetry_equiv_pos_as_xyz
  1  'x, y, z'
loop_
 _atom_site_type_symbol
 _atom_site_label
 _atom_site_symmetry_multiplicity
 _atom_site_fract_x
 _atom_site_fract_y
 _atom_site_fract_z
 _atom_site_occupancy
  K  K0  1  0.66666667  0.33333333  0.24621233  1
  K  K1  1  0.00000000  0.00000000  0.08712100  1
  K  K2  1  0.33333333  0.66666667  0.25378767  1
  K  K3  1  0.33333333  0.66666667  0.07954567  1
  K  K4  1  0.33333333  0.66666667  0.57954567  1
  K  K5  1  0.66666667  0.33333333  0.42045433  1
  K  K6  1  0.00000000  0.00000000  0.58712100  1
  K  K7  1  0.00000000  0.00000000  0.41287900  1
  K  K8  1  0.00000000  0.00000000  0.91287900  1
  K  K9  1  0.33333333  0.66666667  0.75378767  1
  K  K10  1  0.66666667  0.33333333  0.92045433  1
  K  K11  1  0.66666667  0.33333333  0.74621233  1
  Nd  Nd12  1  0.00000000  0.00000000  0.30921100  1
  Nd  Nd13  1  0.00000000  0.00000000  0.19078900  1
  Nd  Nd14  1  0.66666667  0.33333333  0.14254433  1
  Nd  Nd15  1  0.66666667  0.33333333  0.02412233  1
  Nd  Nd16  1  0.66666667  0.33333333  0.64254433  1
  Nd  Nd17  1  0.66666667  0.33333333  0.52412233  1
  Nd  Nd18  1  0.33333333  0.66666667  0.47587767  1
  Nd  Nd19  1  0.33333333  0.66666667  0.35745567  1
  Nd  Nd20  1  0.33333333  0.66666667  0.97587767  1
  Nd  Nd21  1  0.33333333  0.66666667  0.85745567  1
  Nd  Nd22  1  0.00000000  0.00000000  0.80921100  1
  Nd  Nd23  1  0.00000000  0.00000000  0.69078900  1
  Ir  Ir24  1  0.33333333  0.66666667  0.16666667  1
  Ir  Ir25  1  0.00000000  0.00000000  0.00000000  1
  Ir  Ir26  1  1.00000000  0.00000000  0.50000000  1
  Ir  Ir27  1  0.66666667  0.33333333  0.33333333  1
  Ir  Ir28  1  0.66666667  0.33333333  0.83333333  1
  Ir  Ir29  1  0.33333333  0.66666667  0.66666667  1
  O  O30  1  0.42252433  0.40684267  0.30609467  1
  O  O31  1  0.40684267  0.42252433  0.19390533  1
  O  O32  1  0.07350933  0.31765167  0.02723867  1
  O  O33  1  0.25982400  0.91080900  0.13942800  1
  O  O34  1  0.65098500  0.74017600  0.13942800  1
  O  O35  1  0.68234833  0.75585767  0.02723867  1
  O  O36  1  0.57747567  0.98431833  0.19390533  1
  O  O37  1  0.24414233  0.92649067  0.02723867  1
  O  O38  1  0.59315733  0.01568167  0.30609467  1
  O  O39  1  0.98431833  0.57747567  0.30609467  1
  O  O40  1  0.66666667  0.33333333  0.08333333  1
  O  O41  1  0.08919100  0.34901500  0.13942800  1
  O  O42  1  0.00000000  0.00000000  0.25000000  1
  O  O43  1  0.01568167  0.59315733  0.19390533  1
  O  O44  1  0.08919100  0.74017600  0.63942800  1
  O  O45  1  0.07350933  0.75585767  0.52723867  1
  O  O46  1  0.74017600  0.65098500  0.36057200  1
  O  O47  1  0.92649067  0.24414233  0.47276133  1
  O  O48  1  0.31765167  0.07350933  0.47276133  1
  O  O49  1  0.34901500  0.08919100  0.36057200  1
  O  O50  1  0.24414233  0.31765167  0.52723867  1
  O  O51  1  0.91080900  0.25982400  0.36057200  1
  O  O52  1  0.25982400  0.34901500  0.63942800  1
  O  O53  1  0.65098500  0.91080900  0.63942800  1
  O  O54  1  0.33333333  0.66666667  0.41666667  1
  O  O55  1  0.75585767  0.68234833  0.47276133  1
  O  O56  1  0.66666667  0.33333333  0.58333333  1
  O  O57  1  0.68234833  0.92649067  0.52723867  1
  O  O58  1  0.75585767  0.07350933  0.97276133  1
  O  O59  1  0.74017600  0.08919100  0.86057200  1
  O  O60  1  0.40684267  0.98431833  0.69390533  1
  O  O61  1  0.59315733  0.57747567  0.80609467  1
  O  O62  1  0.98431833  0.40684267  0.80609467  1
  O  O63  1  0.01568167  0.42252433  0.69390533  1
  O  O64  1  0.91080900  0.65098500  0.86057200  1
  O  O65  1  0.57747567  0.59315733  0.69390533  1
  O  O66  1  0.92649067  0.68234833  0.97276133  1
  O  O67  1  0.31765167  0.24414233  0.97276133  1
  O  O68  1  0.00000000  0.00000000  0.75000000  1
  O  O69  1  0.42252433  0.01568167  0.80609467  1
  O  O70  1  0.33333333  0.66666667  0.91666667  1
  O  O71  1  0.34901500  0.25982400  0.86057200  1
