# generated using pymatgen
data_RbGaS2
_symmetry_space_group_name_H-M   'P 1'
_cell_length_a   10.67290600
_cell_length_b   10.66484800
_cell_length_c   15.64164881
_cell_angle_alpha   90.00000000
_cell_angle_beta   99.82511033
_cell_angle_gamma   90.00000000
_symmetry_Int_Tables_number   1
_chemical_formula_structural   RbGaS2
_chemical_formula_sum   'Rb16 Ga16 S32'
_cell_volume   1754.29653293
_cell_formula_units_Z   16
loop_
 _symmetry_equiv_pos_site_id
 _symmetry_equiv_pos_as_xyz
  1  'x, y, z'
loop_
 _atom_site_type_symbol
 _atom_site_label
 _atom_site_symmetry_multiplicity
 _atom_site_fract_x
 _atom_site_fract_y
 _atom_site_fract_z
 _atom_site_occupancy
  Rb  Rb0  1  0.21420350  0.93820450  0.60559600  1
  Rb  Rb1  1  0.21420350  0.06179550  0.10559600  1
  Rb  Rb2  1  0.78579650  0.06179550  0.39440400  1
  Rb  Rb3  1  0.53653300  0.81253800  0.39382800  1
  Rb  Rb4  1  0.46346700  0.81253800  0.10617200  1
  Rb  Rb5  1  0.46346700  0.18746200  0.60617200  1
  Rb  Rb6  1  0.53653300  0.18746200  0.89382800  1
  Rb  Rb7  1  0.78579650  0.93820450  0.89440400  1
  Rb  Rb8  1  0.71420350  0.43820450  0.60559600  1
  Rb  Rb9  1  0.71420350  0.56179550  0.10559600  1
  Rb  Rb10  1  0.28579650  0.56179550  0.39440400  1
  Rb  Rb11  1  0.03653300  0.31253800  0.39382800  1
  Rb  Rb12  1  0.96346700  0.31253800  0.10617200  1
  Rb  Rb13  1  0.96346700  0.68746200  0.60617200  1
  Rb  Rb14  1  0.03653300  0.68746200  0.89382800  1
  Rb  Rb15  1  0.28579650  0.43820450  0.89440400  1
  Ga  Ga16  1  0.39739000  0.81071900  0.83203500  1
  Ga  Ga17  1  0.60261000  0.18928100  0.16796500  1
  Ga  Ga18  1  0.39739000  0.18928100  0.33203500  1
  Ga  Ga19  1  0.85649300  0.93564500  0.16771900  1
  Ga  Ga20  1  0.14350700  0.93564500  0.33228100  1
  Ga  Ga21  1  0.85649300  0.06435500  0.66771900  1
  Ga  Ga22  1  0.14350700  0.06435500  0.83228100  1
  Ga  Ga23  1  0.60261000  0.81071900  0.66796500  1
  Ga  Ga24  1  0.89739000  0.31071900  0.83203500  1
  Ga  Ga25  1  0.10261000  0.68928100  0.16796500  1
  Ga  Ga26  1  0.89739000  0.68928100  0.33203500  1
  Ga  Ga27  1  0.35649300  0.43564500  0.16771900  1
  Ga  Ga28  1  0.64350700  0.43564500  0.33228100  1
  Ga  Ga29  1  0.35649300  0.56435500  0.66771900  1
  Ga  Ga30  1  0.64350700  0.56435500  0.83228100  1
  Ga  Ga31  1  0.10261000  0.31071900  0.66796500  1
  S  S32  1  0.50000000  0.56601500  0.25000000  1
  S  S33  1  0.45687800  0.68773000  0.57658700  1
  S  S34  1  0.45687800  0.31227000  0.07658700  1
  S  S35  1  0.54312200  0.31227000  0.42341300  1
  S  S36  1  0.70780850  0.06281250  0.08061600  1
  S  S37  1  0.74662800  0.81232100  0.24968400  1
  S  S38  1  0.25337200  0.81232100  0.25031600  1
  S  S39  1  0.54312200  0.68773000  0.92341300  1
  S  S40  1  0.25337200  0.18767900  0.75031600  1
  S  S41  1  0.29219150  0.93718750  0.91938400  1
  S  S42  1  0.29219150  0.06281250  0.41938400  1
  S  S43  1  0.50000000  0.43398500  0.75000000  1
  S  S44  1  0.74662800  0.18767900  0.74968400  1
  S  S45  1  0.70780850  0.93718750  0.58061600  1
  S  S46  1  0.50000000  0.94126800  0.75000000  1
  S  S47  1  0.50000000  0.05873200  0.25000000  1
  S  S48  1  0.00000000  0.06601500  0.25000000  1
  S  S49  1  0.95687800  0.18773000  0.57658700  1
  S  S50  1  0.95687800  0.81227000  0.07658700  1
  S  S51  1  0.04312200  0.81227000  0.42341300  1
  S  S52  1  0.20780850  0.56281250  0.08061600  1
  S  S53  1  0.24662800  0.31232100  0.24968400  1
  S  S54  1  0.75337200  0.31232100  0.25031600  1
  S  S55  1  0.04312200  0.18773000  0.92341300  1
  S  S56  1  0.75337200  0.68767900  0.75031600  1
  S  S57  1  0.79219150  0.43718750  0.91938400  1
  S  S58  1  0.79219150  0.56281250  0.41938400  1
  S  S59  1  0.00000000  0.93398500  0.75000000  1
  S  S60  1  0.24662800  0.68767900  0.74968400  1
  S  S61  1  0.20780850  0.43718750  0.58061600  1
  S  S62  1  0.00000000  0.44126800  0.75000000  1
  S  S63  1  0.00000000  0.55873200  0.25000000  1
