# generated using pymatgen
data_Tb5Se2Cl3O10
_symmetry_space_group_name_H-M   'P 1'
_cell_length_a   12.28238800
_cell_length_b   5.50994800
_cell_length_c   9.90766473
_cell_angle_alpha   90.00000000
_cell_angle_beta   90.99126297
_cell_angle_gamma   90.00000000
_symmetry_Int_Tables_number   1
_chemical_formula_structural   Tb5Se2Cl3O10
_chemical_formula_sum   'Tb10 Se4 Cl6 O20'
_cell_volume   670.40402886
_cell_formula_units_Z   2
loop_
 _symmetry_equiv_pos_site_id
 _symmetry_equiv_pos_as_xyz
  1  'x, y, z'
loop_
 _atom_site_type_symbol
 _atom_site_label
 _atom_site_symmetry_multiplicity
 _atom_site_fract_x
 _atom_site_fract_y
 _atom_site_fract_z
 _atom_site_occupancy
  Tb  Tb0  1  0.78629500  0.00000000  0.89678300  1
  Tb  Tb1  1  0.59872100  0.50000000  0.76570300  1
  Tb  Tb2  1  0.90127900  0.00000000  0.23429700  1
  Tb  Tb3  1  0.00000000  0.50000000  0.00000000  1
  Tb  Tb4  1  0.71370500  0.50000000  0.10321700  1
  Tb  Tb5  1  0.28629500  0.50000000  0.89678300  1
  Tb  Tb6  1  0.09872100  0.00000000  0.76570300  1
  Tb  Tb7  1  0.40127900  0.50000000  0.23429700  1
  Tb  Tb8  1  0.50000000  0.00000000  0.00000000  1
  Tb  Tb9  1  0.21370500  0.00000000  0.10321700  1
  Se  Se10  1  0.59239000  0.00000000  0.31614100  1
  Se  Se11  1  0.90761000  0.50000000  0.68385900  1
  Se  Se12  1  0.09239000  0.50000000  0.31614100  1
  Se  Se13  1  0.40761000  0.00000000  0.68385900  1
  Cl  Cl14  1  0.83658400  0.50000000  0.35047500  1
  Cl  Cl15  1  0.66341600  0.00000000  0.64952500  1
  Cl  Cl16  1  0.00000000  0.00000000  0.50000000  1
  Cl  Cl17  1  0.33658400  0.00000000  0.35047500  1
  Cl  Cl18  1  0.16341600  0.50000000  0.64952500  1
  Cl  Cl19  1  0.50000000  0.50000000  0.50000000  1
  O  O20  1  0.85580900  0.24580300  0.05882800  1
  O  O21  1  0.94430650  0.73874850  0.79582000  1
  O  O22  1  0.94430650  0.26125150  0.79582000  1
  O  O23  1  0.64419100  0.74580300  0.94117200  1
  O  O24  1  0.55569350  0.23874850  0.20418000  1
  O  O25  1  0.64419100  0.25419700  0.94117200  1
  O  O26  1  0.55569350  0.76125150  0.20418000  1
  O  O27  1  0.77336000  0.50000000  0.71590000  1
  O  O28  1  0.72664000  0.00000000  0.28410000  1
  O  O29  1  0.85580900  0.75419700  0.05882800  1
  O  O30  1  0.35580900  0.74580300  0.05882800  1
  O  O31  1  0.44430650  0.23874850  0.79582000  1
  O  O32  1  0.44430650  0.76125150  0.79582000  1
  O  O33  1  0.14419100  0.24580300  0.94117200  1
  O  O34  1  0.05569350  0.73874850  0.20418000  1
  O  O35  1  0.14419100  0.75419700  0.94117200  1
  O  O36  1  0.05569350  0.26125150  0.20418000  1
  O  O37  1  0.27336000  0.00000000  0.71590000  1
  O  O38  1  0.22664000  0.50000000  0.28410000  1
  O  O39  1  0.35580900  0.25419700  0.05882800  1
