# generated using pymatgen
data_RbCrCl3
_symmetry_space_group_name_H-M   'P 1'
_cell_length_a   12.46901800
_cell_length_b   7.14408400
_cell_length_c   12.82195607
_cell_angle_alpha   90.00000000
_cell_angle_beta   92.76459580
_cell_angle_gamma   90.00000000
_symmetry_Int_Tables_number   1
_chemical_formula_structural   RbCrCl3
_chemical_formula_sum   'Rb8 Cr8 Cl24'
_cell_volume   1140.84681108
_cell_formula_units_Z   8
loop_
 _symmetry_equiv_pos_site_id
 _symmetry_equiv_pos_as_xyz
  1  'x, y, z'
loop_
 _atom_site_type_symbol
 _atom_site_label
 _atom_site_symmetry_multiplicity
 _atom_site_fract_x
 _atom_site_fract_y
 _atom_site_fract_z
 _atom_site_occupancy
  Rb  Rb0  1  0.83094700  0.51064500  0.87997500  1
  Rb  Rb1  1  0.83652450  0.54526350  0.37709800  1
  Rb  Rb2  1  0.66347550  0.04526350  0.62290200  1
  Rb  Rb3  1  0.66905300  0.01064500  0.12002500  1
  Rb  Rb4  1  0.33094700  0.01064500  0.87997500  1
  Rb  Rb5  1  0.33652450  0.04526350  0.37709800  1
  Rb  Rb6  1  0.16347550  0.54526350  0.62290200  1
  Rb  Rb7  1  0.16905300  0.51064500  0.12002500  1
  Cr  Cr8  1  0.00000000  0.99185800  0.00000000  1
  Cr  Cr9  1  0.99733850  0.02871350  0.74967300  1
  Cr  Cr10  1  0.50266150  0.52871350  0.25032700  1
  Cr  Cr11  1  0.00000000  0.05978800  0.50000000  1
  Cr  Cr12  1  0.50000000  0.49185800  0.00000000  1
  Cr  Cr13  1  0.49733850  0.52871350  0.74967300  1
  Cr  Cr14  1  0.00266150  0.02871350  0.25032700  1
  Cr  Cr15  1  0.50000000  0.55978800  0.50000000  1
  Cl  Cl16  1  0.83457700  0.01450100  0.84169900  1
  Cl  Cl17  1  0.92672400  0.23232600  0.11096800  1
  Cl  Cl18  1  0.66542300  0.51450100  0.15830100  1
  Cl  Cl19  1  0.92115750  0.76043250  0.10656400  1
  Cl  Cl20  1  0.57694250  0.32382350  0.38944200  1
  Cl  Cl21  1  0.83951200  0.04334800  0.33930300  1
  Cl  Cl22  1  0.92305750  0.82382350  0.61055800  1
  Cl  Cl23  1  0.66048800  0.54334800  0.66069700  1
  Cl  Cl24  1  0.58581250  0.79247450  0.39805200  1
  Cl  Cl25  1  0.57327600  0.73232600  0.88903200  1
  Cl  Cl26  1  0.91418750  0.29247450  0.60194800  1
  Cl  Cl27  1  0.57884250  0.26043250  0.89343600  1
  Cl  Cl28  1  0.33457700  0.51450100  0.84169900  1
  Cl  Cl29  1  0.42672400  0.73232600  0.11096800  1
  Cl  Cl30  1  0.16542300  0.01450100  0.15830100  1
  Cl  Cl31  1  0.42115750  0.26043250  0.10656400  1
  Cl  Cl32  1  0.07694250  0.82382350  0.38944200  1
  Cl  Cl33  1  0.33951200  0.54334800  0.33930300  1
  Cl  Cl34  1  0.42305750  0.32382350  0.61055800  1
  Cl  Cl35  1  0.16048800  0.04334800  0.66069700  1
  Cl  Cl36  1  0.08581250  0.29247450  0.39805200  1
  Cl  Cl37  1  0.07327600  0.23232600  0.88903200  1
  Cl  Cl38  1  0.41418750  0.79247450  0.60194800  1
  Cl  Cl39  1  0.07884250  0.76043250  0.89343600  1
