# generated using pymatgen
data_TaNO
_symmetry_space_group_name_H-M   'P 1'
_cell_length_a   13.17975800
_cell_length_b   3.89140200
_cell_length_c   6.76544949
_cell_angle_alpha   90.00000000
_cell_angle_beta   107.65783824
_cell_angle_gamma   90.00000000
_symmetry_Int_Tables_number   1
_chemical_formula_structural   TaNO
_chemical_formula_sum   'Ta8 N8 O8'
_cell_volume   330.63639536
_cell_formula_units_Z   8
loop_
 _symmetry_equiv_pos_site_id
 _symmetry_equiv_pos_as_xyz
  1  'x, y, z'
loop_
 _atom_site_type_symbol
 _atom_site_label
 _atom_site_symmetry_multiplicity
 _atom_site_fract_x
 _atom_site_fract_y
 _atom_site_fract_z
 _atom_site_occupancy
  Ta  Ta0  1  0.39756800  0.00000000  0.79220700  1
  Ta  Ta1  1  0.10243200  0.50000000  0.20779300  1
  Ta  Ta2  1  0.18849600  0.50000000  0.80634000  1
  Ta  Ta3  1  0.31150400  0.00000000  0.19366000  1
  Ta  Ta4  1  0.89756800  0.50000000  0.79220700  1
  Ta  Ta5  1  0.60243200  0.00000000  0.20779300  1
  Ta  Ta6  1  0.68849600  0.00000000  0.80634000  1
  Ta  Ta7  1  0.81150400  0.50000000  0.19366000  1
  N  N8  1  0.24141600  0.00000000  0.85229700  1
  N  N9  1  0.25858400  0.50000000  0.14770300  1
  N  N10  1  0.05405700  0.50000000  0.86260300  1
  N  N11  1  0.44594300  0.00000000  0.13739700  1
  N  N12  1  0.74141600  0.50000000  0.85229700  1
  N  N13  1  0.75858400  0.00000000  0.14770300  1
  N  N14  1  0.55405700  0.00000000  0.86260300  1
  N  N15  1  0.94594300  0.50000000  0.13739700  1
  O  O16  1  0.35987400  0.00000000  0.49289300  1
  O  O17  1  0.14012600  0.50000000  0.50710700  1
  O  O18  1  0.13410700  0.00000000  0.21055500  1
  O  O19  1  0.36589300  0.50000000  0.78944500  1
  O  O20  1  0.85987400  0.50000000  0.49289300  1
  O  O21  1  0.64012600  0.00000000  0.50710700  1
  O  O22  1  0.63410700  0.50000000  0.21055500  1
  O  O23  1  0.86589300  0.00000000  0.78944500  1
