# generated using pymatgen
data_Pr3Nb(Cl3O2)2
_symmetry_space_group_name_H-M   'P 1'
_cell_length_a   12.94551612
_cell_length_b   12.94551612
_cell_length_c   3.99644500
_cell_angle_alpha   90.00000000
_cell_angle_beta   90.00000000
_cell_angle_gamma   120.00000000
_symmetry_Int_Tables_number   1
_chemical_formula_structural   Pr3Nb(Cl3O2)2
_chemical_formula_sum   'Pr6 Nb2 Cl12 O8'
_cell_volume   580.02032446
_cell_formula_units_Z   2
loop_
 _symmetry_equiv_pos_site_id
 _symmetry_equiv_pos_as_xyz
  1  'x, y, z'
loop_
 _atom_site_type_symbol
 _atom_site_label
 _atom_site_symmetry_multiplicity
 _atom_site_fract_x
 _atom_site_fract_y
 _atom_site_fract_z
 _atom_site_occupancy
  Pr  Pr0  1  0.11443400  0.71901300  0.75000000  1
  Pr  Pr1  1  0.60457900  0.88556600  0.75000000  1
  Pr  Pr2  1  0.88556600  0.28098700  0.25000000  1
  Pr  Pr3  1  0.39542100  0.11443400  0.25000000  1
  Pr  Pr4  1  0.71901300  0.60457900  0.25000000  1
  Pr  Pr5  1  0.28098700  0.39542100  0.75000000  1
  Nb  Nb6  1  0.33333333  0.66666667  0.25000000  1
  Nb  Nb7  1  0.66666667  0.33333333  0.75000000  1
  Cl  Cl8  1  0.06993800  0.44185500  0.75000000  1
  Cl  Cl9  1  0.85585900  0.10402500  0.75000000  1
  Cl  Cl10  1  0.89597500  0.75183400  0.75000000  1
  Cl  Cl11  1  0.93006200  0.55814500  0.25000000  1
  Cl  Cl12  1  0.55814500  0.62808300  0.75000000  1
  Cl  Cl13  1  0.14414100  0.89597500  0.25000000  1
  Cl  Cl14  1  0.44185500  0.37191700  0.25000000  1
  Cl  Cl15  1  0.24816600  0.14414100  0.75000000  1
  Cl  Cl16  1  0.10402500  0.24816600  0.25000000  1
  Cl  Cl17  1  0.75183400  0.85585900  0.25000000  1
  Cl  Cl18  1  0.62808300  0.06993800  0.25000000  1
  Cl  Cl19  1  0.37191700  0.93006200  0.75000000  1
  O  O20  1  0.30747100  0.50738400  0.25000000  1
  O  O21  1  0.33333333  0.66666667  0.75000000  1
  O  O22  1  0.69252900  0.49261600  0.75000000  1
  O  O23  1  0.19991300  0.69252900  0.25000000  1
  O  O24  1  0.50738400  0.19991300  0.75000000  1
  O  O25  1  0.80008700  0.30747100  0.75000000  1
  O  O26  1  0.49261600  0.80008700  0.25000000  1
  O  O27  1  0.66666667  0.33333333  0.25000000  1
