# generated using pymatgen
data_KNd(PO3)4
_symmetry_space_group_name_H-M   'P 1'
_cell_length_a   8.00783200
_cell_length_b   12.67006200
_cell_length_c   10.74893309
_cell_angle_alpha   90.00000000
_cell_angle_beta   110.43719430
_cell_angle_gamma   90.00000000
_symmetry_Int_Tables_number   1
_chemical_formula_structural   KNd(PO3)4
_chemical_formula_sum   'K4 Nd4 P16 O48'
_cell_volume   1021.93758619
_cell_formula_units_Z   4
loop_
 _symmetry_equiv_pos_site_id
 _symmetry_equiv_pos_as_xyz
  1  'x, y, z'
loop_
 _atom_site_type_symbol
 _atom_site_label
 _atom_site_symmetry_multiplicity
 _atom_site_fract_x
 _atom_site_fract_y
 _atom_site_fract_z
 _atom_site_occupancy
  K  K0  1  0.50000000  0.68380900  0.75000000  1
  K  K1  1  0.50000000  0.31619100  0.25000000  1
  K  K2  1  0.00000000  0.18380900  0.75000000  1
  K  K3  1  0.00000000  0.81619100  0.25000000  1
  Nd  Nd4  1  0.50000000  0.37928000  0.75000000  1
  Nd  Nd5  1  0.50000000  0.62072000  0.25000000  1
  Nd  Nd6  1  0.00000000  0.87928000  0.75000000  1
  Nd  Nd7  1  0.00000000  0.12072000  0.25000000  1
  P  P8  1  0.71803500  0.02279600  0.44348600  1
  P  P9  1  0.54271750  0.16953150  0.99963600  1
  P  P10  1  0.45728250  0.83046850  0.00036400  1
  P  P11  1  0.28196500  0.02279600  0.05651400  1
  P  P12  1  0.28196500  0.97720400  0.55651400  1
  P  P13  1  0.71803500  0.97720400  0.94348600  1
  P  P14  1  0.45728250  0.16953150  0.50036400  1
  P  P15  1  0.54271750  0.83046850  0.49963600  1
  P  P16  1  0.21803500  0.52279600  0.44348600  1
  P  P17  1  0.04271750  0.66953150  0.99963600  1
  P  P18  1  0.95728250  0.33046850  0.00036400  1
  P  P19  1  0.78196500  0.52279600  0.05651400  1
  P  P20  1  0.78196500  0.47720400  0.55651400  1
  P  P21  1  0.21803500  0.47720400  0.94348600  1
  P  P22  1  0.95728250  0.66953150  0.50036400  1
  P  P23  1  0.04271750  0.33046850  0.49963600  1
  O  O24  1  0.40715100  0.87492600  0.57004700  1
  O  O25  1  0.70787250  0.80015450  0.61309400  1
  O  O26  1  0.59284900  0.12507400  0.42995300  1
  O  O27  1  0.55710150  0.25302950  0.59709800  1
  O  O28  1  0.21577350  0.97287850  0.66996500  1
  O  O29  1  0.29212750  0.80015450  0.88690600  1
  O  O30  1  0.29212750  0.19984550  0.38690600  1
  O  O31  1  0.84619950  0.98601150  0.08393100  1
  O  O32  1  0.70787250  0.19984550  0.11309400  1
  O  O33  1  0.40715100  0.12507400  0.07004700  1
  O  O34  1  0.78422650  0.97287850  0.83003500  1
  O  O35  1  0.44289850  0.25302950  0.90290200  1
  O  O36  1  0.15380050  0.01398850  0.91606900  1
  O  O37  1  0.78422650  0.02712150  0.33003500  1
  O  O38  1  0.55710150  0.74697050  0.09709800  1
  O  O39  1  0.57300350  0.07215550  0.91437500  1
  O  O40  1  0.84619950  0.01398850  0.58393100  1
  O  O41  1  0.59284900  0.87492600  0.92995300  1
  O  O42  1  0.42699650  0.07215550  0.58562500  1
  O  O43  1  0.15380050  0.98601150  0.41606900  1
  O  O44  1  0.21577350  0.02712150  0.16996500  1
  O  O45  1  0.44289850  0.74697050  0.40290200  1
  O  O46  1  0.42699650  0.92784450  0.08562500  1
  O  O47  1  0.57300350  0.92784450  0.41437500  1
  O  O48  1  0.90715100  0.37492600  0.57004700  1
  O  O49  1  0.20787250  0.30015450  0.61309400  1
  O  O50  1  0.09284900  0.62507400  0.42995300  1
  O  O51  1  0.05710150  0.75302950  0.59709800  1
  O  O52  1  0.71577350  0.47287850  0.66996500  1
  O  O53  1  0.79212750  0.30015450  0.88690600  1
  O  O54  1  0.79212750  0.69984550  0.38690600  1
  O  O55  1  0.34619950  0.48601150  0.08393100  1
  O  O56  1  0.20787250  0.69984550  0.11309400  1
  O  O57  1  0.90715100  0.62507400  0.07004700  1
  O  O58  1  0.28422650  0.47287850  0.83003500  1
  O  O59  1  0.94289850  0.75302950  0.90290200  1
  O  O60  1  0.65380050  0.51398850  0.91606900  1
  O  O61  1  0.28422650  0.52712150  0.33003500  1
  O  O62  1  0.05710150  0.24697050  0.09709800  1
  O  O63  1  0.07300350  0.57215550  0.91437500  1
  O  O64  1  0.34619950  0.51398850  0.58393100  1
  O  O65  1  0.09284900  0.37492600  0.92995300  1
  O  O66  1  0.92699650  0.57215550  0.58562500  1
  O  O67  1  0.65380050  0.48601150  0.41606900  1
  O  O68  1  0.71577350  0.52712150  0.16996500  1
  O  O69  1  0.94289850  0.24697050  0.40290200  1
  O  O70  1  0.92699650  0.42784450  0.08562500  1
  O  O71  1  0.07300350  0.42784450  0.41437500  1
