# generated using pymatgen
data_Na2Ge4O9
_symmetry_space_group_name_H-M   'P 1'
_cell_length_a   11.47574998
_cell_length_b   11.47574998
_cell_length_c   9.83791200
_cell_angle_alpha   90.00000000
_cell_angle_beta   90.00000000
_cell_angle_gamma   120.00000000
_symmetry_Int_Tables_number   1
_chemical_formula_structural   Na2Ge4O9
_chemical_formula_sum   'Na12 Ge24 O54'
_cell_volume   1122.00739798
_cell_formula_units_Z   6
loop_
 _symmetry_equiv_pos_site_id
 _symmetry_equiv_pos_as_xyz
  1  'x, y, z'
loop_
 _atom_site_type_symbol
 _atom_site_label
 _atom_site_symmetry_multiplicity
 _atom_site_fract_x
 _atom_site_fract_y
 _atom_site_fract_z
 _atom_site_occupancy
  Na  Na0  1  0.67081433  0.66302867  0.07669400  1
  Na  Na1  1  0.00778567  0.67081433  0.92330600  1
  Na  Na2  1  0.00778567  0.33697133  0.42330600  1
  Na  Na3  1  0.99221433  0.66302867  0.57669400  1
  Na  Na4  1  0.99221433  0.32918567  0.07669400  1
  Na  Na5  1  0.33697133  0.32918567  0.57669400  1
  Na  Na6  1  0.66302867  0.67081433  0.42330600  1
  Na  Na7  1  0.33697133  0.00778567  0.07669400  1
  Na  Na8  1  0.66302867  0.99221433  0.92330600  1
  Na  Na9  1  0.32918567  0.33697133  0.92330600  1
  Na  Na10  1  0.67081433  0.00778567  0.57669400  1
  Na  Na11  1  0.32918567  0.99221433  0.42330600  1
  Ge  Ge12  1  0.85037633  0.34419767  0.79925500  1
  Ge  Ge13  1  0.00000000  0.17639350  0.75000000  1
  Ge  Ge14  1  0.50617867  0.65580233  0.70074500  1
  Ge  Ge15  1  0.17639350  0.17639350  0.25000000  1
  Ge  Ge16  1  0.34419767  0.85037633  0.70074500  1
  Ge  Ge17  1  0.14962367  0.65580233  0.20074500  1
  Ge  Ge18  1  0.66666667  0.33333333  0.55415300  1
  Ge  Ge19  1  0.17639350  0.00000000  0.75000000  1
  Ge  Ge20  1  0.65580233  0.50617867  0.79925500  1
  Ge  Ge21  1  0.34419767  0.49382133  0.20074500  1
  Ge  Ge22  1  0.82360650  0.00000000  0.25000000  1
  Ge  Ge23  1  0.00000000  0.00000000  0.50000000  1
  Ge  Ge24  1  0.85037633  0.50617867  0.29925500  1
  Ge  Ge25  1  0.33333333  0.66666667  0.44584700  1
  Ge  Ge26  1  0.00000000  0.82360650  0.25000000  1
  Ge  Ge27  1  0.82360650  0.82360650  0.75000000  1
  Ge  Ge28  1  0.65580233  0.14962367  0.29925500  1
  Ge  Ge29  1  0.50617867  0.85037633  0.20074500  1
  Ge  Ge30  1  0.49382133  0.14962367  0.79925500  1
  Ge  Ge31  1  0.33333333  0.66666667  0.94584700  1
  Ge  Ge32  1  0.49382133  0.34419767  0.29925500  1
  Ge  Ge33  1  0.00000000  0.00000000  0.00000000  1
  Ge  Ge34  1  0.66666667  0.33333333  0.05415300  1
  Ge  Ge35  1  0.14962367  0.49382133  0.70074500  1
  O  O36  1  0.17552633  0.58356967  0.05375900  1
  O  O37  1  0.09612633  0.94112867  0.38016800  1
  O  O38  1  0.94112867  0.84500233  0.61983200  1
  O  O39  1  0.00000000  0.50499650  0.25000000  1
  O  O40  1  0.24863933  0.73731667  0.83054800  1
  O  O41  1  0.26268333  0.51132267  0.83054800  1
  O  O42  1  0.59195667  0.41643033  0.44624100  1
  O  O43  1  0.75136067  0.26268333  0.16945200  1
  O  O44  1  0.84500233  0.94112867  0.88016800  1
  O  O45  1  0.50499650  0.50499650  0.75000000  1
  O  O46  1  0.17552633  0.59195667  0.55375900  1
  O  O47  1  0.90387367  0.84500233  0.11983200  1
  O  O48  1  0.77564933  0.67498367  0.85442000  1
  O  O49  1  0.49500350  0.49500350  0.25000000  1
  O  O50  1  0.41643033  0.82447367  0.55375900  1
  O  O51  1  0.58356967  0.17552633  0.44624100  1
  O  O52  1  0.49500350  0.00000000  0.75000000  1
  O  O53  1  0.05887133  0.15499767  0.38016800  1
  O  O54  1  0.59195667  0.17552633  0.94624100  1
  O  O55  1  0.58356967  0.40804333  0.94624100  1
  O  O56  1  0.82447367  0.40804333  0.44624100  1
  O  O57  1  0.22435067  0.89933433  0.64558000  1
  O  O58  1  0.77564933  0.10066567  0.35442000  1
  O  O59  1  0.00000000  0.49500350  0.75000000  1
  O  O60  1  0.48867733  0.73731667  0.33054800  1
  O  O61  1  0.15499767  0.09612633  0.61983200  1
  O  O62  1  0.67498367  0.77564933  0.64558000  1
  O  O63  1  0.40804333  0.82447367  0.05375900  1
  O  O64  1  0.10066567  0.32501633  0.64558000  1
  O  O65  1  0.75136067  0.48867733  0.66945200  1
  O  O66  1  0.50499650  0.00000000  0.25000000  1
  O  O67  1  0.84500233  0.90387367  0.38016800  1
  O  O68  1  0.94112867  0.09612633  0.11983200  1
  O  O69  1  0.32501633  0.22435067  0.35442000  1
  O  O70  1  0.82447367  0.41643033  0.94624100  1
  O  O71  1  0.51132267  0.24863933  0.16945200  1
  O  O72  1  0.90387367  0.05887133  0.61983200  1
  O  O73  1  0.24863933  0.51132267  0.33054800  1
  O  O74  1  0.15499767  0.05887133  0.11983200  1
  O  O75  1  0.51132267  0.26268333  0.66945200  1
  O  O76  1  0.09612633  0.15499767  0.88016800  1
  O  O77  1  0.05887133  0.90387367  0.88016800  1
  O  O78  1  0.40804333  0.58356967  0.55375900  1
  O  O79  1  0.89933433  0.67498367  0.35442000  1
  O  O80  1  0.48867733  0.75136067  0.83054800  1
  O  O81  1  0.41643033  0.59195667  0.05375900  1
  O  O82  1  0.10066567  0.77564933  0.14558000  1
  O  O83  1  0.67498367  0.89933433  0.14558000  1
  O  O84  1  0.26268333  0.75136067  0.33054800  1
  O  O85  1  0.89933433  0.22435067  0.85442000  1
  O  O86  1  0.73731667  0.48867733  0.16945200  1
  O  O87  1  0.22435067  0.32501633  0.14558000  1
  O  O88  1  0.32501633  0.10066567  0.85442000  1
  O  O89  1  0.73731667  0.24863933  0.66945200  1
