# generated using pymatgen
data_RbCuSnS3
_symmetry_space_group_name_H-M   'P 1'
_cell_length_a   11.18922000
_cell_length_b   11.19136800
_cell_length_c   20.48957400
_cell_angle_alpha   90.00000000
_cell_angle_beta   97.86386494
_cell_angle_gamma   90.00000000
_symmetry_Int_Tables_number   1
_chemical_formula_structural   RbCuSnS3
_chemical_formula_sum   'Rb16 Cu16 Sn16 S48'
_cell_volume   2541.63080890
_cell_formula_units_Z   16
loop_
 _symmetry_equiv_pos_site_id
 _symmetry_equiv_pos_as_xyz
  1  'x, y, z'
loop_
 _atom_site_type_symbol
 _atom_site_label
 _atom_site_symmetry_multiplicity
 _atom_site_fract_x
 _atom_site_fract_y
 _atom_site_fract_z
 _atom_site_occupancy
  Rb  Rb0  1  0.66482000  0.06283200  0.41000600  1
  Rb  Rb1  1  0.33518000  0.06283200  0.08999400  1
  Rb  Rb2  1  0.33518000  0.93716800  0.58999400  1
  Rb  Rb3  1  0.66482000  0.93716800  0.91000600  1
  Rb  Rb4  1  0.58473550  0.68786150  0.58975300  1
  Rb  Rb5  1  0.41526450  0.68786150  0.91024700  1
  Rb  Rb6  1  0.41526450  0.31213850  0.41024700  1
  Rb  Rb7  1  0.58473550  0.31213850  0.08975300  1
  Rb  Rb8  1  0.16482000  0.56283200  0.41000600  1
  Rb  Rb9  1  0.83518000  0.56283200  0.08999400  1
  Rb  Rb10  1  0.83518000  0.43716800  0.58999400  1
  Rb  Rb11  1  0.16482000  0.43716800  0.91000600  1
  Rb  Rb12  1  0.08473550  0.18786150  0.58975300  1
  Rb  Rb13  1  0.91526450  0.18786150  0.91024700  1
  Rb  Rb14  1  0.91526450  0.81213850  0.41024700  1
  Rb  Rb15  1  0.08473550  0.81213850  0.08975300  1
  Cu  Cu16  1  0.50000000  0.93621400  0.25000000  1
  Cu  Cu17  1  0.50000000  0.06378600  0.75000000  1
  Cu  Cu18  1  0.75110850  0.18895850  0.24993000  1
  Cu  Cu19  1  0.24889150  0.18895850  0.25007000  1
  Cu  Cu20  1  0.24889150  0.81104150  0.75007000  1
  Cu  Cu21  1  0.75110850  0.81104150  0.74993000  1
  Cu  Cu22  1  0.50000000  0.43747900  0.25000000  1
  Cu  Cu23  1  0.50000000  0.56252100  0.75000000  1
  Cu  Cu24  1  0.00000000  0.43621400  0.25000000  1
  Cu  Cu25  1  0.00000000  0.56378600  0.75000000  1
  Cu  Cu26  1  0.25110850  0.68895850  0.24993000  1
  Cu  Cu27  1  0.74889150  0.68895850  0.25007000  1
  Cu  Cu28  1  0.74889150  0.31104150  0.75007000  1
  Cu  Cu29  1  0.25110850  0.31104150  0.74993000  1
  Cu  Cu30  1  0.00000000  0.93747900  0.25000000  1
  Cu  Cu31  1  0.00000000  0.06252100  0.75000000  1
  Sn  Sn32  1  0.53011300  0.68726600  0.37125800  1
  Sn  Sn33  1  0.46988700  0.68726600  0.12874200  1
  Sn  Sn34  1  0.46988700  0.31273400  0.62874200  1
  Sn  Sn35  1  0.53011300  0.31273400  0.87125800  1
  Sn  Sn36  1  0.28037050  0.93770250  0.37062200  1
  Sn  Sn37  1  0.71962950  0.93770250  0.12937800  1
  Sn  Sn38  1  0.71962950  0.06229750  0.62937800  1
  Sn  Sn39  1  0.28037050  0.06229750  0.87062200  1
  Sn  Sn40  1  0.03011300  0.18726600  0.37125800  1
  Sn  Sn41  1  0.96988700  0.18726600  0.12874200  1
  Sn  Sn42  1  0.96988700  0.81273400  0.62874200  1
  Sn  Sn43  1  0.03011300  0.81273400  0.87125800  1
  Sn  Sn44  1  0.78037050  0.43770250  0.37062200  1
  Sn  Sn45  1  0.21962950  0.43770250  0.12937800  1
  Sn  Sn46  1  0.21962950  0.56229750  0.62937800  1
  Sn  Sn47  1  0.78037050  0.56229750  0.87062200  1
  S  S48  1  0.63459150  0.30693450  0.31074900  1
  S  S49  1  0.36540850  0.30693450  0.18925100  1
  S  S50  1  0.36540850  0.69306550  0.68925100  1
  S  S51  1  0.63459150  0.69306550  0.81074900  1
  S  S52  1  0.39535950  0.06810150  0.31019700  1
  S  S53  1  0.60464050  0.06810150  0.18980300  1
  S  S54  1  0.60464050  0.93189850  0.68980300  1
  S  S55  1  0.39535950  0.93189850  0.81019700  1
  S  S56  1  0.88463350  0.05667650  0.31243400  1
  S  S57  1  0.11536650  0.05667650  0.18756600  1
  S  S58  1  0.11536650  0.94332350  0.68756600  1
  S  S59  1  0.88463350  0.94332350  0.81243400  1
  S  S60  1  0.64658500  0.81874900  0.31306900  1
  S  S61  1  0.35341500  0.81874900  0.18693100  1
  S  S62  1  0.35341500  0.18125100  0.68693100  1
  S  S63  1  0.64658500  0.18125100  0.81306900  1
  S  S64  1  0.42383600  0.81304700  0.44807800  1
  S  S65  1  0.57616400  0.81304700  0.05192200  1
  S  S66  1  0.57616400  0.18695300  0.55192200  1
  S  S67  1  0.42383600  0.18695300  0.94807800  1
  S  S68  1  0.17531450  0.06190450  0.44811300  1
  S  S69  1  0.82468550  0.06190450  0.05188700  1
  S  S70  1  0.82468550  0.93809550  0.55188700  1
  S  S71  1  0.17531450  0.93809550  0.94811300  1
  S  S72  1  0.13459150  0.80693450  0.31074900  1
  S  S73  1  0.86540850  0.80693450  0.18925100  1
  S  S74  1  0.86540850  0.19306550  0.68925100  1
  S  S75  1  0.13459150  0.19306550  0.81074900  1
  S  S76  1  0.89535950  0.56810150  0.31019700  1
  S  S77  1  0.10464050  0.56810150  0.18980300  1
  S  S78  1  0.10464050  0.43189850  0.68980300  1
  S  S79  1  0.89535950  0.43189850  0.81019700  1
  S  S80  1  0.38463350  0.55667650  0.31243400  1
  S  S81  1  0.61536650  0.55667650  0.18756600  1
  S  S82  1  0.61536650  0.44332350  0.68756600  1
  S  S83  1  0.38463350  0.44332350  0.81243400  1
  S  S84  1  0.14658500  0.31874900  0.31306900  1
  S  S85  1  0.85341500  0.31874900  0.18693100  1
  S  S86  1  0.85341500  0.68125100  0.68693100  1
  S  S87  1  0.14658500  0.68125100  0.81306900  1
  S  S88  1  0.92383600  0.31304700  0.44807800  1
  S  S89  1  0.07616400  0.31304700  0.05192200  1
  S  S90  1  0.07616400  0.68695300  0.55192200  1
  S  S91  1  0.92383600  0.68695300  0.94807800  1
  S  S92  1  0.67531450  0.56190450  0.44811300  1
  S  S93  1  0.32468550  0.56190450  0.05188700  1
  S  S94  1  0.32468550  0.43809550  0.55188700  1
  S  S95  1  0.67531450  0.43809550  0.94811300  1
