# generated using pymatgen
data_CsK2BiCl6
_symmetry_space_group_name_H-M   'P 1'
_cell_length_a   26.06658000
_cell_length_b   7.90670600
_cell_length_c   13.25854263
_cell_angle_alpha   90.00000000
_cell_angle_beta   99.03193218
_cell_angle_gamma   90.00000000
_symmetry_Int_Tables_number   1
_chemical_formula_structural   CsK2BiCl6
_chemical_formula_sum   'Cs8 K16 Bi8 Cl48'
_cell_volume   2698.71458717
_cell_formula_units_Z   8
loop_
 _symmetry_equiv_pos_site_id
 _symmetry_equiv_pos_as_xyz
  1  'x, y, z'
loop_
 _atom_site_type_symbol
 _atom_site_label
 _atom_site_symmetry_multiplicity
 _atom_site_fract_x
 _atom_site_fract_y
 _atom_site_fract_z
 _atom_site_occupancy
  Cs  Cs0  1  0.94857250  0.26318550  0.56974200  1
  Cs  Cs1  1  0.55142750  0.23681450  0.43025800  1
  Cs  Cs2  1  0.94857250  0.73681450  0.06974200  1
  Cs  Cs3  1  0.55142750  0.76318550  0.93025800  1
  Cs  Cs4  1  0.44857250  0.76318550  0.56974200  1
  Cs  Cs5  1  0.05142750  0.73681450  0.43025800  1
  Cs  Cs6  1  0.44857250  0.23681450  0.06974200  1
  Cs  Cs7  1  0.05142750  0.26318550  0.93025800  1
  K  K8  1  0.84334750  0.68680150  0.36881100  1
  K  K9  1  0.83804700  0.18526100  0.20054300  1
  K  K10  1  0.66195300  0.68526100  0.29945700  1
  K  K11  1  0.65665250  0.81319850  0.63118900  1
  K  K12  1  0.65665250  0.18680150  0.13118900  1
  K  K13  1  0.66195300  0.31473900  0.79945700  1
  K  K14  1  0.84334750  0.31319850  0.86881100  1
  K  K15  1  0.83804700  0.81473900  0.70054300  1
  K  K16  1  0.34334750  0.18680150  0.36881100  1
  K  K17  1  0.33804700  0.68526100  0.20054300  1
  K  K18  1  0.16195300  0.18526100  0.29945700  1
  K  K19  1  0.15665250  0.31319850  0.63118900  1
  K  K20  1  0.15665250  0.68680150  0.13118900  1
  K  K21  1  0.16195300  0.81473900  0.79945700  1
  K  K22  1  0.34334750  0.81319850  0.86881100  1
  K  K23  1  0.33804700  0.31473900  0.70054300  1
  Bi  Bi24  1  0.75000000  0.25000000  0.50000000  1
  Bi  Bi25  1  0.00000000  0.77811500  0.75000000  1
  Bi  Bi26  1  0.00000000  0.22188500  0.25000000  1
  Bi  Bi27  1  0.75000000  0.75000000  0.00000000  1
  Bi  Bi28  1  0.25000000  0.75000000  0.50000000  1
  Bi  Bi29  1  0.50000000  0.27811500  0.75000000  1
  Bi  Bi30  1  0.50000000  0.72188500  0.25000000  1
  Bi  Bi31  1  0.25000000  0.25000000  0.00000000  1
  Cl  Cl32  1  0.75020400  0.11105800  0.69209400  1
  Cl  Cl33  1  0.56522700  0.04281500  0.68494600  1
  Cl  Cl34  1  0.82742350  0.03195850  0.47347000  1
  Cl  Cl35  1  0.82578350  0.47640350  0.57400000  1
  Cl  Cl36  1  0.82578350  0.52359650  0.07400000  1
  Cl  Cl37  1  0.56522700  0.95718500  0.18494600  1
  Cl  Cl38  1  0.67257650  0.53195850  0.02653000  1
  Cl  Cl39  1  0.56433950  0.52859450  0.70051000  1
  Cl  Cl40  1  0.74979600  0.38894200  0.30790600  1
  Cl  Cl41  1  0.55807900  0.73413000  0.43825500  1
  Cl  Cl42  1  0.82742350  0.96804150  0.97347000  1
  Cl  Cl43  1  0.75020400  0.88894200  0.19209400  1
  Cl  Cl44  1  0.94192100  0.76587000  0.56174500  1
  Cl  Cl45  1  0.67257650  0.46804150  0.52653000  1
  Cl  Cl46  1  0.93566050  0.97140550  0.29949000  1
  Cl  Cl47  1  0.67421650  0.02359650  0.42600000  1
  Cl  Cl48  1  0.74979600  0.61105800  0.80790600  1
  Cl  Cl49  1  0.93477300  0.54281500  0.81505400  1
  Cl  Cl50  1  0.93566050  0.02859450  0.79949000  1
  Cl  Cl51  1  0.56433950  0.47140550  0.20051000  1
  Cl  Cl52  1  0.93477300  0.45718500  0.31505400  1
  Cl  Cl53  1  0.67421650  0.97640350  0.92600000  1
  Cl  Cl54  1  0.94192100  0.23413000  0.06174500  1
  Cl  Cl55  1  0.55807900  0.26587000  0.93825500  1
  Cl  Cl56  1  0.25020400  0.61105800  0.69209400  1
  Cl  Cl57  1  0.06522700  0.54281500  0.68494600  1
  Cl  Cl58  1  0.32742350  0.53195850  0.47347000  1
  Cl  Cl59  1  0.32578350  0.97640350  0.57400000  1
  Cl  Cl60  1  0.32578350  0.02359650  0.07400000  1
  Cl  Cl61  1  0.06522700  0.45718500  0.18494600  1
  Cl  Cl62  1  0.17257650  0.03195850  0.02653000  1
  Cl  Cl63  1  0.06433950  0.02859450  0.70051000  1
  Cl  Cl64  1  0.24979600  0.88894200  0.30790600  1
  Cl  Cl65  1  0.05807900  0.23413000  0.43825500  1
  Cl  Cl66  1  0.32742350  0.46804150  0.97347000  1
  Cl  Cl67  1  0.25020400  0.38894200  0.19209400  1
  Cl  Cl68  1  0.44192100  0.26587000  0.56174500  1
  Cl  Cl69  1  0.17257650  0.96804150  0.52653000  1
  Cl  Cl70  1  0.43566050  0.47140550  0.29949000  1
  Cl  Cl71  1  0.17421650  0.52359650  0.42600000  1
  Cl  Cl72  1  0.24979600  0.11105800  0.80790600  1
  Cl  Cl73  1  0.43477300  0.04281500  0.81505400  1
  Cl  Cl74  1  0.43566050  0.52859450  0.79949000  1
  Cl  Cl75  1  0.06433950  0.97140550  0.20051000  1
  Cl  Cl76  1  0.43477300  0.95718500  0.31505400  1
  Cl  Cl77  1  0.17421650  0.47640350  0.92600000  1
  Cl  Cl78  1  0.44192100  0.73413000  0.06174500  1
  Cl  Cl79  1  0.05807900  0.76587000  0.93825500  1
