# generated using pymatgen
data_Sm2Ta2Cl2O7
_symmetry_space_group_name_H-M   'P 1'
_cell_length_a   15.46282200
_cell_length_b   3.93706200
_cell_length_c   6.92091165
_cell_angle_alpha   90.00000000
_cell_angle_beta   113.95406899
_cell_angle_gamma   90.00000000
_symmetry_Int_Tables_number   1
_chemical_formula_structural   Sm2Ta2Cl2O7
_chemical_formula_sum   'Sm4 Ta4 Cl4 O14'
_cell_volume   385.04307605
_cell_formula_units_Z   2
loop_
 _symmetry_equiv_pos_site_id
 _symmetry_equiv_pos_as_xyz
  1  'x, y, z'
loop_
 _atom_site_type_symbol
 _atom_site_label
 _atom_site_symmetry_multiplicity
 _atom_site_fract_x
 _atom_site_fract_y
 _atom_site_fract_z
 _atom_site_occupancy
  Sm  Sm0  1  0.30666200  0.00000000  0.83681700  1
  Sm  Sm1  1  0.19333800  0.50000000  0.16318300  1
  Sm  Sm2  1  0.80666200  0.50000000  0.83681700  1
  Sm  Sm3  1  0.69333800  0.00000000  0.16318300  1
  Ta  Ta4  1  0.46504700  0.50000000  0.19970100  1
  Ta  Ta5  1  0.03495300  0.00000000  0.80029900  1
  Ta  Ta6  1  0.96504700  0.00000000  0.19970100  1
  Ta  Ta7  1  0.53495300  0.50000000  0.80029900  1
  Cl  Cl8  1  0.18005600  0.50000000  0.56566000  1
  Cl  Cl9  1  0.31994400  0.00000000  0.43434000  1
  Cl  Cl10  1  0.68005600  0.00000000  0.56566000  1
  Cl  Cl11  1  0.81994400  0.50000000  0.43434000  1
  O  O12  1  0.45325200  0.00000000  0.16006400  1
  O  O13  1  0.04674800  0.50000000  0.83993600  1
  O  O14  1  0.41786600  0.50000000  0.84562300  1
  O  O15  1  0.00000000  0.00000000  0.50000000  1
  O  O16  1  0.32367900  0.50000000  0.06694400  1
  O  O17  1  0.08213400  0.00000000  0.15437700  1
  O  O18  1  0.17632100  0.00000000  0.93305600  1
  O  O19  1  0.95325200  0.50000000  0.16006400  1
  O  O20  1  0.54674800  0.00000000  0.83993600  1
  O  O21  1  0.91786600  0.00000000  0.84562300  1
  O  O22  1  0.50000000  0.50000000  0.50000000  1
  O  O23  1  0.82367900  0.00000000  0.06694400  1
  O  O24  1  0.58213400  0.50000000  0.15437700  1
  O  O25  1  0.67632100  0.50000000  0.93305600  1
