# generated using pymatgen
data_K2NbS7
_symmetry_space_group_name_H-M   'P 1'
_cell_length_a   12.79974400
_cell_length_b   8.02238700
_cell_length_c   22.16107920
_cell_angle_alpha   90.00000000
_cell_angle_beta   99.52244215
_cell_angle_gamma   90.00000000
_symmetry_Int_Tables_number   1
_chemical_formula_structural   K2NbS7
_chemical_formula_sum   'K16 Nb8 S56'
_cell_volume   2244.24357479
_cell_formula_units_Z   8
loop_
 _symmetry_equiv_pos_site_id
 _symmetry_equiv_pos_as_xyz
  1  'x, y, z'
loop_
 _atom_site_type_symbol
 _atom_site_label
 _atom_site_symmetry_multiplicity
 _atom_site_fract_x
 _atom_site_fract_y
 _atom_site_fract_z
 _atom_site_occupancy
  K  K0  1  0.33986300  0.55738200  0.55540900  1
  K  K1  1  0.16013700  0.05738200  0.44459100  1
  K  K2  1  0.01207100  0.92662800  0.16294200  1
  K  K3  1  0.98792900  0.07337200  0.83705800  1
  K  K4  1  0.93120300  0.52390600  0.30576500  1
  K  K5  1  0.85986200  0.35795900  0.97438200  1
  K  K6  1  0.64013800  0.85795900  0.02561800  1
  K  K7  1  0.66013700  0.44261800  0.44459100  1
  K  K8  1  0.51207100  0.57337200  0.16294200  1
  K  K9  1  0.83986300  0.94261800  0.55540900  1
  K  K10  1  0.14013800  0.64204100  0.02561800  1
  K  K11  1  0.56879700  0.02390600  0.69423500  1
  K  K12  1  0.35986200  0.14204100  0.97438200  1
  K  K13  1  0.48792900  0.42662800  0.83705800  1
  K  K14  1  0.06879700  0.47609400  0.69423500  1
  K  K15  1  0.43120300  0.97609400  0.30576500  1
  Nb  Nb16  1  0.18538600  0.45837100  0.21261900  1
  Nb  Nb17  1  0.81461400  0.54162900  0.78738100  1
  Nb  Nb18  1  0.16561100  0.97891500  0.63160200  1
  Nb  Nb19  1  0.83438900  0.02108500  0.36839800  1
  Nb  Nb20  1  0.68538600  0.04162900  0.21261900  1
  Nb  Nb21  1  0.33438900  0.47891500  0.36839800  1
  Nb  Nb22  1  0.66561100  0.52108500  0.63160200  1
  Nb  Nb23  1  0.31461400  0.95837100  0.78738100  1
  S  S24  1  0.18824400  0.61344400  0.41137400  1
  S  S25  1  0.72844800  0.27476900  0.80830600  1
  S  S26  1  0.27155200  0.72523100  0.19169400  1
  S  S27  1  0.75475000  0.86497400  0.90503800  1
  S  S28  1  0.39850500  0.28650200  0.43802200  1
  S  S29  1  0.10078700  0.12004800  0.03726900  1
  S  S30  1  0.81175600  0.38655600  0.58862600  1
  S  S31  1  0.10375200  0.26596000  0.96111200  1
  S  S32  1  0.09629000  0.88674800  0.72280100  1
  S  S33  1  0.25475000  0.63502600  0.90503800  1
  S  S34  1  0.31175600  0.11344400  0.58862600  1
  S  S35  1  0.82899000  0.68307000  0.68595500  1
  S  S36  1  0.83139500  0.75714900  0.42786400  1
  S  S37  1  0.60149500  0.71349800  0.56197800  1
  S  S38  1  0.89850500  0.21349800  0.43802200  1
  S  S39  1  0.28251400  0.21094100  0.72458100  1
  S  S40  1  0.71748600  0.78905900  0.27541900  1
  S  S41  1  0.39624800  0.76596000  0.03888800  1
  S  S42  1  0.89921300  0.87995200  0.96273100  1
  S  S43  1  0.79030500  0.83696700  0.75471800  1
  S  S44  1  0.66860500  0.25714900  0.57213600  1
  S  S45  1  0.17101000  0.31693000  0.31404500  1
  S  S46  1  0.51630700  0.02204400  0.17001200  1
  S  S47  1  0.39921300  0.62004800  0.96273100  1
  S  S48  1  0.60375200  0.23404000  0.96111200  1
  S  S49  1  0.78251400  0.28905900  0.72458100  1
  S  S50  1  0.60078700  0.37995200  0.03726900  1
  S  S51  1  0.59629000  0.61325200  0.72280100  1
  S  S52  1  0.20969500  0.16303300  0.24528200  1
  S  S53  1  0.67101000  0.18307000  0.31404500  1
  S  S54  1  0.48369300  0.97795600  0.82998800  1
  S  S55  1  0.24525000  0.13502600  0.09496200  1
  S  S56  1  0.27320000  0.38179000  0.12348300  1
  S  S57  1  0.40371000  0.38674800  0.27719900  1
  S  S58  1  0.98369300  0.52204400  0.82998800  1
  S  S59  1  0.01080900  0.07885200  0.67399200  1
  S  S60  1  0.33139500  0.74285100  0.42786400  1
  S  S61  1  0.01630700  0.47795600  0.17001200  1
  S  S62  1  0.32899000  0.81693000  0.68595500  1
  S  S63  1  0.98919100  0.92114800  0.32600800  1
  S  S64  1  0.70969500  0.33696700  0.24528200  1
  S  S65  1  0.29030500  0.66303300  0.75471800  1
  S  S66  1  0.77320000  0.11821000  0.12348300  1
  S  S67  1  0.68824400  0.88655600  0.41137400  1
  S  S68  1  0.16860500  0.24285100  0.57213600  1
  S  S69  1  0.48919100  0.57885200  0.32600800  1
  S  S70  1  0.72680000  0.61821000  0.87651700  1
  S  S71  1  0.74525000  0.36497400  0.09496200  1
  S  S72  1  0.77155200  0.77476900  0.19169400  1
  S  S73  1  0.51080900  0.42114800  0.67399200  1
  S  S74  1  0.22680000  0.88179000  0.87651700  1
  S  S75  1  0.22844800  0.22523100  0.80830600  1
  S  S76  1  0.90371000  0.11325200  0.27719900  1
  S  S77  1  0.21748600  0.71094100  0.27541900  1
  S  S78  1  0.10149500  0.78650200  0.56197800  1
  S  S79  1  0.89624800  0.73404000  0.03888800  1
