# generated using pymatgen
data_CaP2Xe5F22
_symmetry_space_group_name_H-M   'P 1'
_cell_length_a   8.62053700
_cell_length_b   14.97446400
_cell_length_c   17.68778800
_cell_angle_alpha   90.00000000
_cell_angle_beta   90.00000000
_cell_angle_gamma   90.00000000
_symmetry_Int_Tables_number   1
_chemical_formula_structural   CaP2Xe5F22
_chemical_formula_sum   'Ca4 P8 Xe20 F88'
_cell_volume   2283.27977943
_cell_formula_units_Z   4
loop_
 _symmetry_equiv_pos_site_id
 _symmetry_equiv_pos_as_xyz
  1  'x, y, z'
loop_
 _atom_site_type_symbol
 _atom_site_label
 _atom_site_symmetry_multiplicity
 _atom_site_fract_x
 _atom_site_fract_y
 _atom_site_fract_z
 _atom_site_occupancy
  Ca  Ca0  1  0.73176800  0.33055300  0.41437400  1
  Ca  Ca1  1  0.23176800  0.16944700  0.91437400  1
  Ca  Ca2  1  0.26823200  0.66944700  0.91437400  1
  Ca  Ca3  1  0.76823200  0.83055300  0.41437400  1
  P  P4  1  0.99598400  0.02178300  0.02782500  1
  P  P5  1  0.49598400  0.47821700  0.52782500  1
  P  P6  1  0.00401600  0.97821700  0.52782500  1
  P  P7  1  0.50401600  0.52178300  0.02782500  1
  P  P8  1  0.00676200  0.50681000  0.78459800  1
  P  P9  1  0.50676200  0.99319000  0.28459800  1
  P  P10  1  0.49323800  0.00681000  0.78459800  1
  P  P11  1  0.99323800  0.49319000  0.28459800  1
  Xe  Xe12  1  0.72949800  0.23288300  0.19136500  1
  Xe  Xe13  1  0.28565300  0.27777000  0.12256400  1
  Xe  Xe14  1  0.22949800  0.26711700  0.69136500  1
  Xe  Xe15  1  0.27050200  0.76711700  0.69136500  1
  Xe  Xe16  1  0.50367600  0.01410500  0.53474800  1
  Xe  Xe17  1  0.24902800  0.24596100  0.40764000  1
  Xe  Xe18  1  0.77050200  0.73288300  0.19136500  1
  Xe  Xe19  1  0.25097200  0.74596100  0.40764000  1
  Xe  Xe20  1  0.00571900  0.02180100  0.28050900  1
  Xe  Xe21  1  0.50571900  0.47819900  0.78050900  1
  Xe  Xe22  1  0.74902800  0.25403900  0.90764000  1
  Xe  Xe23  1  0.49428100  0.52180100  0.28050900  1
  Xe  Xe24  1  0.78565300  0.22223000  0.62256400  1
  Xe  Xe25  1  0.99632400  0.51410500  0.53474800  1
  Xe  Xe26  1  0.00367600  0.48589500  0.03474800  1
  Xe  Xe27  1  0.99428100  0.97819900  0.78050900  1
  Xe  Xe28  1  0.71434700  0.72223000  0.62256400  1
  Xe  Xe29  1  0.49632400  0.98589500  0.03474800  1
  Xe  Xe30  1  0.21434700  0.77777000  0.12256400  1
  Xe  Xe31  1  0.75097200  0.75403900  0.90764000  1
  F  F32  1  0.91792100  0.85776100  0.74026900  1
  F  F33  1  0.09410100  0.63528100  0.55915100  1
  F  F34  1  0.22781200  0.28394100  0.00635500  1
  F  F35  1  0.12970700  0.95561900  0.59358300  1
  F  F36  1  0.20620500  0.75148000  0.80563000  1
  F  F37  1  0.39242800  0.11112200  0.01071000  1
  F  F38  1  0.64791300  0.72402100  0.73344000  1
  F  F39  1  0.70620500  0.74852000  0.30563000  1
  F  F40  1  0.89242800  0.38887800  0.51071000  1
  F  F41  1  0.88055400  0.47013800  0.84591200  1
  F  F42  1  0.95840000  0.86960100  0.52149400  1
  F  F43  1  0.95709100  0.91615900  0.03092800  1
  F  F44  1  0.13568800  0.96320900  0.46279600  1
  F  F45  1  0.99043700  0.75432400  0.91716600  1
  F  F46  1  0.86876700  0.99068700  0.59163800  1
  F  F47  1  0.42470700  0.60256700  0.82106200  1
  F  F48  1  0.37227000  0.50467700  0.96023200  1
  F  F49  1  0.91724100  0.42741500  0.35335600  1
  F  F50  1  0.62765300  0.07133200  0.31005200  1
  F  F51  1  0.77218800  0.71605900  0.50635500  1
  F  F52  1  0.41724100  0.07258500  0.85335600  1
  F  F53  1  0.50860800  0.75768400  0.89821900  1
  F  F54  1  0.86387700  0.45366600  0.22577900  1
  F  F55  1  0.37234700  0.92866800  0.81005200  1
  F  F56  1  0.14791300  0.77597900  0.23344000  1
  F  F57  1  0.88957000  0.58802100  0.76210900  1
  F  F58  1  0.62773000  0.49532300  0.46023200  1
  F  F59  1  0.35208700  0.27597900  0.23344000  1
  F  F60  1  0.50956300  0.25432400  0.91716600  1
  F  F61  1  0.56568000  0.94324100  0.71876000  1
  F  F62  1  0.04290900  0.08384100  0.53092800  1
  F  F63  1  0.16128700  0.28604600  0.58169800  1
  F  F64  1  0.43432000  0.05675900  0.21876000  1
  F  F65  1  0.59410100  0.86471900  0.05915100  1
  F  F66  1  0.10757200  0.61112200  0.01071000  1
  F  F67  1  0.45709100  0.58384100  0.53092800  1
  F  F68  1  0.45840000  0.63039900  0.02149400  1
  F  F69  1  0.63612300  0.95366600  0.22577900  1
  F  F70  1  0.38055400  0.02986200  0.34591200  1
  F  F71  1  0.36387700  0.04633400  0.72577900  1
  F  F72  1  0.54160000  0.36960100  0.52149400  1
  F  F73  1  0.61043000  0.08802100  0.76210900  1
  F  F74  1  0.11043000  0.41197900  0.26210900  1
  F  F75  1  0.60757200  0.88887800  0.51071000  1
  F  F76  1  0.72781200  0.21605900  0.50635500  1
  F  F77  1  0.41792100  0.64223900  0.24026900  1
  F  F78  1  0.86431200  0.03679100  0.96279600  1
  F  F79  1  0.66128700  0.21395400  0.08169800  1
  F  F80  1  0.93432000  0.44324100  0.71876000  1
  F  F81  1  0.92470700  0.89743300  0.32106200  1
  F  F82  1  0.49139200  0.24231600  0.39821900  1
  F  F83  1  0.13123300  0.00931300  0.09163800  1
  F  F84  1  0.87227000  0.99532300  0.46023200  1
  F  F85  1  0.85208700  0.22402100  0.73344000  1
  F  F86  1  0.61944600  0.97013800  0.84591200  1
  F  F87  1  0.11944600  0.52986200  0.34591200  1
  F  F88  1  0.12773000  0.00467700  0.96023200  1
  F  F89  1  0.62970700  0.54438100  0.09358300  1
  F  F90  1  0.00860800  0.74231600  0.39821900  1
  F  F91  1  0.57529300  0.39743300  0.32106200  1
  F  F92  1  0.12765300  0.42866800  0.81005200  1
  F  F93  1  0.07529300  0.10256700  0.82106200  1
  F  F94  1  0.87029300  0.04438100  0.09358300  1
  F  F95  1  0.08207900  0.14223900  0.24026900  1
  F  F96  1  0.37029300  0.45561900  0.59358300  1
  F  F97  1  0.63568800  0.53679100  0.96279600  1
  F  F98  1  0.36876700  0.50931300  0.09163800  1
  F  F99  1  0.63123300  0.49068700  0.59163800  1
  F  F100  1  0.40589900  0.13528100  0.55915100  1
  F  F101  1  0.99139200  0.25768400  0.89821900  1
  F  F102  1  0.08275900  0.57258500  0.85335600  1
  F  F103  1  0.58275900  0.92741500  0.35335600  1
  F  F104  1  0.49043700  0.74567600  0.41716600  1
  F  F105  1  0.33871300  0.78604600  0.58169800  1
  F  F106  1  0.00956300  0.24567600  0.41716600  1
  F  F107  1  0.29379500  0.25148000  0.80563000  1
  F  F108  1  0.27218800  0.78394100  0.00635500  1
  F  F109  1  0.06568000  0.55675900  0.21876000  1
  F  F110  1  0.58207900  0.35776100  0.74026900  1
  F  F111  1  0.83871300  0.71395400  0.08169800  1
  F  F112  1  0.90589900  0.36471900  0.05915100  1
  F  F113  1  0.87234700  0.57133200  0.31005200  1
  F  F114  1  0.79379500  0.24852000  0.30563000  1
  F  F115  1  0.38957000  0.91197900  0.26210900  1
  F  F116  1  0.13612300  0.54633400  0.72577900  1
  F  F117  1  0.54290900  0.41615900  0.03092800  1
  F  F118  1  0.36431200  0.46320900  0.46279600  1
  F  F119  1  0.04160000  0.13039900  0.02149400  1
