# generated using pymatgen
data_As2Se2S(NF6)2
_symmetry_space_group_name_H-M   'P 1'
_cell_length_a   12.86447000
_cell_length_b   8.80010200
_cell_length_c   10.94276890
_cell_angle_alpha   90.00000000
_cell_angle_beta   93.53239265
_cell_angle_gamma   90.00000000
_symmetry_Int_Tables_number   1
_chemical_formula_structural   As2Se2S(NF6)2
_chemical_formula_sum   'As8 Se8 S4 N8 F48'
_cell_volume   1236.46247800
_cell_formula_units_Z   4
loop_
 _symmetry_equiv_pos_site_id
 _symmetry_equiv_pos_as_xyz
  1  'x, y, z'
loop_
 _atom_site_type_symbol
 _atom_site_label
 _atom_site_symmetry_multiplicity
 _atom_site_fract_x
 _atom_site_fract_y
 _atom_site_fract_z
 _atom_site_occupancy
  As  As0  1  0.63600750  0.01999950  0.74786100  1
  As  As1  1  0.36399250  0.01999950  0.25213900  1
  As  As2  1  0.50000000  0.50212700  0.50000000  1
  As  As3  1  0.50000000  0.49506300  0.00000000  1
  As  As4  1  0.13600750  0.51999950  0.74786100  1
  As  As5  1  0.86399250  0.51999950  0.25213900  1
  As  As6  1  0.00000000  0.00212700  0.50000000  1
  As  As7  1  0.00000000  0.99506300  0.00000000  1
  Se  Se8  1  0.29319750  0.13859150  0.85735800  1
  Se  Se9  1  0.70680250  0.13859150  0.14264200  1
  Se  Se10  1  0.28106850  0.14302650  0.63866300  1
  Se  Se11  1  0.71893150  0.14302650  0.36133700  1
  Se  Se12  1  0.79319750  0.63859150  0.85735800  1
  Se  Se13  1  0.20680250  0.63859150  0.14264200  1
  Se  Se14  1  0.78106850  0.64302650  0.63866300  1
  Se  Se15  1  0.21893150  0.64302650  0.36133700  1
  S  S16  1  0.35153700  0.85344200  0.74381000  1
  S  S17  1  0.64846300  0.85344200  0.25619000  1
  S  S18  1  0.85153700  0.35344200  0.74381000  1
  S  S19  1  0.14846300  0.35344200  0.25619000  1
  N  N20  1  0.33456750  0.95019550  0.86342100  1
  N  N21  1  0.66543250  0.95019550  0.13657900  1
  N  N22  1  0.32127450  0.95492750  0.62706800  1
  N  N23  1  0.67872550  0.95492750  0.37293200  1
  N  N24  1  0.83456750  0.45019550  0.86342100  1
  N  N25  1  0.16543250  0.45019550  0.13657900  1
  N  N26  1  0.82127450  0.45492750  0.62706800  1
  N  N27  1  0.17872550  0.45492750  0.37293200  1
  F  F28  1  0.69355500  0.14082500  0.86309800  1
  F  F29  1  0.30644500  0.14082500  0.13690200  1
  F  F30  1  0.58394450  0.89612250  0.63298700  1
  F  F31  1  0.41605550  0.89612250  0.36701300  1
  F  F32  1  0.51857100  0.12338900  0.74363500  1
  F  F33  1  0.48142900  0.12338900  0.25636500  1
  F  F34  1  0.68658350  0.13916250  0.63492500  1
  F  F35  1  0.31341650  0.13916250  0.36507500  1
  F  F36  1  0.75553750  0.91025650  0.75120300  1
  F  F37  1  0.24446250  0.91025650  0.24879700  1
  F  F38  1  0.59203750  0.89846350  0.86236600  1
  F  F39  1  0.40796250  0.89846350  0.13763400  1
  F  F40  1  0.41711050  0.64288350  0.55725600  1
  F  F41  1  0.58288950  0.64288350  0.44274400  1
  F  F42  1  0.41970550  0.35874150  0.55938300  1
  F  F43  1  0.58029450  0.35874150  0.44061700  1
  F  F44  1  0.07882450  0.00359450  0.63984400  1
  F  F45  1  0.92117550  0.00359450  0.36015600  1
  F  F46  1  0.44476900  0.63458200  0.90095400  1
  F  F47  1  0.55523100  0.63458200  0.09904600  1
  F  F48  1  0.11549950  0.99219450  0.91706600  1
  F  F49  1  0.88450050  0.99219450  0.08293400  1
  F  F50  1  0.44584700  0.34971800  0.90179600  1
  F  F51  1  0.55415300  0.34971800  0.09820400  1
  F  F52  1  0.19355500  0.64082500  0.86309800  1
  F  F53  1  0.80644500  0.64082500  0.13690200  1
  F  F54  1  0.08394450  0.39612250  0.63298700  1
  F  F55  1  0.91605550  0.39612250  0.36701300  1
  F  F56  1  0.01857100  0.62338900  0.74363500  1
  F  F57  1  0.98142900  0.62338900  0.25636500  1
  F  F58  1  0.18658350  0.63916250  0.63492500  1
  F  F59  1  0.81341650  0.63916250  0.36507500  1
  F  F60  1  0.25553750  0.41025650  0.75120300  1
  F  F61  1  0.74446250  0.41025650  0.24879700  1
  F  F62  1  0.09203750  0.39846350  0.86236600  1
  F  F63  1  0.90796250  0.39846350  0.13763400  1
  F  F64  1  0.91711050  0.14288350  0.55725600  1
  F  F65  1  0.08288950  0.14288350  0.44274400  1
  F  F66  1  0.91970550  0.85874150  0.55938300  1
  F  F67  1  0.08029450  0.85874150  0.44061700  1
  F  F68  1  0.57882450  0.50359450  0.63984400  1
  F  F69  1  0.42117550  0.50359450  0.36015600  1
  F  F70  1  0.94476900  0.13458200  0.90095400  1
  F  F71  1  0.05523100  0.13458200  0.09904600  1
  F  F72  1  0.61549950  0.49219450  0.91706600  1
  F  F73  1  0.38450050  0.49219450  0.08293400  1
  F  F74  1  0.94584700  0.84971800  0.90179600  1
  F  F75  1  0.05415300  0.84971800  0.09820400  1
