# generated using pymatgen
data_K2(TcS2)3
_symmetry_space_group_name_H-M   'P 1'
_cell_length_a   16.68702800
_cell_length_b   9.85125200
_cell_length_c   12.02862840
_cell_angle_alpha   90.00000000
_cell_angle_beta   91.48729780
_cell_angle_gamma   90.00000000
_symmetry_Int_Tables_number   1
_chemical_formula_structural   K2(TcS2)3
_chemical_formula_sum   'K16 Tc24 S48'
_cell_volume   1976.69741790
_cell_formula_units_Z   8
loop_
 _symmetry_equiv_pos_site_id
 _symmetry_equiv_pos_as_xyz
  1  'x, y, z'
loop_
 _atom_site_type_symbol
 _atom_site_label
 _atom_site_symmetry_multiplicity
 _atom_site_fract_x
 _atom_site_fract_y
 _atom_site_fract_z
 _atom_site_occupancy
  K  K0  1  0.50000000  0.90145300  0.75000000  1
  K  K1  1  0.50000000  0.09854700  0.25000000  1
  K  K2  1  0.50000000  0.29057400  0.75000000  1
  K  K3  1  0.50000000  0.70942600  0.25000000  1
  K  K4  1  0.61820450  0.26112850  0.02094000  1
  K  K5  1  0.38179550  0.26112850  0.47906000  1
  K  K6  1  0.38179550  0.73887150  0.97906000  1
  K  K7  1  0.61820450  0.73887150  0.52094000  1
  K  K8  1  0.00000000  0.40145300  0.75000000  1
  K  K9  1  0.00000000  0.59854700  0.25000000  1
  K  K10  1  0.00000000  0.79057400  0.75000000  1
  K  K11  1  0.00000000  0.20942600  0.25000000  1
  K  K12  1  0.11820450  0.76112850  0.02094000  1
  K  K13  1  0.88179550  0.76112850  0.47906000  1
  K  K14  1  0.88179550  0.23887150  0.97906000  1
  K  K15  1  0.11820450  0.23887150  0.52094000  1
  Tc  Tc16  1  0.84334950  0.15335950  0.52560600  1
  Tc  Tc17  1  0.15665050  0.15335950  0.97439400  1
  Tc  Tc18  1  0.15665050  0.84664050  0.47439400  1
  Tc  Tc19  1  0.84334950  0.84664050  0.02560600  1
  Tc  Tc20  1  0.70782150  0.17770550  0.62978200  1
  Tc  Tc21  1  0.29217850  0.17770550  0.87021800  1
  Tc  Tc22  1  0.29217850  0.82229450  0.37021800  1
  Tc  Tc23  1  0.70782150  0.82229450  0.12978200  1
  Tc  Tc24  1  0.29230800  0.89510300  0.58264400  1
  Tc  Tc25  1  0.70769200  0.89510300  0.91735600  1
  Tc  Tc26  1  0.70769200  0.10489700  0.41735600  1
  Tc  Tc27  1  0.29230800  0.10489700  0.08264400  1
  Tc  Tc28  1  0.34334950  0.65335950  0.52560600  1
  Tc  Tc29  1  0.65665050  0.65335950  0.97439400  1
  Tc  Tc30  1  0.65665050  0.34664050  0.47439400  1
  Tc  Tc31  1  0.34334950  0.34664050  0.02560600  1
  Tc  Tc32  1  0.20782150  0.67770550  0.62978200  1
  Tc  Tc33  1  0.79217850  0.67770550  0.87021800  1
  Tc  Tc34  1  0.79217850  0.32229450  0.37021800  1
  Tc  Tc35  1  0.20782150  0.32229450  0.12978200  1
  Tc  Tc36  1  0.79230800  0.39510300  0.58264400  1
  Tc  Tc37  1  0.20769200  0.39510300  0.91735600  1
  Tc  Tc38  1  0.20769200  0.60489700  0.41735600  1
  Tc  Tc39  1  0.79230800  0.60489700  0.08264400  1
  S  S40  1  0.83490350  0.09273150  0.33317300  1
  S  S41  1  0.16509650  0.09273150  0.16682700  1
  S  S42  1  0.16509650  0.90726850  0.66682700  1
  S  S43  1  0.83490350  0.90726850  0.83317300  1
  S  S44  1  0.24259050  0.96407550  0.93109000  1
  S  S45  1  0.75740950  0.96407550  0.56891000  1
  S  S46  1  0.75740950  0.03592450  0.06891000  1
  S  S47  1  0.24259050  0.03592450  0.43109000  1
  S  S48  1  0.66415700  0.27443400  0.28430700  1
  S  S49  1  0.33584300  0.27443400  0.21569300  1
  S  S50  1  0.33584300  0.72556600  0.71569300  1
  S  S51  1  0.66415700  0.72556600  0.78430700  1
  S  S52  1  0.58539150  0.13963850  0.52014300  1
  S  S53  1  0.41460850  0.13963850  0.97985700  1
  S  S54  1  0.41460850  0.86036150  0.47985700  1
  S  S55  1  0.58539150  0.86036150  0.02014300  1
  S  S56  1  0.47031200  0.47000100  0.07297900  1
  S  S57  1  0.52968800  0.47000100  0.42702100  1
  S  S58  1  0.52968800  0.52999900  0.92702100  1
  S  S59  1  0.47031200  0.52999900  0.57297900  1
  S  S60  1  0.64897450  0.08729750  0.80473200  1
  S  S61  1  0.35102550  0.08729750  0.69526800  1
  S  S62  1  0.35102550  0.91270250  0.19526800  1
  S  S63  1  0.64897450  0.91270250  0.30473200  1
  S  S64  1  0.33490350  0.59273150  0.33317300  1
  S  S65  1  0.66509650  0.59273150  0.16682700  1
  S  S66  1  0.66509650  0.40726850  0.66682700  1
  S  S67  1  0.33490350  0.40726850  0.83317300  1
  S  S68  1  0.74259050  0.46407550  0.93109000  1
  S  S69  1  0.25740950  0.46407550  0.56891000  1
  S  S70  1  0.25740950  0.53592450  0.06891000  1
  S  S71  1  0.74259050  0.53592450  0.43109000  1
  S  S72  1  0.16415700  0.77443400  0.28430700  1
  S  S73  1  0.83584300  0.77443400  0.21569300  1
  S  S74  1  0.83584300  0.22556600  0.71569300  1
  S  S75  1  0.16415700  0.22556600  0.78430700  1
  S  S76  1  0.08539150  0.63963850  0.52014300  1
  S  S77  1  0.91460850  0.63963850  0.97985700  1
  S  S78  1  0.91460850  0.36036150  0.47985700  1
  S  S79  1  0.08539150  0.36036150  0.02014300  1
  S  S80  1  0.97031200  0.97000100  0.07297900  1
  S  S81  1  0.02968800  0.97000100  0.42702100  1
  S  S82  1  0.02968800  0.02999900  0.92702100  1
  S  S83  1  0.97031200  0.02999900  0.57297900  1
  S  S84  1  0.14897450  0.58729750  0.80473200  1
  S  S85  1  0.85102550  0.58729750  0.69526800  1
  S  S86  1  0.85102550  0.41270250  0.19526800  1
  S  S87  1  0.14897450  0.41270250  0.30473200  1
