# generated using pymatgen
data_Hg3(ClO)2
_symmetry_space_group_name_H-M   'P 1'
_cell_length_a   11.16262600
_cell_length_b   9.62263500
_cell_length_c   11.83186437
_cell_angle_alpha   90.00000000
_cell_angle_beta   108.93402093
_cell_angle_gamma   90.00000000
_symmetry_Int_Tables_number   1
_chemical_formula_structural   Hg3(ClO)2
_chemical_formula_sum   'Hg24 Cl16 O16'
_cell_volume   1202.14129406
_cell_formula_units_Z   8
loop_
 _symmetry_equiv_pos_site_id
 _symmetry_equiv_pos_as_xyz
  1  'x, y, z'
loop_
 _atom_site_type_symbol
 _atom_site_label
 _atom_site_symmetry_multiplicity
 _atom_site_fract_x
 _atom_site_fract_y
 _atom_site_fract_z
 _atom_site_occupancy
  Hg  Hg0  1  0.57645700  0.32743800  0.49355300  1
  Hg  Hg1  1  0.42354300  0.82743800  0.00644700  1
  Hg  Hg2  1  0.42354300  0.67256200  0.50644700  1
  Hg  Hg3  1  0.57645700  0.17256200  0.99355300  1
  Hg  Hg4  1  0.57722700  0.44580300  0.77746400  1
  Hg  Hg5  1  0.42277300  0.94580300  0.72253600  1
  Hg  Hg6  1  0.42277300  0.55419700  0.22253600  1
  Hg  Hg7  1  0.57722700  0.05419700  0.27746400  1
  Hg  Hg8  1  0.69267700  0.51763800  0.07642800  1
  Hg  Hg9  1  0.30732300  0.01763800  0.42357200  1
  Hg  Hg10  1  0.30732300  0.48236200  0.92357200  1
  Hg  Hg11  1  0.69267700  0.98236200  0.57642800  1
  Hg  Hg12  1  0.77880900  0.59954100  0.61517600  1
  Hg  Hg13  1  0.22119100  0.09954100  0.88482400  1
  Hg  Hg14  1  0.22119100  0.40045900  0.38482400  1
  Hg  Hg15  1  0.77880900  0.90045900  0.11517600  1
  Hg  Hg16  1  0.88619000  0.61415600  0.37056300  1
  Hg  Hg17  1  0.11381000  0.11415600  0.12943700  1
  Hg  Hg18  1  0.11381000  0.38584400  0.62943700  1
  Hg  Hg19  1  0.88619000  0.88584400  0.87056300  1
  Hg  Hg20  1  0.96100900  0.30772500  0.86749700  1
  Hg  Hg21  1  0.03899100  0.80772500  0.63250300  1
  Hg  Hg22  1  0.03899100  0.69227500  0.13250300  1
  Hg  Hg23  1  0.96100900  0.19227500  0.36749700  1
  Cl  Cl24  1  0.86187900  0.53027500  0.87417600  1
  Cl  Cl25  1  0.13812100  0.03027500  0.62582400  1
  Cl  Cl26  1  0.13812100  0.46972500  0.12582400  1
  Cl  Cl27  1  0.86187900  0.96972500  0.37417600  1
  Cl  Cl28  1  0.85702800  0.27031500  0.62689500  1
  Cl  Cl29  1  0.14297200  0.77031500  0.87310500  1
  Cl  Cl30  1  0.14297200  0.72968500  0.37310500  1
  Cl  Cl31  1  0.85702800  0.22968500  0.12689500  1
  Cl  Cl32  1  0.68049600  0.37778900  0.31479900  1
  Cl  Cl33  1  0.31950400  0.87778900  0.18520100  1
  Cl  Cl34  1  0.31950400  0.62221100  0.68520100  1
  Cl  Cl35  1  0.68049600  0.12221100  0.81479900  1
  Cl  Cl36  1  0.62148600  0.74056700  0.39695600  1
  Cl  Cl37  1  0.37851400  0.24056700  0.10304400  1
  Cl  Cl38  1  0.37851400  0.25943300  0.60304400  1
  Cl  Cl39  1  0.62148600  0.75943300  0.89695600  1
  O  O40  1  0.94682900  0.61465200  0.56129200  1
  O  O41  1  0.05317100  0.11465200  0.93870800  1
  O  O42  1  0.05317100  0.38534800  0.43870800  1
  O  O43  1  0.94682900  0.88534800  0.06129200  1
  O  O44  1  0.83186800  0.64883300  0.18589500  1
  O  O45  1  0.16813200  0.14883300  0.31410500  1
  O  O46  1  0.16813200  0.35116700  0.81410500  1
  O  O47  1  0.83186800  0.85116700  0.68589500  1
  O  O48  1  0.60101500  0.51146100  0.61629700  1
  O  O49  1  0.39898500  0.01146100  0.88370300  1
  O  O50  1  0.39898500  0.48853900  0.38370300  1
  O  O51  1  0.60101500  0.98853900  0.11629700  1
  O  O52  1  0.55999000  0.39498700  0.94430100  1
  O  O53  1  0.44001000  0.89498700  0.55569900  1
  O  O54  1  0.44001000  0.60501300  0.05569900  1
  O  O55  1  0.55999000  0.10501300  0.44430100  1
