# generated using pymatgen
data_Sr3Cu3(PO4)4
_symmetry_space_group_name_H-M   'P 1'
_cell_length_a   18.36195200
_cell_length_b   5.00599200
_cell_length_c   17.43975502
_cell_angle_alpha   90.00000000
_cell_angle_beta   117.15735966
_cell_angle_gamma   90.00000000
_symmetry_Int_Tables_number   1
_chemical_formula_structural   Sr3Cu3(PO4)4
_chemical_formula_sum   'Sr12 Cu12 P16 O64'
_cell_volume   1426.33143441
_cell_formula_units_Z   4
loop_
 _symmetry_equiv_pos_site_id
 _symmetry_equiv_pos_as_xyz
  1  'x, y, z'
loop_
 _atom_site_type_symbol
 _atom_site_label
 _atom_site_symmetry_multiplicity
 _atom_site_fract_x
 _atom_site_fract_y
 _atom_site_fract_z
 _atom_site_occupancy
  Sr  Sr0  1  0.15186850  0.30515250  0.63696000  1
  Sr  Sr1  1  0.34813150  0.80515250  0.86304000  1
  Sr  Sr2  1  0.00000000  0.71219100  0.25000000  1
  Sr  Sr3  1  0.00000000  0.28780900  0.75000000  1
  Sr  Sr4  1  0.65186850  0.19484750  0.13696000  1
  Sr  Sr5  1  0.84813150  0.69484750  0.36304000  1
  Sr  Sr6  1  0.65186850  0.80515250  0.63696000  1
  Sr  Sr7  1  0.84813150  0.30515250  0.86304000  1
  Sr  Sr8  1  0.50000000  0.21219100  0.25000000  1
  Sr  Sr9  1  0.50000000  0.78780900  0.75000000  1
  Sr  Sr10  1  0.15186850  0.69484750  0.13696000  1
  Sr  Sr11  1  0.34813150  0.19484750  0.36304000  1
  Cu  Cu12  1  0.89948450  0.73652150  0.03009100  1
  Cu  Cu13  1  0.89948450  0.26347850  0.53009100  1
  Cu  Cu14  1  0.10051550  0.73652150  0.46990900  1
  Cu  Cu15  1  0.10051550  0.26347850  0.96990900  1
  Cu  Cu16  1  0.25000000  0.75000000  0.00000000  1
  Cu  Cu17  1  0.75000000  0.75000000  0.50000000  1
  Cu  Cu18  1  0.39948450  0.23652150  0.03009100  1
  Cu  Cu19  1  0.39948450  0.76347850  0.53009100  1
  Cu  Cu20  1  0.60051550  0.23652150  0.46990900  1
  Cu  Cu21  1  0.60051550  0.76347850  0.96990900  1
  Cu  Cu22  1  0.75000000  0.25000000  0.00000000  1
  Cu  Cu23  1  0.25000000  0.25000000  0.50000000  1
  P  P24  1  0.98299500  0.79823300  0.89881100  1
  P  P25  1  0.71909750  0.24254850  0.38021100  1
  P  P26  1  0.21909750  0.25745150  0.88021100  1
  P  P27  1  0.78090250  0.74254850  0.11978900  1
  P  P28  1  0.28090250  0.75745150  0.61978900  1
  P  P29  1  0.01700500  0.20176700  0.10118900  1
  P  P30  1  0.01700500  0.79823300  0.60118900  1
  P  P31  1  0.98299500  0.20176700  0.39881100  1
  P  P32  1  0.48299500  0.29823300  0.89881100  1
  P  P33  1  0.21909750  0.74254850  0.38021100  1
  P  P34  1  0.71909750  0.75745150  0.88021100  1
  P  P35  1  0.28090250  0.24254850  0.11978900  1
  P  P36  1  0.78090250  0.25745150  0.61978900  1
  P  P37  1  0.51700500  0.70176700  0.10118900  1
  P  P38  1  0.51700500  0.29823300  0.60118900  1
  P  P39  1  0.48299500  0.70176700  0.39881100  1
  O  O40  1  0.25116700  0.05207000  0.59596900  1
  O  O41  1  0.90963650  0.22126850  0.42251800  1
  O  O42  1  0.93583800  0.30635600  0.03011300  1
  O  O43  1  0.28425450  0.07166850  0.95377800  1
  O  O44  1  0.93583800  0.69364400  0.53011300  1
  O  O45  1  0.24883300  0.55207000  0.90403100  1
  O  O46  1  0.21574550  0.57166850  0.54622200  1
  O  O47  1  0.75116700  0.44793000  0.09596900  1
  O  O48  1  0.06416200  0.30635600  0.46988700  1
  O  O49  1  0.13448750  0.78580150  0.37769000  1
  O  O50  1  0.13448750  0.21419850  0.87769000  1
  O  O51  1  0.40963650  0.27873150  0.92251800  1
  O  O52  1  0.04667400  0.65300300  0.68763700  1
  O  O53  1  0.78425450  0.42833150  0.45377800  1
  O  O54  1  0.99232200  0.10837500  0.88621600  1
  O  O55  1  0.71733200  0.31955800  0.29474700  1
  O  O56  1  0.78266800  0.81955800  0.20525300  1
  O  O57  1  0.86551250  0.21419850  0.62231000  1
  O  O58  1  0.28266800  0.68044200  0.70525300  1
  O  O59  1  0.99232200  0.89162500  0.38621600  1
  O  O60  1  0.95332600  0.34699700  0.31236300  1
  O  O61  1  0.59036350  0.72126850  0.07748200  1
  O  O62  1  0.74883300  0.94793000  0.40403100  1
  O  O63  1  0.09036350  0.77873150  0.57748200  1
  O  O64  1  0.00767800  0.89162500  0.11378400  1
  O  O65  1  0.04667400  0.34699700  0.18763700  1
  O  O66  1  0.00767800  0.10837500  0.61378400  1
  O  O67  1  0.06416200  0.69364400  0.96988700  1
  O  O68  1  0.86551250  0.78580150  0.12231000  1
  O  O69  1  0.95332600  0.65300300  0.81236300  1
  O  O70  1  0.71574550  0.92833150  0.04622200  1
  O  O71  1  0.21733200  0.18044200  0.79474700  1
  O  O72  1  0.75116700  0.55207000  0.59596900  1
  O  O73  1  0.40963650  0.72126850  0.42251800  1
  O  O74  1  0.43583800  0.80635600  0.03011300  1
  O  O75  1  0.78425450  0.57166850  0.95377800  1
  O  O76  1  0.43583800  0.19364400  0.53011300  1
  O  O77  1  0.74883300  0.05207000  0.90403100  1
  O  O78  1  0.71574550  0.07166850  0.54622200  1
  O  O79  1  0.25116700  0.94793000  0.09596900  1
  O  O80  1  0.56416200  0.80635600  0.46988700  1
  O  O81  1  0.63448750  0.28580150  0.37769000  1
  O  O82  1  0.63448750  0.71419850  0.87769000  1
  O  O83  1  0.90963650  0.77873150  0.92251800  1
  O  O84  1  0.54667400  0.15300300  0.68763700  1
  O  O85  1  0.28425450  0.92833150  0.45377800  1
  O  O86  1  0.49232200  0.60837500  0.88621600  1
  O  O87  1  0.21733200  0.81955800  0.29474700  1
  O  O88  1  0.28266800  0.31955800  0.20525300  1
  O  O89  1  0.36551250  0.71419850  0.62231000  1
  O  O90  1  0.78266800  0.18044200  0.70525300  1
  O  O91  1  0.49232200  0.39162500  0.38621600  1
  O  O92  1  0.45332600  0.84699700  0.31236300  1
  O  O93  1  0.09036350  0.22126850  0.07748200  1
  O  O94  1  0.24883300  0.44793000  0.40403100  1
  O  O95  1  0.59036350  0.27873150  0.57748200  1
  O  O96  1  0.50767800  0.39162500  0.11378400  1
  O  O97  1  0.54667400  0.84699700  0.18763700  1
  O  O98  1  0.50767800  0.60837500  0.61378400  1
  O  O99  1  0.56416200  0.19364400  0.96988700  1
  O  O100  1  0.36551250  0.28580150  0.12231000  1
  O  O101  1  0.45332600  0.15300300  0.81236300  1
  O  O102  1  0.21574550  0.42833150  0.04622200  1
  O  O103  1  0.71733200  0.68044200  0.79474700  1
