# generated using pymatgen
data_BaUI6
_symmetry_space_group_name_H-M   'P 1'
_cell_length_a   8.35887400
_cell_length_b   14.58538000
_cell_length_c   15.35449351
_cell_angle_alpha   90.00000000
_cell_angle_beta   101.26896262
_cell_angle_gamma   90.00000000
_symmetry_Int_Tables_number   1
_chemical_formula_structural   BaUI6
_chemical_formula_sum   'Ba4 U4 I24'
_cell_volume   1835.88869068
_cell_formula_units_Z   4
loop_
 _symmetry_equiv_pos_site_id
 _symmetry_equiv_pos_as_xyz
  1  'x, y, z'
loop_
 _atom_site_type_symbol
 _atom_site_label
 _atom_site_symmetry_multiplicity
 _atom_site_fract_x
 _atom_site_fract_y
 _atom_site_fract_z
 _atom_site_occupancy
  Ba  Ba0  1  0.75192000  0.58242600  0.00333000  1
  Ba  Ba1  1  0.25192000  0.91757400  0.50333000  1
  Ba  Ba2  1  0.25192000  0.08242600  0.00333000  1
  Ba  Ba3  1  0.75192000  0.41757400  0.50333000  1
  U  U4  1  0.25355750  0.58689250  0.50100900  1
  U  U5  1  0.75355750  0.91310750  0.00100900  1
  U  U6  1  0.75355750  0.08689250  0.50100900  1
  U  U7  1  0.25355750  0.41310750  0.00100900  1
  I  I8  1  0.15417350  0.56122850  0.11763600  1
  I  I9  1  0.65417350  0.93877150  0.61763600  1
  I  I10  1  0.65835000  0.76983100  0.12478300  1
  I  I11  1  0.34360500  0.73260500  0.37864300  1
  I  I12  1  0.15835000  0.73016900  0.62478300  1
  I  I13  1  0.59504350  0.59453550  0.61294200  1
  I  I14  1  0.09504350  0.90546450  0.11294200  1
  I  I15  1  0.85742150  0.94212750  0.38231200  1
  I  I16  1  0.84360500  0.76739500  0.87864300  1
  I  I17  1  0.41592850  0.91529750  0.88474500  1
  I  I18  1  0.91592850  0.58470250  0.38474500  1
  I  I19  1  0.35742150  0.55787250  0.88231200  1
  I  I20  1  0.65417350  0.06122850  0.11763600  1
  I  I21  1  0.15417350  0.43877150  0.61763600  1
  I  I22  1  0.15835000  0.26983100  0.12478300  1
  I  I23  1  0.84360500  0.23260500  0.37864300  1
  I  I24  1  0.65835000  0.23016900  0.62478300  1
  I  I25  1  0.09504350  0.09453550  0.61294200  1
  I  I26  1  0.59504350  0.40546450  0.11294200  1
  I  I27  1  0.35742150  0.44212750  0.38231200  1
  I  I28  1  0.34360500  0.26739500  0.87864300  1
  I  I29  1  0.91592850  0.41529750  0.88474500  1
  I  I30  1  0.41592850  0.08470250  0.38474500  1
  I  I31  1  0.85742150  0.05787250  0.88231200  1
