# generated using pymatgen
data_Na3OsO5
_symmetry_space_group_name_H-M   'P 1'
_cell_length_a   5.62429941
_cell_length_b   5.62429941
_cell_length_c   13.62615400
_cell_angle_alpha   90.00000000
_cell_angle_beta   90.00000000
_cell_angle_gamma   120.00000000
_symmetry_Int_Tables_number   1
_chemical_formula_structural   Na3OsO5
_chemical_formula_sum   'Na9 Os3 O15'
_cell_volume   373.28521572
_cell_formula_units_Z   3
loop_
 _symmetry_equiv_pos_site_id
 _symmetry_equiv_pos_as_xyz
  1  'x, y, z'
loop_
 _atom_site_type_symbol
 _atom_site_label
 _atom_site_symmetry_multiplicity
 _atom_site_fract_x
 _atom_site_fract_y
 _atom_site_fract_z
 _atom_site_occupancy
  Na  Na0  1  0.91416500  0.29523400  0.91502300  1
  Na  Na1  1  0.70476600  0.61893100  0.24835633  1
  Na  Na2  1  0.08583500  0.38106900  0.41831033  1
  Na  Na3  1  0.38106900  0.08583500  0.58168967  1
  Na  Na4  1  0.72341700  0.72341700  0.50000000  1
  Na  Na5  1  0.61893100  0.70476600  0.75164367  1
  Na  Na6  1  0.27658300  0.00000000  0.83333333  1
  Na  Na7  1  0.00000000  0.27658300  0.16666667  1
  Na  Na8  1  0.29523400  0.91416500  0.08497700  1
  Os  Os9  1  0.38433100  0.00000000  0.33333333  1
  Os  Os10  1  0.00000000  0.38433100  0.66666667  1
  Os  Os11  1  0.61566900  0.61566900  0.00000000  1
  O  O12  1  0.48411000  0.82347300  0.93509100  1
  O  O13  1  0.00000000  0.70199400  0.66666667  1
  O  O14  1  0.51589000  0.33936300  0.39824233  1
  O  O15  1  0.66063700  0.17652700  0.73157567  1
  O  O16  1  0.84037800  0.15631500  0.56120200  1
  O  O17  1  0.15962200  0.31593700  0.77213133  1
  O  O18  1  0.82347300  0.48411000  0.06490900  1
  O  O19  1  0.84368500  0.68406300  0.89453533  1
  O  O20  1  0.31593700  0.15962200  0.22786867  1
  O  O21  1  0.15631500  0.84037800  0.43879800  1
  O  O22  1  0.70199400  0.00000000  0.33333333  1
  O  O23  1  0.17652700  0.66063700  0.26842433  1
  O  O24  1  0.33936300  0.51589000  0.60175767  1
  O  O25  1  0.29800600  0.29800600  0.00000000  1
  O  O26  1  0.68406300  0.84368500  0.10546467  1
