# generated using pymatgen
data_Lu2Te4O11
_symmetry_space_group_name_H-M   'P 1'
_cell_length_a   12.34948800
_cell_length_b   5.10394800
_cell_length_c   16.14976883
_cell_angle_alpha   90.00000000
_cell_angle_beta   105.43108312
_cell_angle_gamma   90.00000000
_symmetry_Int_Tables_number   1
_chemical_formula_structural   Lu2Te4O11
_chemical_formula_sum   'Lu8 Te16 O44'
_cell_volume   981.24295300
_cell_formula_units_Z   4
loop_
 _symmetry_equiv_pos_site_id
 _symmetry_equiv_pos_as_xyz
  1  'x, y, z'
loop_
 _atom_site_type_symbol
 _atom_site_label
 _atom_site_symmetry_multiplicity
 _atom_site_fract_x
 _atom_site_fract_y
 _atom_site_fract_z
 _atom_site_occupancy
  Lu  Lu0  1  0.38002300  0.74892800  0.96338400  1
  Lu  Lu1  1  0.11997700  0.24892800  0.53661600  1
  Lu  Lu2  1  0.61997700  0.25107200  0.03661600  1
  Lu  Lu3  1  0.88002300  0.75107200  0.46338400  1
  Lu  Lu4  1  0.88002300  0.24892800  0.96338400  1
  Lu  Lu5  1  0.61997700  0.74892800  0.53661600  1
  Lu  Lu6  1  0.11997700  0.75107200  0.03661600  1
  Lu  Lu7  1  0.38002300  0.25107200  0.46338400  1
  Te  Te8  1  0.87318000  0.28275500  0.62450600  1
  Te  Te9  1  0.12682000  0.28275500  0.87549400  1
  Te  Te10  1  0.12682000  0.71724500  0.37549400  1
  Te  Te11  1  0.87318000  0.71724500  0.12450600  1
  Te  Te12  1  0.37737200  0.22011900  0.80288400  1
  Te  Te13  1  0.12262800  0.72011900  0.69711600  1
  Te  Te14  1  0.62262800  0.77988100  0.19711600  1
  Te  Te15  1  0.87737200  0.27988100  0.30288400  1
  Te  Te16  1  0.37318000  0.78275500  0.62450600  1
  Te  Te17  1  0.62682000  0.78275500  0.87549400  1
  Te  Te18  1  0.62682000  0.21724500  0.37549400  1
  Te  Te19  1  0.37318000  0.21724500  0.12450600  1
  Te  Te20  1  0.87737200  0.72011900  0.80288400  1
  Te  Te21  1  0.62262800  0.22011900  0.69711600  1
  Te  Te22  1  0.12262800  0.27988100  0.19711600  1
  Te  Te23  1  0.37737200  0.77988100  0.30288400  1
  O  O24  1  0.24650900  0.56047400  0.62680800  1
  O  O25  1  0.25349100  0.06047400  0.87319200  1
  O  O26  1  0.75349100  0.43952600  0.37319200  1
  O  O27  1  0.74650900  0.93952600  0.12680800  1
  O  O28  1  0.79216300  0.54944000  0.55083300  1
  O  O29  1  0.20783700  0.54944000  0.94916700  1
  O  O30  1  0.20783700  0.45056000  0.44916700  1
  O  O31  1  0.79216300  0.45056000  0.05083300  1
  O  O32  1  0.93133950  0.10129250  0.54345100  1
  O  O33  1  0.06866050  0.10129250  0.95654900  1
  O  O34  1  0.06866050  0.89870750  0.45654900  1
  O  O35  1  0.93133950  0.89870750  0.04345100  1
  O  O36  1  0.02374200  0.57203800  0.59353900  1
  O  O37  1  0.97625800  0.57203800  0.90646100  1
  O  O38  1  0.97625800  0.42796200  0.40646100  1
  O  O39  1  0.02374200  0.42796200  0.09353900  1
  O  O40  1  0.14899900  0.06106600  0.66493700  1
  O  O41  1  0.35100100  0.56106600  0.83506300  1
  O  O42  1  0.85100100  0.93893400  0.33506300  1
  O  O43  1  0.64899900  0.43893400  0.16493700  1
  O  O44  1  0.00000000  0.85657200  0.75000000  1
  O  O45  1  0.00000000  0.14342800  0.25000000  1
  O  O46  1  0.74650900  0.06047400  0.62680800  1
  O  O47  1  0.75349100  0.56047400  0.87319200  1
  O  O48  1  0.25349100  0.93952600  0.37319200  1
  O  O49  1  0.24650900  0.43952600  0.12680800  1
  O  O50  1  0.29216300  0.04944000  0.55083300  1
  O  O51  1  0.70783700  0.04944000  0.94916700  1
  O  O52  1  0.70783700  0.95056000  0.44916700  1
  O  O53  1  0.29216300  0.95056000  0.05083300  1
  O  O54  1  0.43133950  0.60129250  0.54345100  1
  O  O55  1  0.56866050  0.60129250  0.95654900  1
  O  O56  1  0.56866050  0.39870750  0.45654900  1
  O  O57  1  0.43133950  0.39870750  0.04345100  1
  O  O58  1  0.52374200  0.07203800  0.59353900  1
  O  O59  1  0.47625800  0.07203800  0.90646100  1
  O  O60  1  0.47625800  0.92796200  0.40646100  1
  O  O61  1  0.52374200  0.92796200  0.09353900  1
  O  O62  1  0.64899900  0.56106600  0.66493700  1
  O  O63  1  0.85100100  0.06106600  0.83506300  1
  O  O64  1  0.35100100  0.43893400  0.33506300  1
  O  O65  1  0.14899900  0.93893400  0.16493700  1
  O  O66  1  0.50000000  0.35657200  0.75000000  1
  O  O67  1  0.50000000  0.64342800  0.25000000  1
