# generated using pymatgen
data_KLi4AlO4
_symmetry_space_group_name_H-M   'P 1'
_cell_length_a   5.60137200
_cell_length_b   15.59877400
_cell_length_c   11.14799616
_cell_angle_alpha   90.00000000
_cell_angle_beta   109.61803850
_cell_angle_gamma   90.00000000
_symmetry_Int_Tables_number   1
_chemical_formula_structural   KLi4AlO4
_chemical_formula_sum   'K8 Li32 Al8 O32'
_cell_volume   917.50907986
_cell_formula_units_Z   8
loop_
 _symmetry_equiv_pos_site_id
 _symmetry_equiv_pos_as_xyz
  1  'x, y, z'
loop_
 _atom_site_type_symbol
 _atom_site_label
 _atom_site_symmetry_multiplicity
 _atom_site_fract_x
 _atom_site_fract_y
 _atom_site_fract_z
 _atom_site_occupancy
  K  K0  1  0.40599000  0.79712800  0.77165800  1
  K  K1  1  0.59401000  0.20287200  0.22834200  1
  K  K2  1  0.04897600  0.42807100  0.66627000  1
  K  K3  1  0.95102400  0.92807100  0.83373000  1
  K  K4  1  0.95102400  0.57192900  0.33373000  1
  K  K5  1  0.04897600  0.07192900  0.16627000  1
  K  K6  1  0.40599000  0.70287200  0.27165800  1
  K  K7  1  0.59401000  0.29712800  0.72834200  1
  Li  Li8  1  0.06058400  0.92247900  0.54250000  1
  Li  Li9  1  0.08804100  0.62276700  0.77031300  1
  Li  Li10  1  0.33046400  0.62039200  0.62797300  1
  Li  Li11  1  0.66953600  0.37960800  0.37202700  1
  Li  Li12  1  0.21523400  0.16154200  0.62779400  1
  Li  Li13  1  0.47006900  0.34668000  0.99234100  1
  Li  Li14  1  0.93941600  0.42247900  0.95750000  1
  Li  Li15  1  0.31080400  0.98012800  0.42309300  1
  Li  Li16  1  0.47006900  0.15332000  0.49234100  1
  Li  Li17  1  0.66953600  0.12039200  0.87202700  1
  Li  Li18  1  0.36011000  0.43290900  0.47766700  1
  Li  Li19  1  0.89142300  0.23855900  0.02357600  1
  Li  Li20  1  0.06058400  0.57752100  0.04250000  1
  Li  Li21  1  0.68919600  0.48012800  0.07690700  1
  Li  Li22  1  0.52993100  0.65332000  0.00765900  1
  Li  Li23  1  0.63989000  0.56709100  0.52233300  1
  Li  Li24  1  0.78476600  0.66154200  0.87220600  1
  Li  Li25  1  0.52993100  0.84668000  0.50765900  1
  Li  Li26  1  0.21523400  0.33845800  0.12779400  1
  Li  Li27  1  0.36011000  0.06709100  0.97766700  1
  Li  Li28  1  0.78476600  0.83845800  0.37220600  1
  Li  Li29  1  0.91195900  0.37723300  0.22968700  1
  Li  Li30  1  0.91195900  0.12276700  0.72968700  1
  Li  Li31  1  0.89142300  0.26144100  0.52357600  1
  Li  Li32  1  0.31080400  0.51987200  0.92309300  1
  Li  Li33  1  0.10857700  0.76144100  0.97642400  1
  Li  Li34  1  0.68919600  0.01987200  0.57690700  1
  Li  Li35  1  0.33046400  0.87960800  0.12797300  1
  Li  Li36  1  0.10857700  0.73855900  0.47642400  1
  Li  Li37  1  0.08804100  0.87723300  0.27031300  1
  Li  Li38  1  0.93941600  0.07752100  0.45750000  1
  Li  Li39  1  0.63989000  0.93290900  0.02233300  1
  Al  Al40  1  0.81169300  0.72648900  0.61887300  1
  Al  Al41  1  0.61646600  0.98373000  0.29685600  1
  Al  Al42  1  0.38353400  0.01627000  0.70314400  1
  Al  Al43  1  0.38353400  0.48373000  0.20314400  1
  Al  Al44  1  0.18830700  0.22648900  0.88112700  1
  Al  Al45  1  0.18830700  0.27351100  0.38112700  1
  Al  Al46  1  0.61646600  0.51627000  0.79685600  1
  Al  Al47  1  0.81169300  0.77351100  0.11887300  1
  O  O48  1  0.45057400  0.60912200  0.82495900  1
  O  O49  1  0.96286500  0.86563000  0.07763900  1
  O  O50  1  0.52618100  0.28492200  0.44917300  1
  O  O51  1  0.09808300  0.31777200  0.95103000  1
  O  O52  1  0.03713500  0.36563000  0.42236100  1
  O  O53  1  0.93481600  0.73701000  0.78884200  1
  O  O54  1  0.03713500  0.13437000  0.92236100  1
  O  O55  1  0.47381900  0.71507800  0.55082700  1
  O  O56  1  0.50030200  0.99704000  0.86785800  1
  O  O57  1  0.06518400  0.26299000  0.21115800  1
  O  O58  1  0.54942600  0.10912200  0.67504100  1
  O  O59  1  0.93481600  0.76299000  0.28884200  1
  O  O60  1  0.50030200  0.50296000  0.36785800  1
  O  O61  1  0.49969800  0.00296000  0.13214200  1
  O  O62  1  0.44068800  0.93627000  0.60204400  1
  O  O63  1  0.54942600  0.39087800  0.17504100  1
  O  O64  1  0.04957900  0.46388300  0.13993200  1
  O  O65  1  0.47381900  0.78492200  0.05082700  1
  O  O66  1  0.09808300  0.18222800  0.45103000  1
  O  O67  1  0.90191700  0.81777200  0.54897000  1
  O  O68  1  0.55931200  0.43627000  0.89795600  1
  O  O69  1  0.45057400  0.89087800  0.32495900  1
  O  O70  1  0.96286500  0.63437000  0.57763900  1
  O  O71  1  0.49969800  0.49704000  0.63214200  1
  O  O72  1  0.04957900  0.03611700  0.63993200  1
  O  O73  1  0.44068800  0.56373000  0.10204400  1
  O  O74  1  0.55931200  0.06373000  0.39795600  1
  O  O75  1  0.90191700  0.68222800  0.04897000  1
  O  O76  1  0.52618100  0.21507800  0.94917300  1
  O  O77  1  0.06518400  0.23701000  0.71115800  1
  O  O78  1  0.95042100  0.53611700  0.86006800  1
  O  O79  1  0.95042100  0.96388300  0.36006800  1
