# generated using pymatgen
data_VCuO3
_symmetry_space_group_name_H-M   'P 1'
_cell_length_a   5.00028582
_cell_length_b   5.00028582
_cell_length_c   14.26146246
_cell_angle_alpha   90.00000000
_cell_angle_beta   90.00000000
_cell_angle_gamma   120.00000000
_symmetry_Int_Tables_number   1
_chemical_formula_structural   VCuO3
_chemical_formula_sum   'V6 Cu6 O18'
_cell_volume   308.80502151
_cell_formula_units_Z   6
loop_
 _symmetry_equiv_pos_site_id
 _symmetry_equiv_pos_as_xyz
  1  'x, y, z'
loop_
 _atom_site_type_symbol
 _atom_site_label
 _atom_site_symmetry_multiplicity
 _atom_site_fract_x
 _atom_site_fract_y
 _atom_site_fract_z
 _atom_site_occupancy
  V  V0  1  0.33333333  0.66666667  0.01944167  1
  V  V1  1  0.33333333  0.66666667  0.31389167  1
  V  V2  1  0.00000000  0.00000000  0.35277500  1
  V  V3  1  0.00000000  0.00000000  0.64722500  1
  V  V4  1  0.66666667  0.33333333  0.68610833  1
  V  V5  1  0.66666667  0.33333333  0.98055833  1
  Cu  Cu6  1  0.00000000  0.00000000  0.14035900  1
  Cu  Cu7  1  0.66666667  0.33333333  0.19297433  1
  Cu  Cu8  1  0.66666667  0.33333333  0.47369233  1
  Cu  Cu9  1  0.33333333  0.66666667  0.52630767  1
  Cu  Cu10  1  0.33333333  0.66666667  0.80702567  1
  Cu  Cu11  1  0.00000000  0.00000000  0.85964100  1
  O  O12  1  0.63945633  0.62977967  0.07608967  1
  O  O13  1  0.99032333  0.36054367  0.07608967  1
  O  O14  1  0.37022033  0.00967667  0.07608967  1
  O  O15  1  0.02721033  0.70355367  0.25724367  1
  O  O16  1  0.29644633  0.32365667  0.25724367  1
  O  O17  1  0.67634333  0.97278967  0.25724367  1
  O  O18  1  0.30612300  0.96311300  0.40942300  1
  O  O19  1  0.65699000  0.69387700  0.40942300  1
  O  O20  1  0.03688700  0.34301000  0.40942300  1
  O  O21  1  0.69387700  0.03688700  0.59057700  1
  O  O22  1  0.96311300  0.65699000  0.59057700  1
  O  O23  1  0.34301000  0.30612300  0.59057700  1
  O  O24  1  0.97278967  0.29644633  0.74275633  1
  O  O25  1  0.32365667  0.02721033  0.74275633  1
  O  O26  1  0.70355367  0.67634333  0.74275633  1
  O  O27  1  0.36054367  0.37022033  0.92391033  1
  O  O28  1  0.62977967  0.99032333  0.92391033  1
  O  O29  1  0.00967667  0.63945633  0.92391033  1
