# generated using pymatgen
data_Ge3N4
_symmetry_space_group_name_H-M   'P 1'
_cell_length_a   6.87335600
_cell_length_b   6.87335600
_cell_length_c   6.87335600
_cell_angle_alpha   90.00000000
_cell_angle_beta   90.00000000
_cell_angle_gamma   90.00000000
_symmetry_Int_Tables_number   1
_chemical_formula_structural   Ge3N4
_chemical_formula_sum   'Ge12 N16'
_cell_volume   324.71811355
_cell_formula_units_Z   4
loop_
 _symmetry_equiv_pos_site_id
 _symmetry_equiv_pos_as_xyz
  1  'x, y, z'
loop_
 _atom_site_type_symbol
 _atom_site_label
 _atom_site_symmetry_multiplicity
 _atom_site_fract_x
 _atom_site_fract_y
 _atom_site_fract_z
 _atom_site_occupancy
  Ge  Ge0  1  0.75000000  0.37500000  0.50000000  1
  Ge  Ge1  1  0.12500000  0.50000000  0.25000000  1
  Ge  Ge2  1  0.37500000  0.50000000  0.75000000  1
  Ge  Ge3  1  0.25000000  0.12500000  0.50000000  1
  Ge  Ge4  1  0.50000000  0.75000000  0.37500000  1
  Ge  Ge5  1  0.50000000  0.25000000  0.12500000  1
  Ge  Ge6  1  0.25000000  0.87500000  0.00000000  1
  Ge  Ge7  1  0.62500000  0.00000000  0.75000000  1
  Ge  Ge8  1  0.87500000  0.00000000  0.25000000  1
  Ge  Ge9  1  0.75000000  0.62500000  0.00000000  1
  Ge  Ge10  1  0.00000000  0.25000000  0.87500000  1
  Ge  Ge11  1  0.00000000  0.75000000  0.62500000  1
  N  N12  1  0.22251000  0.72251000  0.77749000  1
  N  N13  1  0.47251000  0.02749000  0.97251000  1
  N  N14  1  0.27749000  0.27749000  0.27749000  1
  N  N15  1  0.77749000  0.22251000  0.72251000  1
  N  N16  1  0.02749000  0.02749000  0.02749000  1
  N  N17  1  0.97251000  0.47251000  0.02749000  1
  N  N18  1  0.02749000  0.97251000  0.47251000  1
  N  N19  1  0.72251000  0.77749000  0.22251000  1
  N  N20  1  0.72251000  0.22251000  0.27749000  1
  N  N21  1  0.97251000  0.52749000  0.47251000  1
  N  N22  1  0.77749000  0.77749000  0.77749000  1
  N  N23  1  0.27749000  0.72251000  0.22251000  1
  N  N24  1  0.52749000  0.52749000  0.52749000  1
  N  N25  1  0.47251000  0.97251000  0.52749000  1
  N  N26  1  0.52749000  0.47251000  0.97251000  1
  N  N27  1  0.22251000  0.27749000  0.72251000  1
