# generated using pymatgen
data_Zr4Cd(PO4)6
_symmetry_space_group_name_H-M   'P 1'
_cell_length_a   8.98971228
_cell_length_b   8.98971228
_cell_length_c   22.49476397
_cell_angle_alpha   90.00000000
_cell_angle_beta   90.00000000
_cell_angle_gamma   120.00000000
_symmetry_Int_Tables_number   1
_chemical_formula_structural   Zr4Cd(PO4)6
_chemical_formula_sum   'Zr12 Cd3 P18 O72'
_cell_volume   1574.35858365
_cell_formula_units_Z   3
loop_
 _symmetry_equiv_pos_site_id
 _symmetry_equiv_pos_as_xyz
  1  'x, y, z'
loop_
 _atom_site_type_symbol
 _atom_site_label
 _atom_site_symmetry_multiplicity
 _atom_site_fract_x
 _atom_site_fract_y
 _atom_site_fract_z
 _atom_site_occupancy
  Zr  Zr0  1  0.66666667  0.33333333  0.19685833  1
  Zr  Zr1  1  0.00000000  0.00000000  0.13647500  1
  Zr  Zr2  1  0.33333333  0.66666667  0.01848767  1
  Zr  Zr3  1  0.33333333  0.66666667  0.31484567  1
  Zr  Zr4  1  0.33333333  0.66666667  0.53019167  1
  Zr  Zr5  1  0.66666667  0.33333333  0.46980833  1
  Zr  Zr6  1  0.00000000  0.00000000  0.35182100  1
  Zr  Zr7  1  0.00000000  0.00000000  0.64817900  1
  Zr  Zr8  1  0.00000000  0.00000000  0.86352500  1
  Zr  Zr9  1  0.33333333  0.66666667  0.80314167  1
  Zr  Zr10  1  0.66666667  0.33333333  0.68515433  1
  Zr  Zr11  1  0.66666667  0.33333333  0.98151233  1
  Cd  Cd12  1  0.33333333  0.66666667  0.16666667  1
  Cd  Cd13  1  1.00000000  0.00000000  0.50000000  1
  Cd  Cd14  1  0.66666667  0.33333333  0.83333333  1
  P  P15  1  0.65662900  0.03999000  0.08681300  1
  P  P16  1  0.96001000  0.61663900  0.08681300  1
  P  P17  1  0.38336100  0.34337100  0.08681300  1
  P  P18  1  0.01003767  0.29334333  0.24652033  1
  P  P19  1  0.70665667  0.71669433  0.24652033  1
  P  P20  1  0.28330567  0.98996233  0.24652033  1
  P  P21  1  0.32329567  0.37332333  0.42014633  1
  P  P22  1  0.62667667  0.94997233  0.42014633  1
  P  P23  1  0.05002767  0.67670433  0.42014633  1
  P  P24  1  0.67670433  0.62667667  0.57985367  1
  P  P25  1  0.37332333  0.05002767  0.57985367  1
  P  P26  1  0.94997233  0.32329567  0.57985367  1
  P  P27  1  0.98996233  0.70665667  0.75347967  1
  P  P28  1  0.29334333  0.28330567  0.75347967  1
  P  P29  1  0.71669433  0.01003767  0.75347967  1
  P  P30  1  0.34337100  0.96001000  0.91318700  1
  P  P31  1  0.03999000  0.38336100  0.91318700  1
  P  P32  1  0.61663900  0.65662900  0.91318700  1
  O  O33  1  0.64414933  0.13282167  0.14181667  1
  O  O34  1  0.86717833  0.51132767  0.14181667  1
  O  O35  1  0.48867233  0.35585067  0.14181667  1
  O  O36  1  0.02251733  0.20051167  0.19151667  1
  O  O37  1  0.79948833  0.82200567  0.19151667  1
  O  O38  1  0.17799433  0.97748267  0.19151667  1
  O  O39  1  0.80367367  0.81217733  0.30381033  1
  O  O40  1  0.18782267  0.99149633  0.30381033  1
  O  O41  1  0.00850367  0.19632633  0.30381033  1
  O  O42  1  0.86299300  0.52115600  0.02952300  1
  O  O43  1  0.47884400  0.34183700  0.02952300  1
  O  O44  1  0.65816300  0.13700700  0.02952300  1
  O  O45  1  0.84793333  0.30900167  0.24655067  1
  O  O46  1  0.69099833  0.53893167  0.24655067  1
  O  O47  1  0.46106833  0.15206667  0.24655067  1
  O  O48  1  0.81873333  0.02433167  0.08678267  1
  O  O49  1  0.97566833  0.79440167  0.08678267  1
  O  O50  1  0.20559833  0.18126667  0.08678267  1
  O  O51  1  0.14495367  0.63966133  0.08582033  1
  O  O52  1  0.36033867  0.50529233  0.08582033  1
  O  O53  1  0.49470767  0.85504633  0.08582033  1
  O  O54  1  0.52171300  0.69367200  0.24751300  1
  O  O55  1  0.30632800  0.82804100  0.24751300  1
  O  O56  1  0.17195900  0.47828700  0.24751300  1
  O  O57  1  0.31081600  0.46615500  0.47515000  1
  O  O58  1  0.53384500  0.84466100  0.47515000  1
  O  O59  1  0.15533900  0.68918400  0.47515000  1
  O  O60  1  0.68918400  0.53384500  0.52485000  1
  O  O61  1  0.46615500  0.15533900  0.52485000  1
  O  O62  1  0.84466100  0.31081600  0.52485000  1
  O  O63  1  0.47034033  0.14551067  0.63714367  1
  O  O64  1  0.85448933  0.32482967  0.63714367  1
  O  O65  1  0.67517033  0.52965967  0.63714367  1
  O  O66  1  0.52965967  0.85448933  0.36285633  1
  O  O67  1  0.14551067  0.67517033  0.36285633  1
  O  O68  1  0.32482967  0.47034033  0.36285633  1
  O  O69  1  0.51460000  0.64233500  0.57988400  1
  O  O70  1  0.35766500  0.87226500  0.57988400  1
  O  O71  1  0.12773500  0.48540000  0.57988400  1
  O  O72  1  0.48540000  0.35766500  0.42011600  1
  O  O73  1  0.64233500  0.12773500  0.42011600  1
  O  O74  1  0.87226500  0.51460000  0.42011600  1
  O  O75  1  0.81162033  0.97299467  0.41915367  1
  O  O76  1  0.02700533  0.83862567  0.41915367  1
  O  O77  1  0.16137433  0.18837967  0.41915367  1
  O  O78  1  0.18837967  0.02700533  0.58084633  1
  O  O79  1  0.97299467  0.16137433  0.58084633  1
  O  O80  1  0.83862567  0.81162033  0.58084633  1
  O  O81  1  0.97748267  0.79948833  0.80848333  1
  O  O82  1  0.20051167  0.17799433  0.80848333  1
  O  O83  1  0.82200567  0.02251733  0.80848333  1
  O  O84  1  0.35585067  0.86717833  0.85818333  1
  O  O85  1  0.13282167  0.48867233  0.85818333  1
  O  O86  1  0.51132767  0.64414933  0.85818333  1
  O  O87  1  0.13700700  0.47884400  0.97047700  1
  O  O88  1  0.52115600  0.65816300  0.97047700  1
  O  O89  1  0.34183700  0.86299300  0.97047700  1
  O  O90  1  0.19632633  0.18782267  0.69618967  1
  O  O91  1  0.81217733  0.00850367  0.69618967  1
  O  O92  1  0.99149633  0.80367367  0.69618967  1
  O  O93  1  0.18126667  0.97566833  0.91321733  1
  O  O94  1  0.02433167  0.20559833  0.91321733  1
  O  O95  1  0.79440167  0.81873333  0.91321733  1
  O  O96  1  0.15206667  0.69099833  0.75344933  1
  O  O97  1  0.30900167  0.46106833  0.75344933  1
  O  O98  1  0.53893167  0.84793333  0.75344933  1
  O  O99  1  0.47828700  0.30632800  0.75248700  1
  O  O100  1  0.69367200  0.17195900  0.75248700  1
  O  O101  1  0.82804100  0.52171300  0.75248700  1
  O  O102  1  0.85504633  0.36033867  0.91417967  1
  O  O103  1  0.63966133  0.49470767  0.91417967  1
  O  O104  1  0.50529233  0.14495367  0.91417967  1
