# generated using pymatgen
data_CdSnP2
_symmetry_space_group_name_H-M   'P 1'
_cell_length_a   5.98535200
_cell_length_b   5.98535200
_cell_length_c   11.72470000
_cell_angle_alpha   90.00000000
_cell_angle_beta   90.00000000
_cell_angle_gamma   90.00000000
_symmetry_Int_Tables_number   1
_chemical_formula_structural   CdSnP2
_chemical_formula_sum   'Cd4 Sn4 P8'
_cell_volume   420.03079483
_cell_formula_units_Z   4
loop_
 _symmetry_equiv_pos_site_id
 _symmetry_equiv_pos_as_xyz
  1  'x, y, z'
loop_
 _atom_site_type_symbol
 _atom_site_label
 _atom_site_symmetry_multiplicity
 _atom_site_fract_x
 _atom_site_fract_y
 _atom_site_fract_z
 _atom_site_occupancy
  Cd  Cd0  1  0.00000000  0.00000000  0.00000000  1
  Cd  Cd1  1  0.00000000  0.50000000  0.25000000  1
  Cd  Cd2  1  0.50000000  0.50000000  0.50000000  1
  Cd  Cd3  1  0.50000000  0.00000000  0.75000000  1
  Sn  Sn4  1  0.50000000  0.00000000  0.25000000  1
  Sn  Sn5  1  0.50000000  0.50000000  0.00000000  1
  Sn  Sn6  1  0.00000000  0.50000000  0.75000000  1
  Sn  Sn7  1  0.00000000  0.00000000  0.50000000  1
  P  P8  1  0.25000000  0.24295800  0.37500000  1
  P  P9  1  0.74295800  0.25000000  0.12500000  1
  P  P10  1  0.75000000  0.75704200  0.37500000  1
  P  P11  1  0.25704200  0.75000000  0.12500000  1
  P  P12  1  0.75000000  0.74295800  0.87500000  1
  P  P13  1  0.24295800  0.75000000  0.62500000  1
  P  P14  1  0.25000000  0.25704200  0.87500000  1
  P  P15  1  0.75704200  0.25000000  0.62500000  1
