# generated using pymatgen
data_KBa2(PO3)5
_symmetry_space_group_name_H-M   'P 1'
_cell_length_a   8.79104900
_cell_length_b   7.44070000
_cell_length_c   13.97638569
_cell_angle_alpha   90.00000000
_cell_angle_beta   128.34522148
_cell_angle_gamma   90.00000000
_symmetry_Int_Tables_number   1
_chemical_formula_structural   KBa2(PO3)5
_chemical_formula_sum   'K2 Ba4 P10 O30'
_cell_volume   717.00860001
_cell_formula_units_Z   2
loop_
 _symmetry_equiv_pos_site_id
 _symmetry_equiv_pos_as_xyz
  1  'x, y, z'
loop_
 _atom_site_type_symbol
 _atom_site_label
 _atom_site_symmetry_multiplicity
 _atom_site_fract_x
 _atom_site_fract_y
 _atom_site_fract_z
 _atom_site_occupancy
  K  K0  1  0.93667000  0.35599200  0.87957700  1
  K  K1  1  0.93667000  0.64400800  0.37957700  1
  Ba  Ba2  1  0.75434100  0.16393800  0.50145900  1
  Ba  Ba3  1  0.34194800  0.87143000  0.08923900  1
  Ba  Ba4  1  0.75434100  0.83606200  0.00145900  1
  Ba  Ba5  1  0.34194800  0.12857000  0.58923900  1
  P  P6  1  0.55138200  0.65860100  0.39721000  1
  P  P7  1  0.17221400  0.84386900  0.75896200  1
  P  P8  1  0.51956600  0.34789600  0.09783800  1
  P  P9  1  0.84149700  0.89852800  0.77137000  1
  P  P10  1  0.13169100  0.54977500  0.19475100  1
  P  P11  1  0.13169100  0.45022500  0.69475100  1
  P  P12  1  0.55138200  0.34139900  0.89721000  1
  P  P13  1  0.51956600  0.65210400  0.59783800  1
  P  P14  1  0.17221400  0.15613100  0.25896200  1
  P  P15  1  0.84149700  0.10147200  0.27137000  1
  O  O16  1  0.93942100  0.05715600  0.40298500  1
  O  O17  1  0.99698800  0.80131100  0.76443700  1
  O  O18  1  0.57609800  0.17356700  0.84715500  1
  O  O19  1  0.32535700  0.61275600  0.32526100  1
  O  O20  1  0.60752700  0.71087200  0.52796100  1
  O  O21  1  0.32535700  0.38724400  0.82526100  1
  O  O22  1  0.73552700  0.95155600  0.17985800  1
  O  O23  1  0.69761100  0.26829200  0.23509000  1
  O  O24  1  0.16555000  0.33628600  0.19259000  1
  O  O25  1  0.16555000  0.66371400  0.69259000  1
  O  O26  1  0.69761100  0.73170800  0.73509000  1
  O  O27  1  0.12011300  0.37524400  0.59023800  1
  O  O28  1  0.57609800  0.82643300  0.34715500  1
  O  O29  1  0.96787400  0.41039500  0.69762600  1
  O  O30  1  0.51869900  0.54735800  0.10927000  1
  O  O31  1  0.34265100  0.76302100  0.54962700  1
  O  O32  1  0.73552700  0.04844400  0.67985800  1
  O  O33  1  0.65975000  0.50516700  0.90750900  1
  O  O34  1  0.35619800  0.85144600  0.88854000  1
  O  O35  1  0.99698800  0.19868900  0.26443700  1
  O  O36  1  0.65975000  0.49483300  0.40750900  1
  O  O37  1  0.12011300  0.62475600  0.09023800  1
  O  O38  1  0.34265100  0.23697900  0.04962700  1
  O  O39  1  0.11850500  0.00497400  0.17233700  1
  O  O40  1  0.93942100  0.94284400  0.90298500  1
  O  O41  1  0.51869900  0.45264200  0.60927000  1
  O  O42  1  0.60752700  0.28912800  0.02796100  1
  O  O43  1  0.96787400  0.58960500  0.19762600  1
  O  O44  1  0.11850500  0.99502600  0.67233700  1
  O  O45  1  0.35619800  0.14855400  0.38854000  1
