# generated using pymatgen
data_GaTe
_symmetry_space_group_name_H-M   'P 1'
_cell_length_a   18.22633600
_cell_length_b   4.15017600
_cell_length_c   10.82410418
_cell_angle_alpha   90.00000000
_cell_angle_beta   106.47347112
_cell_angle_gamma   90.00000000
_symmetry_Int_Tables_number   1
_chemical_formula_structural   GaTe
_chemical_formula_sum   'Ga12 Te12'
_cell_volume   785.15306135
_cell_formula_units_Z   12
loop_
 _symmetry_equiv_pos_site_id
 _symmetry_equiv_pos_as_xyz
  1  'x, y, z'
loop_
 _atom_site_type_symbol
 _atom_site_label
 _atom_site_symmetry_multiplicity
 _atom_site_fract_x
 _atom_site_fract_y
 _atom_site_fract_z
 _atom_site_occupancy
  Ga  Ga0  1  0.86098200  0.00000000  0.58400100  1
  Ga  Ga1  1  0.63901800  0.50000000  0.41599900  1
  Ga  Ga2  1  0.76157500  0.00000000  0.69765600  1
  Ga  Ga3  1  0.73842500  0.50000000  0.30234400  1
  Ga  Ga4  1  0.93698900  0.50000000  0.91712400  1
  Ga  Ga5  1  0.56301100  0.00000000  0.08287600  1
  Ga  Ga6  1  0.36098200  0.50000000  0.58400100  1
  Ga  Ga7  1  0.13901800  0.00000000  0.41599900  1
  Ga  Ga8  1  0.26157500  0.50000000  0.69765600  1
  Ga  Ga9  1  0.23842500  0.00000000  0.30234400  1
  Ga  Ga10  1  0.43698900  0.00000000  0.91712400  1
  Ga  Ga11  1  0.06301100  0.50000000  0.08287600  1
  Te  Te12  1  0.84683000  0.00000000  0.94584900  1
  Te  Te13  1  0.65317000  0.50000000  0.05415100  1
  Te  Te14  1  0.83686900  0.00000000  0.32721800  1
  Te  Te15  1  0.66313100  0.50000000  0.67278200  1
  Te  Te16  1  0.95631800  0.50000000  0.67606400  1
  Te  Te17  1  0.54368200  0.00000000  0.32393600  1
  Te  Te18  1  0.34683000  0.50000000  0.94584900  1
  Te  Te19  1  0.15317000  0.00000000  0.05415100  1
  Te  Te20  1  0.33686900  0.50000000  0.32721800  1
  Te  Te21  1  0.16313100  0.00000000  0.67278200  1
  Te  Te22  1  0.45631800  0.00000000  0.67606400  1
  Te  Te23  1  0.04368200  0.50000000  0.32393600  1
