# generated using pymatgen
data_As(IF3)2
_symmetry_space_group_name_H-M   'P 1'
_cell_length_a   12.64721800
_cell_length_b   10.32275000
_cell_length_c   6.03323327
_cell_angle_alpha   90.00000000
_cell_angle_beta   101.27360342
_cell_angle_gamma   90.00000000
_symmetry_Int_Tables_number   1
_chemical_formula_structural   As(IF3)2
_chemical_formula_sum   'As4 I8 F24'
_cell_volume   772.46506070
_cell_formula_units_Z   4
loop_
 _symmetry_equiv_pos_site_id
 _symmetry_equiv_pos_as_xyz
  1  'x, y, z'
loop_
 _atom_site_type_symbol
 _atom_site_label
 _atom_site_symmetry_multiplicity
 _atom_site_fract_x
 _atom_site_fract_y
 _atom_site_fract_z
 _atom_site_occupancy
  As  As0  1  0.69367200  0.00000000  0.43242600  1
  As  As1  1  0.30632800  0.00000000  0.56757400  1
  As  As2  1  0.19367200  0.50000000  0.43242600  1
  As  As3  1  0.80632800  0.50000000  0.56757400  1
  I  I4  1  0.58096250  0.34174550  0.89356300  1
  I  I5  1  0.58096250  0.65825450  0.89356300  1
  I  I6  1  0.41903750  0.34174550  0.10643700  1
  I  I7  1  0.41903750  0.65825450  0.10643700  1
  I  I8  1  0.08096250  0.84174550  0.89356300  1
  I  I9  1  0.08096250  0.15825450  0.89356300  1
  I  I10  1  0.91903750  0.84174550  0.10643700  1
  I  I11  1  0.91903750  0.15825450  0.10643700  1
  F  F12  1  0.33358700  0.87740900  0.38351400  1
  F  F13  1  0.72635100  0.12145200  0.24112000  1
  F  F14  1  0.56012400  0.00000000  0.28240100  1
  F  F15  1  0.33358700  0.12259100  0.38351400  1
  F  F16  1  0.27364900  0.12145200  0.75888000  1
  F  F17  1  0.27364900  0.87854800  0.75888000  1
  F  F18  1  0.16764300  0.00000000  0.43297500  1
  F  F19  1  0.66641300  0.12259100  0.61648600  1
  F  F20  1  0.66641300  0.87740900  0.61648600  1
  F  F21  1  0.83235700  0.00000000  0.56702500  1
  F  F22  1  0.43987600  0.00000000  0.71759900  1
  F  F23  1  0.72635100  0.87854800  0.24112000  1
  F  F24  1  0.83358700  0.37740900  0.38351400  1
  F  F25  1  0.22635100  0.62145200  0.24112000  1
  F  F26  1  0.06012400  0.50000000  0.28240100  1
  F  F27  1  0.83358700  0.62259100  0.38351400  1
  F  F28  1  0.77364900  0.62145200  0.75888000  1
  F  F29  1  0.77364900  0.37854800  0.75888000  1
  F  F30  1  0.66764300  0.50000000  0.43297500  1
  F  F31  1  0.16641300  0.62259100  0.61648600  1
  F  F32  1  0.16641300  0.37740900  0.61648600  1
  F  F33  1  0.33235700  0.50000000  0.56702500  1
  F  F34  1  0.93987600  0.50000000  0.71759900  1
  F  F35  1  0.22635100  0.37854800  0.24112000  1
