# generated using pymatgen
data_Zn(GaO2)2
_symmetry_space_group_name_H-M   'P 1'
_cell_length_a   8.45900200
_cell_length_b   8.45900200
_cell_length_c   8.45900200
_cell_angle_alpha   90.00000000
_cell_angle_beta   90.00000000
_cell_angle_gamma   90.00000000
_symmetry_Int_Tables_number   1
_chemical_formula_structural   Zn(GaO2)2
_chemical_formula_sum   'Zn8 Ga16 O32'
_cell_volume   605.28147591
_cell_formula_units_Z   8
loop_
 _symmetry_equiv_pos_site_id
 _symmetry_equiv_pos_as_xyz
  1  'x, y, z'
loop_
 _atom_site_type_symbol
 _atom_site_label
 _atom_site_symmetry_multiplicity
 _atom_site_fract_x
 _atom_site_fract_y
 _atom_site_fract_z
 _atom_site_occupancy
  Zn  Zn0  1  0.50000000  0.00000000  0.50000000  1
  Zn  Zn1  1  0.25000000  0.25000000  0.25000000  1
  Zn  Zn2  1  0.50000000  0.50000000  0.00000000  1
  Zn  Zn3  1  0.25000000  0.75000000  0.75000000  1
  Zn  Zn4  1  0.00000000  0.00000000  0.00000000  1
  Zn  Zn5  1  0.75000000  0.25000000  0.75000000  1
  Zn  Zn6  1  0.00000000  0.50000000  0.50000000  1
  Zn  Zn7  1  0.75000000  0.75000000  0.25000000  1
  Ga  Ga8  1  0.37500000  0.87500000  0.12500000  1
  Ga  Ga9  1  0.37500000  0.62500000  0.37500000  1
  Ga  Ga10  1  0.12500000  0.87500000  0.37500000  1
  Ga  Ga11  1  0.12500000  0.62500000  0.12500000  1
  Ga  Ga12  1  0.37500000  0.37500000  0.62500000  1
  Ga  Ga13  1  0.37500000  0.12500000  0.87500000  1
  Ga  Ga14  1  0.12500000  0.37500000  0.87500000  1
  Ga  Ga15  1  0.12500000  0.12500000  0.62500000  1
  Ga  Ga16  1  0.87500000  0.87500000  0.62500000  1
  Ga  Ga17  1  0.87500000  0.62500000  0.87500000  1
  Ga  Ga18  1  0.62500000  0.87500000  0.87500000  1
  Ga  Ga19  1  0.62500000  0.62500000  0.62500000  1
  Ga  Ga20  1  0.87500000  0.37500000  0.12500000  1
  Ga  Ga21  1  0.87500000  0.12500000  0.37500000  1
  Ga  Ga22  1  0.62500000  0.37500000  0.37500000  1
  Ga  Ga23  1  0.62500000  0.12500000  0.12500000  1
  O  O24  1  0.11328133  0.38671867  0.11328133  1
  O  O25  1  0.63671867  0.13671867  0.36328133  1
  O  O26  1  0.36328133  0.86328133  0.36328133  1
  O  O27  1  0.86328133  0.13671867  0.13671867  1
  O  O28  1  0.38671867  0.38671867  0.38671867  1
  O  O29  1  0.38671867  0.11328133  0.11328133  1
  O  O30  1  0.13671867  0.86328133  0.13671867  1
  O  O31  1  0.11328133  0.11328133  0.38671867  1
  O  O32  1  0.11328133  0.88671867  0.61328133  1
  O  O33  1  0.63671867  0.63671867  0.86328133  1
  O  O34  1  0.36328133  0.36328133  0.86328133  1
  O  O35  1  0.86328133  0.63671867  0.63671867  1
  O  O36  1  0.38671867  0.88671867  0.88671867  1
  O  O37  1  0.38671867  0.61328133  0.61328133  1
  O  O38  1  0.13671867  0.36328133  0.63671867  1
  O  O39  1  0.11328133  0.61328133  0.88671867  1
  O  O40  1  0.61328133  0.38671867  0.61328133  1
  O  O41  1  0.13671867  0.13671867  0.86328133  1
  O  O42  1  0.86328133  0.86328133  0.86328133  1
  O  O43  1  0.36328133  0.13671867  0.63671867  1
  O  O44  1  0.88671867  0.38671867  0.88671867  1
  O  O45  1  0.88671867  0.11328133  0.61328133  1
  O  O46  1  0.63671867  0.86328133  0.63671867  1
  O  O47  1  0.61328133  0.11328133  0.88671867  1
  O  O48  1  0.61328133  0.88671867  0.11328133  1
  O  O49  1  0.13671867  0.63671867  0.36328133  1
  O  O50  1  0.86328133  0.36328133  0.36328133  1
  O  O51  1  0.36328133  0.63671867  0.13671867  1
  O  O52  1  0.88671867  0.88671867  0.38671867  1
  O  O53  1  0.88671867  0.61328133  0.11328133  1
  O  O54  1  0.63671867  0.36328133  0.13671867  1
  O  O55  1  0.61328133  0.61328133  0.38671867  1
