# generated using pymatgen
data_SrCrF4
_symmetry_space_group_name_H-M   'P 1'
_cell_length_a   5.76247600
_cell_length_b   5.76247600
_cell_length_c   11.08787000
_cell_angle_alpha   90.00000000
_cell_angle_beta   90.00000000
_cell_angle_gamma   90.00000000
_symmetry_Int_Tables_number   1
_chemical_formula_structural   SrCrF4
_chemical_formula_sum   'Sr4 Cr4 F16'
_cell_volume   368.18524877
_cell_formula_units_Z   4
loop_
 _symmetry_equiv_pos_site_id
 _symmetry_equiv_pos_as_xyz
  1  'x, y, z'
loop_
 _atom_site_type_symbol
 _atom_site_label
 _atom_site_symmetry_multiplicity
 _atom_site_fract_x
 _atom_site_fract_y
 _atom_site_fract_z
 _atom_site_occupancy
  Sr  Sr0  1  0.50000000  0.50000000  0.25000000  1
  Sr  Sr1  1  0.00000000  0.00000000  0.25000000  1
  Sr  Sr2  1  0.00000000  0.00000000  0.75000000  1
  Sr  Sr3  1  0.50000000  0.50000000  0.75000000  1
  Cr  Cr4  1  0.50000000  0.00000000  0.00000000  1
  Cr  Cr5  1  0.00000000  0.50000000  0.00000000  1
  Cr  Cr6  1  0.00000000  0.50000000  0.50000000  1
  Cr  Cr7  1  0.50000000  0.00000000  0.50000000  1
  F  F8  1  0.82103200  0.32103200  0.12567800  1
  F  F9  1  0.32103200  0.82103200  0.37432200  1
  F  F10  1  0.67896800  0.17896800  0.37432200  1
  F  F11  1  0.82103200  0.67896800  0.37432200  1
  F  F12  1  0.17896800  0.67896800  0.12567800  1
  F  F13  1  0.32103200  0.17896800  0.12567800  1
  F  F14  1  0.67896800  0.82103200  0.12567800  1
  F  F15  1  0.17896800  0.32103200  0.37432200  1
  F  F16  1  0.32103200  0.82103200  0.62567800  1
  F  F17  1  0.82103200  0.32103200  0.87432200  1
  F  F18  1  0.17896800  0.67896800  0.87432200  1
  F  F19  1  0.32103200  0.17896800  0.87432200  1
  F  F20  1  0.67896800  0.17896800  0.62567800  1
  F  F21  1  0.82103200  0.67896800  0.62567800  1
  F  F22  1  0.17896800  0.32103200  0.62567800  1
  F  F23  1  0.67896800  0.82103200  0.87432200  1
