# generated using pymatgen
data_MgAl2O4
_symmetry_space_group_name_H-M   'P 1'
_cell_length_a   5.74914400
_cell_length_b   5.77251450
_cell_length_c   33.08552585
_cell_angle_alpha   85.24102392
_cell_angle_beta   85.04264340
_cell_angle_gamma   60.21105317
_symmetry_Int_Tables_number   1
_chemical_formula_structural   MgAl2O4
_chemical_formula_sum   'Mg14 Al28 O56'
_cell_volume   948.33753893
_cell_formula_units_Z   14
loop_
 _symmetry_equiv_pos_site_id
 _symmetry_equiv_pos_as_xyz
  1  'x, y, z'
loop_
 _atom_site_type_symbol
 _atom_site_label
 _atom_site_symmetry_multiplicity
 _atom_site_fract_x
 _atom_site_fract_y
 _atom_site_fract_z
 _atom_site_occupancy
  Mg  Mg0  1  0.14229900  0.14383100  0.07141000  1
  Mg  Mg1  1  0.14269300  0.64334900  0.07154500  1
  Mg  Mg2  1  0.93915000  0.45545800  0.15877200  1
  Mg  Mg3  1  0.42622000  0.43244500  0.21433400  1
  Mg  Mg4  1  0.22747900  0.74125000  0.30314100  1
  Mg  Mg5  1  0.51324000  0.02716100  0.44587800  1
  Mg  Mg6  1  0.79861100  0.31370800  0.58856100  1
  Mg  Mg7  1  0.71270200  0.71754600  0.35699800  1
  Mg  Mg8  1  0.08448100  0.59938100  0.73122600  1
  Mg  Mg9  1  0.99831100  0.00346700  0.49982300  1
  Mg  Mg10  1  0.37060400  0.88389400  0.87490400  1
  Mg  Mg11  1  0.28374200  0.28987200  0.64252400  1
  Mg  Mg12  1  0.56972500  0.57505200  0.78550200  1
  Mg  Mg13  1  0.85747700  0.85890400  0.92841600  1
  Al  Al14  1  0.65224800  0.16779900  0.01676600  1
  Al  Al15  1  0.00003200  0.49976400  0.00037600  1
  Al  Al16  1  0.64311600  0.64195300  0.07188500  1
  Al  Al17  1  0.42300900  0.92515400  0.21409800  1
  Al  Al18  1  0.28221100  0.78776600  0.14471200  1
  Al  Al19  1  0.93726100  0.92420000  0.21401000  1
  Al  Al20  1  0.70958000  0.21022100  0.35664800  1
  Al  Al21  1  0.63365900  0.11647600  0.12695300  1
  Al  Al22  1  0.57076900  0.07124600  0.28731100  1
  Al  Al23  1  0.22350200  0.21022300  0.35663000  1
  Al  Al24  1  0.99523700  0.49574100  0.49942600  1
  Al  Al25  1  0.85656600  0.35675400  0.43006200  1
  Al  Al26  1  0.91754700  0.39622800  0.26870600  1
  Al  Al27  1  0.50955600  0.49575600  0.49941500  1
  Al  Al28  1  0.28104900  0.78088200  0.64210000  1
  Al  Al29  1  0.14274700  0.64151100  0.57288000  1
  Al  Al30  1  0.20347900  0.68173900  0.41152700  1
  Al  Al31  1  0.79599800  0.78085100  0.64208600  1
  Al  Al32  1  0.56662400  0.06704900  0.78505900  1
  Al  Al33  1  0.42845400  0.92742700  0.71555900  1
  Al  Al34  1  0.48932000  0.96718500  0.55435100  1
  Al  Al35  1  0.08129900  0.06712800  0.78506100  1
  Al  Al36  1  0.85552100  0.35354700  0.92793200  1
  Al  Al37  1  0.77494400  0.25325700  0.69707500  1
  Al  Al38  1  0.71401800  0.21284500  0.85865800  1
  Al  Al39  1  0.36374400  0.35434300  0.92808300  1
  Al  Al40  1  0.06052000  0.53974000  0.83973600  1
  Al  Al41  1  0.35000600  0.82627300  0.98279700  1
  O  O42  1  0.30361300  0.33052200  0.03181900  1
  O  O43  1  0.94362300  0.47971700  0.09985500  1
  O  O44  1  0.81770600  0.33979200  0.03347400  1
  O  O45  1  0.81706400  0.81225600  0.03247900  1
  O  O46  1  0.56862400  0.64276100  0.17920600  1
  O  O47  1  0.46942200  0.47434700  0.10812100  1
  O  O48  1  0.34216900  0.80952500  0.03701500  1
  O  O49  1  0.46804500  0.94754500  0.10711000  1
  O  O50  1  0.10859900  0.63947000  0.17902000  1
  O  O51  1  0.24114300  0.77129600  0.24470300  1
  O  O52  1  0.11971000  0.08173400  0.18061400  1
  O  O53  1  0.98152600  0.95704600  0.10957400  1
  O  O54  1  0.85544000  0.92636800  0.32195000  1
  O  O55  1  0.74459900  0.76064900  0.24982500  1
  O  O56  1  0.75116800  0.22750600  0.25048000  1
  O  O57  1  0.39622400  0.92621100  0.32195500  1
  O  O58  1  0.61319300  0.09018100  0.18248800  1
  O  O59  1  0.52738900  0.05761700  0.38740800  1
  O  O60  1  0.27078800  0.22739400  0.25059900  1
  O  O61  1  0.40564800  0.36601800  0.32298400  1
  O  O62  1  0.14123000  0.21207600  0.46466400  1
  O  O63  1  0.03057500  0.04641700  0.39236100  1
  O  O64  1  0.03720800  0.51313500  0.39308200  1
  O  O65  1  0.81312600  0.34342300  0.53018100  1
  O  O66  1  0.90001300  0.37567200  0.32448400  1
  O  O67  1  0.68199900  0.21199800  0.46467400  1
  O  O68  1  0.69132300  0.65190300  0.46571700  1
  O  O69  1  0.55658400  0.51317700  0.39310000  1
  O  O70  1  0.42727600  0.49745700  0.60758700  1
  O  O71  1  0.31640700  0.33186600  0.53525900  1
  O  O72  1  0.32279500  0.79878300  0.53597900  1
  O  O73  1  0.18577100  0.66143800  0.46728100  1
  O  O74  1  0.96760700  0.49735300  0.60758900  1
  O  O75  1  0.09871100  0.62940200  0.67309700  1
  O  O76  1  0.97677500  0.93802900  0.60866400  1
  O  O77  1  0.84242300  0.79884000  0.53599400  1
  O  O78  1  0.71273100  0.78321700  0.75073300  1
  O  O79  1  0.60193900  0.61767300  0.67842600  1
  O  O80  1  0.60801500  0.08448800  0.67910700  1
  O  O81  1  0.47148600  0.94699900  0.61027300  1
  O  O82  1  0.25323000  0.78315400  0.75074500  1
  O  O83  1  0.38432400  0.91486900  0.81645600  1
  O  O84  1  0.26231100  0.22378300  0.75188900  1
  O  O85  1  0.12840400  0.08456500  0.67912300  1
  O  O86  1  0.99675100  0.06936600  0.89403600  1
  O  O87  1  0.88716300  0.90412100  0.82141300  1
  O  O88  1  0.75727900  0.23247000  0.75324700  1
  O  O89  1  0.54007200  0.06909000  0.89424300  1
  O  O90  1  0.89339600  0.37008100  0.82217700  1
  O  O91  1  0.67188700  0.19539900  0.96200100  1
  O  O92  1  0.54969200  0.50567100  0.89551700  1
  O  O93  1  0.41459900  0.36992200  0.82219100  1
  O  O94  1  0.17257800  0.19090100  0.96242600  1
  O  O95  1  0.18360400  0.65557100  0.96387300  1
  O  O96  1  0.04359200  0.51942300  0.89545500  1
  O  O97  1  0.70268100  0.65193600  0.96334300  1
