# generated using pymatgen
data_Ca3Ge(ClO2)2
_symmetry_space_group_name_H-M   'P 1'
_cell_length_a   5.76546400
_cell_length_b   10.44754600
_cell_length_c   11.78677000
_cell_angle_alpha   90.00000000
_cell_angle_beta   90.00000000
_cell_angle_gamma   90.00000000
_symmetry_Int_Tables_number   1
_chemical_formula_structural   Ca3Ge(ClO2)2
_chemical_formula_sum   'Ca12 Ge4 Cl8 O16'
_cell_volume   709.97550575
_cell_formula_units_Z   4
loop_
 _symmetry_equiv_pos_site_id
 _symmetry_equiv_pos_as_xyz
  1  'x, y, z'
loop_
 _atom_site_type_symbol
 _atom_site_label
 _atom_site_symmetry_multiplicity
 _atom_site_fract_x
 _atom_site_fract_y
 _atom_site_fract_z
 _atom_site_occupancy
  Ca  Ca0  1  0.38275600  0.58029500  0.66331900  1
  Ca  Ca1  1  0.39802500  0.25000000  0.04033100  1
  Ca  Ca2  1  0.61724400  0.41970500  0.33668100  1
  Ca  Ca3  1  0.60197500  0.75000000  0.95966900  1
  Ca  Ca4  1  0.88275600  0.41970500  0.83668100  1
  Ca  Ca5  1  0.10197500  0.25000000  0.54033100  1
  Ca  Ca6  1  0.88275600  0.08029500  0.83668100  1
  Ca  Ca7  1  0.38275600  0.91970500  0.66331900  1
  Ca  Ca8  1  0.11724400  0.91970500  0.16331900  1
  Ca  Ca9  1  0.11724400  0.58029500  0.16331900  1
  Ca  Ca10  1  0.89802500  0.75000000  0.45966900  1
  Ca  Ca11  1  0.61724400  0.08029500  0.33668100  1
  Ge  Ge12  1  0.32178300  0.25000000  0.77859900  1
  Ge  Ge13  1  0.67821700  0.75000000  0.22140100  1
  Ge  Ge14  1  0.17821700  0.25000000  0.27859900  1
  Ge  Ge15  1  0.82178300  0.75000000  0.72140100  1
  Cl  Cl16  1  0.75152500  0.43255100  0.07008900  1
  Cl  Cl17  1  0.24847500  0.93255100  0.92991100  1
  Cl  Cl18  1  0.24847500  0.56744900  0.92991100  1
  Cl  Cl19  1  0.25152500  0.56744900  0.42991100  1
  Cl  Cl20  1  0.74847500  0.43255100  0.57008900  1
  Cl  Cl21  1  0.75152500  0.06744900  0.07008900  1
  Cl  Cl22  1  0.25152500  0.93255100  0.42991100  1
  Cl  Cl23  1  0.74847500  0.06744900  0.57008900  1
  O  O24  1  0.22151600  0.38253000  0.69672900  1
  O  O25  1  0.27848400  0.11747000  0.19672900  1
  O  O26  1  0.87248400  0.75000000  0.10221300  1
  O  O27  1  0.72151600  0.88253000  0.80327100  1
  O  O28  1  0.89413000  0.25000000  0.33547400  1
  O  O29  1  0.39413000  0.75000000  0.16452600  1
  O  O30  1  0.10587000  0.75000000  0.66452600  1
  O  O31  1  0.62751600  0.75000000  0.60221300  1
  O  O32  1  0.72151600  0.61747000  0.80327100  1
  O  O33  1  0.77848400  0.61747000  0.30327100  1
  O  O34  1  0.22151600  0.11747000  0.69672900  1
  O  O35  1  0.77848400  0.88253000  0.30327100  1
  O  O36  1  0.12751600  0.25000000  0.89778700  1
  O  O37  1  0.60587000  0.25000000  0.83547400  1
  O  O38  1  0.27848400  0.38253000  0.19672900  1
  O  O39  1  0.37248400  0.25000000  0.39778700  1
