# generated using pymatgen
data_BaSn(GeO3)3
_symmetry_space_group_name_H-M   'P 1'
_cell_length_a   7.02224923
_cell_length_b   7.02224923
_cell_length_c   10.39429400
_cell_angle_alpha   90.00000000
_cell_angle_beta   90.00000000
_cell_angle_gamma   120.00000000
_symmetry_Int_Tables_number   1
_chemical_formula_structural   BaSn(GeO3)3
_chemical_formula_sum   'Ba2 Sn2 Ge6 O18'
_cell_volume   443.89280565
_cell_formula_units_Z   2
loop_
 _symmetry_equiv_pos_site_id
 _symmetry_equiv_pos_as_xyz
  1  'x, y, z'
loop_
 _atom_site_type_symbol
 _atom_site_label
 _atom_site_symmetry_multiplicity
 _atom_site_fract_x
 _atom_site_fract_y
 _atom_site_fract_z
 _atom_site_occupancy
  Ba  Ba0  1  0.66666667  0.33333333  0.00000000  1
  Ba  Ba1  1  0.66666667  0.33333333  0.50000000  1
  Sn  Sn2  1  0.33333333  0.66666667  0.00000000  1
  Sn  Sn3  1  0.33333333  0.66666667  0.50000000  1
  Ge  Ge4  1  0.07459767  0.29381633  0.25000000  1
  Ge  Ge5  1  0.21921867  0.92540233  0.25000000  1
  Ge  Ge6  1  0.70618367  0.78078133  0.25000000  1
  Ge  Ge7  1  0.70618367  0.92540233  0.75000000  1
  Ge  Ge8  1  0.21921867  0.29381633  0.75000000  1
  Ge  Ge9  1  0.07459767  0.78078133  0.75000000  1
  O  O10  1  0.26974967  0.20288533  0.25000000  1
  O  O11  1  0.93313567  0.73025033  0.25000000  1
  O  O12  1  0.79711467  0.06686433  0.25000000  1
  O  O13  1  0.79711467  0.73025033  0.75000000  1
  O  O14  1  0.93313567  0.20288533  0.75000000  1
  O  O15  1  0.26974967  0.06686433  0.75000000  1
  O  O16  1  0.07503767  0.43075333  0.10892400  1
  O  O17  1  0.35571567  0.92496233  0.39107600  1
  O  O18  1  0.56924667  0.64428433  0.39107600  1
  O  O19  1  0.56924667  0.64428433  0.10892400  1
  O  O20  1  0.35571567  0.92496233  0.10892400  1
  O  O21  1  0.56924667  0.92496233  0.89107600  1
  O  O22  1  0.35571567  0.43075333  0.89107600  1
  O  O23  1  0.07503767  0.64428433  0.89107600  1
  O  O24  1  0.35571567  0.43075333  0.60892400  1
  O  O25  1  0.07503767  0.64428433  0.60892400  1
  O  O26  1  0.07503767  0.43075333  0.39107600  1
  O  O27  1  0.56924667  0.92496233  0.60892400  1
