# generated using pymatgen
data_B2H12C3(NO)6
_symmetry_space_group_name_H-M   'P 1'
_cell_length_a   3.82169400
_cell_length_b   20.01524500
_cell_length_c   14.11796713
_cell_angle_alpha   90.00000000
_cell_angle_beta   90.35113954
_cell_angle_gamma   90.00000000
_symmetry_Int_Tables_number   1
_chemical_formula_structural   B2H12C3(NO)6
_chemical_formula_sum   'B8 H48 C12 N24 O24'
_cell_volume   1079.89326222
_cell_formula_units_Z   4
loop_
 _symmetry_equiv_pos_site_id
 _symmetry_equiv_pos_as_xyz
  1  'x, y, z'
loop_
 _atom_site_type_symbol
 _atom_site_label
 _atom_site_symmetry_multiplicity
 _atom_site_fract_x
 _atom_site_fract_y
 _atom_site_fract_z
 _atom_site_occupancy
  B  B0  1  0.55360900  0.36766900  0.16744100  1
  B  B1  1  0.65887000  0.01013100  0.13799900  1
  B  B2  1  0.44639100  0.86766900  0.33255900  1
  B  B3  1  0.34113000  0.98986900  0.86200100  1
  B  B4  1  0.55360900  0.13233100  0.66744100  1
  B  B5  1  0.65887000  0.48986900  0.63799900  1
  B  B6  1  0.44639100  0.63233100  0.83255900  1
  B  B7  1  0.34113000  0.51013100  0.36200100  1
  H  H8  1  0.42906600  0.92011500  0.15599100  1
  H  H9  1  0.26099200  0.20526500  0.01765200  1
  H  H10  1  0.79460300  0.52487500  0.10408200  1
  H  H11  1  0.86259100  0.05916100  0.25426900  1
  H  H12  1  0.57093400  0.07988500  0.84400900  1
  H  H13  1  0.13720400  0.34241600  0.41968100  1
  H  H14  1  0.18531400  0.64642200  0.36321000  1
  H  H15  1  0.20539700  0.02487500  0.39591800  1
  H  H16  1  0.57093400  0.42011500  0.34400900  1
  H  H17  1  0.69990800  0.93316700  0.49715200  1
  H  H18  1  0.42906600  0.57988500  0.65599100  1
  H  H19  1  0.64751600  0.54025000  0.81408500  1
  H  H20  1  0.13740900  0.94083900  0.74573100  1
  H  H21  1  0.79030700  0.31896900  0.27628500  1
  H  H22  1  0.79030700  0.18103100  0.77628500  1
  H  H23  1  0.26099200  0.29473500  0.51765200  1
  H  H24  1  0.30009200  0.43316700  0.00284800  1
  H  H25  1  0.65331600  0.05522700  0.01027200  1
  H  H26  1  0.18531400  0.85357800  0.86321000  1
  H  H27  1  0.64751600  0.95975000  0.31408500  1
  H  H28  1  0.54801200  0.68163900  0.95497200  1
  H  H29  1  0.73900800  0.79473500  0.98234800  1
  H  H30  1  0.54801200  0.81836100  0.45497200  1
  H  H31  1  0.65331600  0.44477300  0.51027200  1
  H  H32  1  0.86259100  0.44083900  0.75426900  1
  H  H33  1  0.34668400  0.55522700  0.48972800  1
  H  H34  1  0.20969300  0.68103100  0.72371500  1
  H  H35  1  0.34668400  0.94477300  0.98972800  1
  H  H36  1  0.22829800  0.76507700  0.85430300  1
  H  H37  1  0.69990800  0.56683300  0.99715200  1
  H  H38  1  0.20539700  0.47512500  0.89591800  1
  H  H39  1  0.22829800  0.73492300  0.35430300  1
  H  H40  1  0.79460300  0.97512500  0.60408200  1
  H  H41  1  0.73900800  0.70526500  0.48234800  1
  H  H42  1  0.45198800  0.18163900  0.54502800  1
  H  H43  1  0.13740900  0.55916100  0.24573100  1
  H  H44  1  0.35248400  0.04025000  0.68591500  1
  H  H45  1  0.77170200  0.23492300  0.14569700  1
  H  H46  1  0.13720400  0.15758400  0.91968100  1
  H  H47  1  0.35248400  0.45975000  0.18591500  1
  H  H48  1  0.45198800  0.31836100  0.04502800  1
  H  H49  1  0.77170200  0.26507700  0.64569700  1
  H  H50  1  0.81468600  0.14642200  0.13679000  1
  H  H51  1  0.81468600  0.35357800  0.63679000  1
  H  H52  1  0.30009200  0.06683300  0.50284800  1
  H  H53  1  0.86279600  0.84241600  0.08031900  1
  H  H54  1  0.86279600  0.65758400  0.58031900  1
  H  H55  1  0.20969300  0.81896900  0.22371500  1
  C  C56  1  0.03485100  0.81246800  0.73679800  1
  C  C57  1  0.96514900  0.18753200  0.26320200  1
  C  C58  1  0.12943600  0.24052900  0.39950600  1
  C  C59  1  0.83926000  0.87317500  0.60934000  1
  C  C60  1  0.87056400  0.74052900  0.10049400  1
  C  C61  1  0.03485100  0.68753200  0.23679800  1
  C  C62  1  0.16074000  0.37317500  0.89066000  1
  C  C63  1  0.12943600  0.25947100  0.89950600  1
  C  C64  1  0.16074000  0.12682500  0.39066000  1
  C  C65  1  0.96514900  0.31246800  0.76320200  1
  C  C66  1  0.83926000  0.62682500  0.10934000  1
  C  C67  1  0.87056400  0.75947100  0.60049400  1
  N  N68  1  0.22780800  0.18286100  0.44121400  1
  N  N69  1  0.22710100  0.43192300  0.93285400  1
  N  N70  1  0.14023800  0.69012500  0.32731500  1
  N  N71  1  0.77289900  0.93192300  0.56714600  1
  N  N72  1  0.99456400  0.24594100  0.31140300  1
  N  N73  1  0.77219200  0.81713900  0.55878600  1
  N  N74  1  0.96627500  0.87330300  0.69883200  1
  N  N75  1  0.85976200  0.19012500  0.17268500  1
  N  N76  1  0.16801500  0.20287800  0.95046400  1
  N  N77  1  0.00543600  0.75405900  0.68859700  1
  N  N78  1  0.83198500  0.70287800  0.54953600  1
  N  N79  1  0.22710100  0.06807700  0.43285400  1
  N  N80  1  0.22780800  0.31713900  0.94121400  1
  N  N81  1  0.85976200  0.30987500  0.67268500  1
  N  N82  1  0.16801500  0.29712200  0.45046400  1
  N  N83  1  0.14023800  0.80987500  0.82731500  1
  N  N84  1  0.77289900  0.56807700  0.06714600  1
  N  N85  1  0.96627500  0.62669700  0.19883200  1
  N  N86  1  0.00543600  0.74594100  0.18859700  1
  N  N87  1  0.99456400  0.25405900  0.81140300  1
  N  N88  1  0.83198500  0.79712200  0.04953600  1
  N  N89  1  0.77219200  0.68286100  0.05878600  1
  N  N90  1  0.03372500  0.12669700  0.30116800  1
  N  N91  1  0.03372500  0.37330300  0.80116800  1
  O  O92  1  0.58106700  0.18621900  0.60796600  1
  O  O93  1  0.59462100  0.92638800  0.36504200  1
  O  O94  1  0.74536900  0.48456600  0.73226800  1
  O  O95  1  0.26665200  0.56168300  0.42310200  1
  O  O96  1  0.40537900  0.07361200  0.63495800  1
  O  O97  1  0.25463100  0.51543400  0.26773200  1
  O  O98  1  0.26665200  0.93831700  0.92310200  1
  O  O99  1  0.50297100  0.04751900  0.89499300  1
  O  O100  1  0.67654100  0.13654000  0.75979700  1
  O  O101  1  0.40537900  0.42638800  0.13495800  1
  O  O102  1  0.41893300  0.68621900  0.89203400  1
  O  O103  1  0.49702900  0.95248100  0.10500700  1
  O  O104  1  0.67654100  0.36346000  0.25979700  1
  O  O105  1  0.58106700  0.31378100  0.10796600  1
  O  O106  1  0.32345900  0.86346000  0.24020300  1
  O  O107  1  0.59462100  0.57361200  0.86504200  1
  O  O108  1  0.50297100  0.45248100  0.39499300  1
  O  O109  1  0.32345900  0.63654000  0.74020300  1
  O  O110  1  0.73334800  0.06168300  0.07689800  1
  O  O111  1  0.74536900  0.01543400  0.23226800  1
  O  O112  1  0.73334800  0.43831700  0.57689800  1
  O  O113  1  0.25463100  0.98456600  0.76773200  1
  O  O114  1  0.49702900  0.54751900  0.60500700  1
  O  O115  1  0.41893300  0.81378100  0.39203400  1
