# generated using pymatgen
data_Ba7B4Se13
_symmetry_space_group_name_H-M   'P 1'
_cell_length_a   10.67042600
_cell_length_b   25.54673800
_cell_length_c   10.66299975
_cell_angle_alpha   90.00000000
_cell_angle_beta   90.02153092
_cell_angle_gamma   90.00000000
_symmetry_Int_Tables_number   1
_chemical_formula_structural   Ba7B4Se13
_chemical_formula_sum   'Ba28 B16 Se52'
_cell_volume   2906.67570591
_cell_formula_units_Z   4
loop_
 _symmetry_equiv_pos_site_id
 _symmetry_equiv_pos_as_xyz
  1  'x, y, z'
loop_
 _atom_site_type_symbol
 _atom_site_label
 _atom_site_symmetry_multiplicity
 _atom_site_fract_x
 _atom_site_fract_y
 _atom_site_fract_z
 _atom_site_occupancy
  Ba  Ba0  1  0.39319600  0.32888400  0.47217400  1
  Ba  Ba1  1  0.60680400  0.32888400  0.02782600  1
  Ba  Ba2  1  0.77791800  0.32672800  0.64338100  1
  Ba  Ba3  1  0.50000000  0.16774700  0.75000000  1
  Ba  Ba4  1  0.00000000  0.33225300  0.25000000  1
  Ba  Ba5  1  0.72208200  0.17327200  0.35661900  1
  Ba  Ba6  1  0.00000000  0.00383700  0.25000000  1
  Ba  Ba7  1  0.10680400  0.17111600  0.52782600  1
  Ba  Ba8  1  0.22208200  0.32672800  0.85661900  1
  Ba  Ba9  1  0.50000000  0.49616300  0.75000000  1
  Ba  Ba10  1  0.27791800  0.17327200  0.14338100  1
  Ba  Ba11  1  0.00000000  0.49613500  0.75000000  1
  Ba  Ba12  1  0.50000000  0.00386500  0.25000000  1
  Ba  Ba13  1  0.89319600  0.17111600  0.97217400  1
  Ba  Ba14  1  0.89319600  0.82888400  0.47217400  1
  Ba  Ba15  1  0.10680400  0.82888400  0.02782600  1
  Ba  Ba16  1  0.27791800  0.82672800  0.64338100  1
  Ba  Ba17  1  0.00000000  0.66774700  0.75000000  1
  Ba  Ba18  1  0.50000000  0.83225300  0.25000000  1
  Ba  Ba19  1  0.22208200  0.67327200  0.35661900  1
  Ba  Ba20  1  0.50000000  0.50383700  0.25000000  1
  Ba  Ba21  1  0.60680400  0.67111600  0.52782600  1
  Ba  Ba22  1  0.72208200  0.82672800  0.85661900  1
  Ba  Ba23  1  0.00000000  0.99616300  0.75000000  1
  Ba  Ba24  1  0.77791800  0.67327200  0.14338100  1
  Ba  Ba25  1  0.50000000  0.99613500  0.75000000  1
  Ba  Ba26  1  0.00000000  0.50386500  0.25000000  1
  Ba  Ba27  1  0.39319600  0.67111600  0.97217400  1
  B  B28  1  0.90039400  0.38341300  0.93170400  1
  B  B29  1  0.17960250  0.11236550  0.85048500  1
  B  B30  1  0.59960600  0.11658700  0.06829600  1
  B  B31  1  0.32039750  0.38763450  0.14951500  1
  B  B32  1  0.40039400  0.11658700  0.43170400  1
  B  B33  1  0.67960250  0.38763450  0.35048500  1
  B  B34  1  0.09960600  0.38341300  0.56829600  1
  B  B35  1  0.82039750  0.11236550  0.64951500  1
  B  B36  1  0.40039400  0.88341300  0.93170400  1
  B  B37  1  0.67960250  0.61236550  0.85048500  1
  B  B38  1  0.09960600  0.61658700  0.06829600  1
  B  B39  1  0.82039750  0.88763450  0.14951500  1
  B  B40  1  0.90039400  0.61658700  0.43170400  1
  B  B41  1  0.17960250  0.88763450  0.35048500  1
  B  B42  1  0.59960600  0.88341300  0.56829600  1
  B  B43  1  0.32039750  0.61236550  0.64951500  1
  Se  Se44  1  0.68594050  0.30948550  0.34707100  1
  Se  Se45  1  0.50000000  0.29420400  0.75000000  1
  Se  Se46  1  0.76179700  0.42067500  0.84923400  1
  Se  Se47  1  0.90236400  0.30538000  0.93725300  1
  Se  Se48  1  0.40236400  0.19462000  0.43725300  1
  Se  Se49  1  0.73820300  0.07932500  0.15076600  1
  Se  Se50  1  0.23820300  0.42067500  0.65076600  1
  Se  Se51  1  0.74501600  0.42347800  0.20188200  1
  Se  Se52  1  0.00000000  0.20579600  0.25000000  1
  Se  Se53  1  0.90351650  0.07541550  0.51054300  1
  Se  Se54  1  0.54817550  0.08135650  0.50073000  1
  Se  Se55  1  0.40351650  0.42458450  0.01054300  1
  Se  Se56  1  0.09648350  0.07541550  0.98945700  1
  Se  Se57  1  0.04817550  0.41864350  0.00073000  1
  Se  Se58  1  0.25498400  0.42347800  0.29811800  1
  Se  Se59  1  0.75498400  0.07652200  0.79811800  1
  Se  Se60  1  0.31405950  0.30948550  0.15292900  1
  Se  Se61  1  0.59763600  0.19462000  0.06274700  1
  Se  Se62  1  0.95182450  0.41864350  0.49927000  1
  Se  Se63  1  0.18594050  0.19051450  0.84707100  1
  Se  Se64  1  0.24501600  0.07652200  0.70188200  1
  Se  Se65  1  0.81405950  0.19051450  0.65292900  1
  Se  Se66  1  0.45182450  0.08135650  0.99927000  1
  Se  Se67  1  0.59648350  0.42458450  0.48945700  1
  Se  Se68  1  0.26179700  0.07932500  0.34923400  1
  Se  Se69  1  0.09763600  0.30538000  0.56274700  1
  Se  Se70  1  0.18594050  0.80948550  0.34707100  1
  Se  Se71  1  0.00000000  0.79420400  0.75000000  1
  Se  Se72  1  0.26179700  0.92067500  0.84923400  1
  Se  Se73  1  0.40236400  0.80538000  0.93725300  1
  Se  Se74  1  0.90236400  0.69462000  0.43725300  1
  Se  Se75  1  0.23820300  0.57932500  0.15076600  1
  Se  Se76  1  0.73820300  0.92067500  0.65076600  1
  Se  Se77  1  0.24501600  0.92347800  0.20188200  1
  Se  Se78  1  0.50000000  0.70579600  0.25000000  1
  Se  Se79  1  0.40351650  0.57541550  0.51054300  1
  Se  Se80  1  0.04817550  0.58135650  0.50073000  1
  Se  Se81  1  0.90351650  0.92458450  0.01054300  1
  Se  Se82  1  0.59648350  0.57541550  0.98945700  1
  Se  Se83  1  0.54817550  0.91864350  0.00073000  1
  Se  Se84  1  0.75498400  0.92347800  0.29811800  1
  Se  Se85  1  0.25498400  0.57652200  0.79811800  1
  Se  Se86  1  0.81405950  0.80948550  0.15292900  1
  Se  Se87  1  0.09763600  0.69462000  0.06274700  1
  Se  Se88  1  0.45182450  0.91864350  0.49927000  1
  Se  Se89  1  0.68594050  0.69051450  0.84707100  1
  Se  Se90  1  0.74501600  0.57652200  0.70188200  1
  Se  Se91  1  0.31405950  0.69051450  0.65292900  1
  Se  Se92  1  0.95182450  0.58135650  0.99927000  1
  Se  Se93  1  0.09648350  0.92458450  0.48945700  1
  Se  Se94  1  0.76179700  0.57932500  0.34923400  1
  Se  Se95  1  0.59763600  0.80538000  0.56274700  1
