# generated using pymatgen
data_Y2O3
_symmetry_space_group_name_H-M   'P 1'
_cell_length_a   14.12280400
_cell_length_b   3.51599800
_cell_length_c   8.69533683
_cell_angle_alpha   90.00000000
_cell_angle_beta   100.41237540
_cell_angle_gamma   90.00000000
_symmetry_Int_Tables_number   1
_chemical_formula_structural   Y2O3
_chemical_formula_sum   'Y12 O18'
_cell_volume   424.66322903
_cell_formula_units_Z   6
loop_
 _symmetry_equiv_pos_site_id
 _symmetry_equiv_pos_as_xyz
  1  'x, y, z'
loop_
 _atom_site_type_symbol
 _atom_site_label
 _atom_site_symmetry_multiplicity
 _atom_site_fract_x
 _atom_site_fract_y
 _atom_site_fract_z
 _atom_site_occupancy
  Y  Y0  1  0.86482500  0.50000000  0.51196100  1
  Y  Y1  1  0.63517500  0.00000000  0.48803900  1
  Y  Y2  1  0.96798600  0.00000000  0.18595200  1
  Y  Y3  1  0.80863600  0.50000000  0.86267200  1
  Y  Y4  1  0.69136400  0.00000000  0.13732800  1
  Y  Y5  1  0.53201400  0.50000000  0.81404800  1
  Y  Y6  1  0.36482500  0.00000000  0.51196100  1
  Y  Y7  1  0.13517500  0.50000000  0.48803900  1
  Y  Y8  1  0.46798600  0.50000000  0.18595200  1
  Y  Y9  1  0.30863600  0.00000000  0.86267200  1
  Y  Y10  1  0.19136400  0.50000000  0.13732800  1
  Y  Y11  1  0.03201400  0.00000000  0.81404800  1
  O  O12  1  0.87200400  0.00000000  0.71822800  1
  O  O13  1  0.67446800  0.50000000  0.96948300  1
  O  O14  1  0.70669200  0.50000000  0.62263000  1
  O  O15  1  0.52903700  0.00000000  0.65714400  1
  O  O16  1  0.97096300  0.50000000  0.34285600  1
  O  O17  1  0.00000000  0.50000000  0.00000000  1
  O  O18  1  0.82553200  0.00000000  0.03051700  1
  O  O19  1  0.79330800  0.00000000  0.37737000  1
  O  O20  1  0.62799600  0.50000000  0.28177200  1
  O  O21  1  0.37200400  0.50000000  0.71822800  1
  O  O22  1  0.17446800  0.00000000  0.96948300  1
  O  O23  1  0.20669200  0.00000000  0.62263000  1
  O  O24  1  0.02903700  0.50000000  0.65714400  1
  O  O25  1  0.47096300  0.00000000  0.34285600  1
  O  O26  1  0.50000000  0.00000000  0.00000000  1
  O  O27  1  0.32553200  0.50000000  0.03051700  1
  O  O28  1  0.29330800  0.50000000  0.37737000  1
  O  O29  1  0.12799600  0.00000000  0.28177200  1
