# generated using pymatgen
data_LaCN2F
_symmetry_space_group_name_H-M   'P 1'
_cell_length_a   3.89800800
_cell_length_b   8.77607800
_cell_length_c   7.86634900
_cell_angle_alpha   90.00000000
_cell_angle_beta   90.00000000
_cell_angle_gamma   90.00000000
_symmetry_Int_Tables_number   1
_chemical_formula_structural   LaCN2F
_chemical_formula_sum   'La4 C4 N8 F4'
_cell_volume   269.10168126
_cell_formula_units_Z   4
loop_
 _symmetry_equiv_pos_site_id
 _symmetry_equiv_pos_as_xyz
  1  'x, y, z'
loop_
 _atom_site_type_symbol
 _atom_site_label
 _atom_site_symmetry_multiplicity
 _atom_site_fract_x
 _atom_site_fract_y
 _atom_site_fract_z
 _atom_site_occupancy
  La  La0  1  0.50000000  0.27781600  0.75000000  1
  La  La1  1  0.00000000  0.22218400  0.25000000  1
  La  La2  1  0.00000000  0.77781600  0.75000000  1
  La  La3  1  0.50000000  0.72218400  0.25000000  1
  C  C4  1  0.50000000  0.00000000  0.00000000  1
  C  C5  1  0.50000000  0.00000000  0.50000000  1
  C  C6  1  0.00000000  0.50000000  0.00000000  1
  C  C7  1  0.00000000  0.50000000  0.50000000  1
  N  N8  1  0.00000000  0.36792400  0.55261900  1
  N  N9  1  0.50000000  0.13207600  0.05261900  1
  N  N10  1  0.00000000  0.36792400  0.94738100  1
  N  N11  1  0.50000000  0.13207600  0.44738100  1
  N  N12  1  0.50000000  0.86792400  0.55261900  1
  N  N13  1  0.00000000  0.63207600  0.05261900  1
  N  N14  1  0.50000000  0.86792400  0.94738100  1
  N  N15  1  0.00000000  0.63207600  0.44738100  1
  F  F16  1  0.50000000  0.41881000  0.25000000  1
  F  F17  1  0.00000000  0.08119000  0.75000000  1
  F  F18  1  0.00000000  0.91881000  0.25000000  1
  F  F19  1  0.50000000  0.58119000  0.75000000  1
