# generated using pymatgen
data_Bi5IO7
_symmetry_space_group_name_H-M   'P 1'
_cell_length_a   5.49089400
_cell_length_b   16.64178400
_cell_length_c   23.69866800
_cell_angle_alpha   90.00000000
_cell_angle_beta   90.00000000
_cell_angle_gamma   90.00000000
_symmetry_Int_Tables_number   1
_chemical_formula_structural   Bi5IO7
_chemical_formula_sum   'Bi40 I8 O56'
_cell_volume   2165.54332852
_cell_formula_units_Z   8
loop_
 _symmetry_equiv_pos_site_id
 _symmetry_equiv_pos_as_xyz
  1  'x, y, z'
loop_
 _atom_site_type_symbol
 _atom_site_label
 _atom_site_symmetry_multiplicity
 _atom_site_fract_x
 _atom_site_fract_y
 _atom_site_fract_z
 _atom_site_occupancy
  Bi  Bi0  1  0.54018300  0.57291900  0.30987600  1
  Bi  Bi1  1  0.54149050  0.92208650  0.06057850  1
  Bi  Bi2  1  0.45981700  0.57291900  0.80987600  1
  Bi  Bi3  1  0.95981700  0.42708100  0.80987600  1
  Bi  Bi4  1  0.95981700  0.57291900  0.69012400  1
  Bi  Bi5  1  0.54149050  0.42208650  0.93942150  1
  Bi  Bi6  1  0.54018300  0.42708100  0.19012400  1
  Bi  Bi7  1  0.04149050  0.07791350  0.06057850  1
  Bi  Bi8  1  0.50000000  0.25000000  0.79745400  1
  Bi  Bi9  1  0.04018300  0.57291900  0.19012400  1
  Bi  Bi10  1  0.45981700  0.42708100  0.69012400  1
  Bi  Bi11  1  0.00000000  0.25000000  0.20254600  1
  Bi  Bi12  1  0.95850950  0.42208650  0.06057850  1
  Bi  Bi13  1  0.04149050  0.57791350  0.93942150  1
  Bi  Bi14  1  0.45850950  0.07791350  0.93942150  1
  Bi  Bi15  1  0.04018300  0.42708100  0.30987600  1
  Bi  Bi16  1  0.00000000  0.75000000  0.79745400  1
  Bi  Bi17  1  0.95850950  0.92208650  0.93942150  1
  Bi  Bi18  1  0.45850950  0.57791350  0.06057850  1
  Bi  Bi19  1  0.50000000  0.75000000  0.20254600  1
  Bi  Bi20  1  0.04018300  0.07291900  0.80987600  1
  Bi  Bi21  1  0.04149050  0.42208650  0.56057850  1
  Bi  Bi22  1  0.95981700  0.07291900  0.30987600  1
  Bi  Bi23  1  0.45981700  0.92708100  0.30987600  1
  Bi  Bi24  1  0.45981700  0.07291900  0.19012400  1
  Bi  Bi25  1  0.04149050  0.92208650  0.43942150  1
  Bi  Bi26  1  0.04018300  0.92708100  0.69012400  1
  Bi  Bi27  1  0.54149050  0.57791350  0.56057850  1
  Bi  Bi28  1  0.00000000  0.75000000  0.29745400  1
  Bi  Bi29  1  0.54018300  0.07291900  0.69012400  1
  Bi  Bi30  1  0.95981700  0.92708100  0.19012400  1
  Bi  Bi31  1  0.50000000  0.75000000  0.70254600  1
  Bi  Bi32  1  0.45850950  0.92208650  0.56057850  1
  Bi  Bi33  1  0.54149050  0.07791350  0.43942150  1
  Bi  Bi34  1  0.95850950  0.57791350  0.43942150  1
  Bi  Bi35  1  0.54018300  0.92708100  0.80987600  1
  Bi  Bi36  1  0.50000000  0.25000000  0.29745400  1
  Bi  Bi37  1  0.45850950  0.42208650  0.43942150  1
  Bi  Bi38  1  0.95850950  0.07791350  0.56057850  1
  Bi  Bi39  1  0.00000000  0.25000000  0.70254600  1
  I  I40  1  0.50000000  0.25000000  0.09321600  1
  I  I41  1  0.00000000  0.25000000  0.90678400  1
  I  I42  1  0.00000000  0.75000000  0.09321600  1
  I  I43  1  0.50000000  0.75000000  0.90678400  1
  I  I44  1  0.00000000  0.75000000  0.59321600  1
  I  I45  1  0.50000000  0.75000000  0.40678400  1
  I  I46  1  0.50000000  0.25000000  0.59321600  1
  I  I47  1  0.00000000  0.25000000  0.40678400  1
  O  O48  1  0.73009700  0.66952500  0.25390200  1
  O  O49  1  0.23009700  0.33047500  0.25390200  1
  O  O50  1  0.57487150  0.44058250  0.84991050  1
  O  O51  1  0.91710300  0.45583300  0.95025700  1
  O  O52  1  0.57487150  0.55941750  0.65008950  1
  O  O53  1  0.42512850  0.55941750  0.15008950  1
  O  O54  1  0.26990300  0.66952500  0.75390200  1
  O  O55  1  0.41710300  0.54416700  0.95025700  1
  O  O56  1  0.92512850  0.44058250  0.15008950  1
  O  O57  1  0.41710300  0.45583300  0.54974300  1
  O  O58  1  0.75135200  0.50000000  0.25000000  1
  O  O59  1  0.26990300  0.33047500  0.74609800  1
  O  O60  1  0.42512850  0.44058250  0.34991050  1
  O  O61  1  0.58289700  0.54416700  0.45025700  1
  O  O62  1  0.91710300  0.54416700  0.54974300  1
  O  O63  1  0.92512850  0.55941750  0.34991050  1
  O  O64  1  0.25135200  0.50000000  0.25000000  1
  O  O65  1  0.07487150  0.44058250  0.65008950  1
  O  O66  1  0.73009700  0.33047500  0.24609800  1
  O  O67  1  0.76990300  0.33047500  0.75390200  1
  O  O68  1  0.08289700  0.54416700  0.04974300  1
  O  O69  1  0.58289700  0.45583300  0.04974300  1
  O  O70  1  0.74864800  0.50000000  0.75000000  1
  O  O71  1  0.08289700  0.45583300  0.45025700  1
  O  O72  1  0.24864800  0.50000000  0.75000000  1
  O  O73  1  0.23009700  0.66952500  0.24609800  1
  O  O74  1  0.07487150  0.55941750  0.84991050  1
  O  O75  1  0.76990300  0.66952500  0.74609800  1
  O  O76  1  0.23009700  0.16952500  0.75390200  1
  O  O77  1  0.73009700  0.83047500  0.75390200  1
  O  O78  1  0.07487150  0.94058250  0.34991050  1
  O  O79  1  0.41710300  0.95583300  0.45025700  1
  O  O80  1  0.07487150  0.05941750  0.15008950  1
  O  O81  1  0.92512850  0.05941750  0.65008950  1
  O  O82  1  0.76990300  0.16952500  0.25390200  1
  O  O83  1  0.91710300  0.04416700  0.45025700  1
  O  O84  1  0.42512850  0.94058250  0.65008950  1
  O  O85  1  0.91710300  0.95583300  0.04974300  1
  O  O86  1  0.25135200  0.00000000  0.75000000  1
  O  O87  1  0.76990300  0.83047500  0.24609800  1
  O  O88  1  0.92512850  0.94058250  0.84991050  1
  O  O89  1  0.08289700  0.04416700  0.95025700  1
  O  O90  1  0.41710300  0.04416700  0.04974300  1
  O  O91  1  0.42512850  0.05941750  0.84991050  1
  O  O92  1  0.75135200  0.00000000  0.75000000  1
  O  O93  1  0.57487150  0.94058250  0.15008950  1
  O  O94  1  0.23009700  0.83047500  0.74609800  1
  O  O95  1  0.26990300  0.83047500  0.25390200  1
  O  O96  1  0.58289700  0.04416700  0.54974300  1
  O  O97  1  0.08289700  0.95583300  0.54974300  1
  O  O98  1  0.24864800  0.00000000  0.25000000  1
  O  O99  1  0.58289700  0.95583300  0.95025700  1
  O  O100  1  0.74864800  0.00000000  0.25000000  1
  O  O101  1  0.73009700  0.16952500  0.74609800  1
  O  O102  1  0.57487150  0.05941750  0.34991050  1
  O  O103  1  0.26990300  0.16952500  0.24609800  1
