# generated using pymatgen
data_SrAsH3O5
_symmetry_space_group_name_H-M   'P 1'
_cell_length_a   7.60027800
_cell_length_b   8.51575400
_cell_length_c   14.45274300
_cell_angle_alpha   90.00000000
_cell_angle_beta   90.00000000
_cell_angle_gamma   90.00000000
_symmetry_Int_Tables_number   1
_chemical_formula_structural   SrAsH3O5
_chemical_formula_sum   'Sr8 As8 H24 O40'
_cell_volume   935.41184563
_cell_formula_units_Z   8
loop_
 _symmetry_equiv_pos_site_id
 _symmetry_equiv_pos_as_xyz
  1  'x, y, z'
loop_
 _atom_site_type_symbol
 _atom_site_label
 _atom_site_symmetry_multiplicity
 _atom_site_fract_x
 _atom_site_fract_y
 _atom_site_fract_z
 _atom_site_occupancy
  Sr  Sr0  1  0.63605800  0.17823700  0.08322000  1
  Sr  Sr1  1  0.13605800  0.32176300  0.91678000  1
  Sr  Sr2  1  0.36394200  0.67823700  0.41678000  1
  Sr  Sr3  1  0.86394200  0.82176300  0.58322000  1
  Sr  Sr4  1  0.36394200  0.82176300  0.91678000  1
  Sr  Sr5  1  0.86394200  0.67823700  0.08322000  1
  Sr  Sr6  1  0.63605800  0.32176300  0.58322000  1
  Sr  Sr7  1  0.13605800  0.17823700  0.41678000  1
  As  As8  1  0.14596500  0.05361000  0.11370900  1
  As  As9  1  0.64596500  0.44639000  0.88629100  1
  As  As10  1  0.85403500  0.55361000  0.38629100  1
  As  As11  1  0.35403500  0.94639000  0.61370900  1
  As  As12  1  0.85403500  0.94639000  0.88629100  1
  As  As13  1  0.35403500  0.55361000  0.11370900  1
  As  As14  1  0.14596500  0.44639000  0.61370900  1
  As  As15  1  0.64596500  0.05361000  0.38629100  1
  H  H16  1  0.27886900  0.25307600  0.19398400  1
  H  H17  1  0.77886900  0.24692400  0.80601600  1
  H  H18  1  0.72113100  0.75307600  0.30601600  1
  H  H19  1  0.22113100  0.74692400  0.69398400  1
  H  H20  1  0.72113100  0.74692400  0.80601600  1
  H  H21  1  0.22113100  0.75307600  0.19398400  1
  H  H22  1  0.27886900  0.24692400  0.69398400  1
  H  H23  1  0.77886900  0.25307600  0.30601600  1
  H  H24  1  0.94621700  0.16740000  0.62186300  1
  H  H25  1  0.44621700  0.33260000  0.37813700  1
  H  H26  1  0.05378300  0.66740000  0.87813700  1
  H  H27  1  0.55378300  0.83260000  0.12186300  1
  H  H28  1  0.05378300  0.83260000  0.37813700  1
  H  H29  1  0.55378300  0.66740000  0.62186300  1
  H  H30  1  0.94621700  0.33260000  0.12186300  1
  H  H31  1  0.44621700  0.16740000  0.87813700  1
  H  H32  1  0.89602000  0.10064200  0.72118500  1
  H  H33  1  0.39602000  0.39935800  0.27881500  1
  H  H34  1  0.10398000  0.60064200  0.77881500  1
  H  H35  1  0.60398000  0.89935800  0.22118500  1
  H  H36  1  0.10398000  0.89935800  0.27881500  1
  H  H37  1  0.60398000  0.60064200  0.72118500  1
  H  H38  1  0.89602000  0.39935800  0.22118500  1
  H  H39  1  0.39602000  0.10064200  0.77881500  1
  O  O40  1  0.20256100  0.16237000  0.21548700  1
  O  O41  1  0.70256100  0.33763000  0.78451300  1
  O  O42  1  0.79743900  0.66237000  0.28451300  1
  O  O43  1  0.29743900  0.83763000  0.71548700  1
  O  O44  1  0.79743900  0.83763000  0.78451300  1
  O  O45  1  0.29743900  0.66237000  0.21548700  1
  O  O46  1  0.20256100  0.33763000  0.71548700  1
  O  O47  1  0.70256100  0.16237000  0.28451300  1
  O  O48  1  0.07341000  0.88021700  0.16016900  1
  O  O49  1  0.57341000  0.61978300  0.83983100  1
  O  O50  1  0.92659000  0.38021700  0.33983100  1
  O  O51  1  0.42659000  0.11978300  0.66016900  1
  O  O52  1  0.92659000  0.11978300  0.83983100  1
  O  O53  1  0.42659000  0.38021700  0.16016900  1
  O  O54  1  0.07341000  0.61978300  0.66016900  1
  O  O55  1  0.57341000  0.88021700  0.33983100  1
  O  O56  1  0.32929700  0.03832200  0.04670400  1
  O  O57  1  0.82929700  0.46167800  0.95329600  1
  O  O58  1  0.67070300  0.53832200  0.45329600  1
  O  O59  1  0.17070300  0.96167800  0.54670400  1
  O  O60  1  0.67070300  0.96167800  0.95329600  1
  O  O61  1  0.17070300  0.53832200  0.04670400  1
  O  O62  1  0.32929700  0.46167800  0.54670400  1
  O  O63  1  0.82929700  0.03832200  0.45329600  1
  O  O64  1  0.98931100  0.16221600  0.05713100  1
  O  O65  1  0.48931100  0.33778400  0.94286900  1
  O  O66  1  0.01068900  0.66221600  0.44286900  1
  O  O67  1  0.51068900  0.83778400  0.55713100  1
  O  O68  1  0.01068900  0.83778400  0.94286900  1
  O  O69  1  0.51068900  0.66221600  0.05713100  1
  O  O70  1  0.98931100  0.33778400  0.55713100  1
  O  O71  1  0.48931100  0.16221600  0.44286900  1
  O  O72  1  0.86210400  0.09700700  0.65453500  1
  O  O73  1  0.36210400  0.40299300  0.34546500  1
  O  O74  1  0.13789600  0.59700700  0.84546500  1
  O  O75  1  0.63789600  0.90299300  0.15453500  1
  O  O76  1  0.13789600  0.90299300  0.34546500  1
  O  O77  1  0.63789600  0.59700700  0.65453500  1
  O  O78  1  0.86210400  0.40299300  0.15453500  1
  O  O79  1  0.36210400  0.09700700  0.84546500  1
