# generated using pymatgen
data_Rb2Ag4S3
_symmetry_space_group_name_H-M   'P 1'
_cell_length_a   18.24966400
_cell_length_b   4.34948000
_cell_length_c   12.00146498
_cell_angle_alpha   90.00000000
_cell_angle_beta   108.50650070
_cell_angle_gamma   90.00000000
_symmetry_Int_Tables_number   1
_chemical_formula_structural   Rb2Ag4S3
_chemical_formula_sum   'Rb8 Ag16 S12'
_cell_volume   903.37187846
_cell_formula_units_Z   4
loop_
 _symmetry_equiv_pos_site_id
 _symmetry_equiv_pos_as_xyz
  1  'x, y, z'
loop_
 _atom_site_type_symbol
 _atom_site_label
 _atom_site_symmetry_multiplicity
 _atom_site_fract_x
 _atom_site_fract_y
 _atom_site_fract_z
 _atom_site_occupancy
  Rb  Rb0  1  0.81088400  0.00000000  0.15675100  1
  Rb  Rb1  1  0.68911600  0.50000000  0.84324900  1
  Rb  Rb2  1  0.66791400  0.00000000  0.34076800  1
  Rb  Rb3  1  0.83208600  0.50000000  0.65923200  1
  Rb  Rb4  1  0.31088400  0.50000000  0.15675100  1
  Rb  Rb5  1  0.18911600  0.00000000  0.84324900  1
  Rb  Rb6  1  0.16791400  0.50000000  0.34076800  1
  Rb  Rb7  1  0.33208600  0.00000000  0.65923200  1
  Ag  Ag8  1  0.58923600  0.00000000  0.00853200  1
  Ag  Ag9  1  0.91076400  0.50000000  0.99146800  1
  Ag  Ag10  1  0.98916000  0.00000000  0.62485700  1
  Ag  Ag11  1  0.51084000  0.50000000  0.37514300  1
  Ag  Ag12  1  0.98200700  0.00000000  0.86772600  1
  Ag  Ag13  1  0.51799300  0.50000000  0.13227400  1
  Ag  Ag14  1  0.58833900  0.00000000  0.58755600  1
  Ag  Ag15  1  0.91166100  0.50000000  0.41244400  1
  Ag  Ag16  1  0.08923600  0.50000000  0.00853200  1
  Ag  Ag17  1  0.41076400  0.00000000  0.99146800  1
  Ag  Ag18  1  0.48916000  0.50000000  0.62485700  1
  Ag  Ag19  1  0.01084000  0.00000000  0.37514300  1
  Ag  Ag20  1  0.48200700  0.50000000  0.86772600  1
  Ag  Ag21  1  0.01799300  0.00000000  0.13227400  1
  Ag  Ag22  1  0.08833900  0.50000000  0.58755600  1
  Ag  Ag23  1  0.41166100  0.00000000  0.41244400  1
  S  S24  1  0.53385400  0.00000000  0.77476100  1
  S  S25  1  0.96614600  0.50000000  0.22523900  1
  S  S26  1  0.86186300  0.00000000  0.45991200  1
  S  S27  1  0.63813700  0.50000000  0.54008800  1
  S  S28  1  0.84825900  0.00000000  0.89294700  1
  S  S29  1  0.65174100  0.50000000  0.10705300  1
  S  S30  1  0.03385400  0.50000000  0.77476100  1
  S  S31  1  0.46614600  0.00000000  0.22523900  1
  S  S32  1  0.36186300  0.50000000  0.45991200  1
  S  S33  1  0.13813700  0.00000000  0.54008800  1
  S  S34  1  0.34825900  0.50000000  0.89294700  1
  S  S35  1  0.15174100  0.00000000  0.10705300  1
