# generated using pymatgen
data_KHo(PO3)4
_symmetry_space_group_name_H-M   'P 1'
_cell_length_a   7.91506800
_cell_length_b   12.50182600
_cell_length_c   10.51728948
_cell_angle_alpha   90.00000000
_cell_angle_beta   111.01689159
_cell_angle_gamma   90.00000000
_symmetry_Int_Tables_number   1
_chemical_formula_structural   KHo(PO3)4
_chemical_formula_sum   'K4 Ho4 P16 O48'
_cell_volume   971.48141276
_cell_formula_units_Z   4
loop_
 _symmetry_equiv_pos_site_id
 _symmetry_equiv_pos_as_xyz
  1  'x, y, z'
loop_
 _atom_site_type_symbol
 _atom_site_label
 _atom_site_symmetry_multiplicity
 _atom_site_fract_x
 _atom_site_fract_y
 _atom_site_fract_z
 _atom_site_occupancy
  K  K0  1  0.50000000  0.68419900  0.75000000  1
  K  K1  1  0.50000000  0.31580100  0.25000000  1
  K  K2  1  0.00000000  0.18419900  0.75000000  1
  K  K3  1  0.00000000  0.81580100  0.25000000  1
  Ho  Ho4  1  0.50000000  0.61983400  0.25000000  1
  Ho  Ho5  1  0.50000000  0.38016600  0.75000000  1
  Ho  Ho6  1  0.00000000  0.11983400  0.25000000  1
  Ho  Ho7  1  0.00000000  0.88016600  0.75000000  1
  P  P8  1  0.72128850  0.97607050  0.94290100  1
  P  P9  1  0.72128850  0.02392950  0.44290100  1
  P  P10  1  0.27871150  0.97607050  0.55709900  1
  P  P11  1  0.45565350  0.82944950  0.00333100  1
  P  P12  1  0.54434650  0.82944950  0.49666900  1
  P  P13  1  0.54434650  0.17055050  0.99666900  1
  P  P14  1  0.45565350  0.17055050  0.50333100  1
  P  P15  1  0.27871150  0.02392950  0.05709900  1
  P  P16  1  0.22128850  0.47607050  0.94290100  1
  P  P17  1  0.22128850  0.52392950  0.44290100  1
  P  P18  1  0.77871150  0.47607050  0.55709900  1
  P  P19  1  0.95565350  0.32944950  0.00333100  1
  P  P20  1  0.04434650  0.32944950  0.49666900  1
  P  P21  1  0.04434650  0.67055050  0.99666900  1
  P  P22  1  0.95565350  0.67055050  0.50333100  1
  P  P23  1  0.77871150  0.52392950  0.05709900  1
  O  O24  1  0.40035650  0.87116050  0.56377100  1
  O  O25  1  0.85385900  0.98989100  0.08597400  1
  O  O26  1  0.21534800  0.03140300  0.17409300  1
  O  O27  1  0.14614100  0.01010900  0.91402600  1
  O  O28  1  0.78465200  0.03140300  0.32590700  1
  O  O29  1  0.28788950  0.80185350  0.88464800  1
  O  O30  1  0.85385900  0.01010900  0.58597400  1
  O  O31  1  0.42877650  0.92931550  0.08997900  1
  O  O32  1  0.78465200  0.96859700  0.82590700  1
  O  O33  1  0.57122350  0.07068450  0.91002100  1
  O  O34  1  0.14614100  0.98989100  0.41402600  1
  O  O35  1  0.71211050  0.19814650  0.11535200  1
  O  O36  1  0.28788950  0.19814650  0.38464800  1
  O  O37  1  0.55214500  0.25672100  0.60237900  1
  O  O38  1  0.59964350  0.87116050  0.93622900  1
  O  O39  1  0.44785500  0.74327900  0.39762100  1
  O  O40  1  0.59964350  0.12883950  0.43622900  1
  O  O41  1  0.55214500  0.74327900  0.10237900  1
  O  O42  1  0.44785500  0.25672100  0.89762100  1
  O  O43  1  0.40035650  0.12883950  0.06377100  1
  O  O44  1  0.42877650  0.07068450  0.58997900  1
  O  O45  1  0.57122350  0.92931550  0.41002100  1
  O  O46  1  0.71211050  0.80185350  0.61535200  1
  O  O47  1  0.21534800  0.96859700  0.67409300  1
  O  O48  1  0.90035650  0.37116050  0.56377100  1
  O  O49  1  0.35385900  0.48989100  0.08597400  1
  O  O50  1  0.71534800  0.53140300  0.17409300  1
  O  O51  1  0.64614100  0.51010900  0.91402600  1
  O  O52  1  0.28465200  0.53140300  0.32590700  1
  O  O53  1  0.78788950  0.30185350  0.88464800  1
  O  O54  1  0.35385900  0.51010900  0.58597400  1
  O  O55  1  0.92877650  0.42931550  0.08997900  1
  O  O56  1  0.28465200  0.46859700  0.82590700  1
  O  O57  1  0.07122350  0.57068450  0.91002100  1
  O  O58  1  0.64614100  0.48989100  0.41402600  1
  O  O59  1  0.21211050  0.69814650  0.11535200  1
  O  O60  1  0.78788950  0.69814650  0.38464800  1
  O  O61  1  0.05214500  0.75672100  0.60237900  1
  O  O62  1  0.09964350  0.37116050  0.93622900  1
  O  O63  1  0.94785500  0.24327900  0.39762100  1
  O  O64  1  0.09964350  0.62883950  0.43622900  1
  O  O65  1  0.05214500  0.24327900  0.10237900  1
  O  O66  1  0.94785500  0.75672100  0.89762100  1
  O  O67  1  0.90035650  0.62883950  0.06377100  1
  O  O68  1  0.92877650  0.57068450  0.58997900  1
  O  O69  1  0.07122350  0.42931550  0.41002100  1
  O  O70  1  0.21211050  0.30185350  0.61535200  1
  O  O71  1  0.71534800  0.46859700  0.67409300  1
