# generated using pymatgen
data_Cd(GaO2)2
_symmetry_space_group_name_H-M   'P 1'
_cell_length_a   6.16964569
_cell_length_b   6.16964569
_cell_length_c   61.07936044
_cell_angle_alpha   90.00000000
_cell_angle_beta   90.00000000
_cell_angle_gamma   120.00000000
_symmetry_Int_Tables_number   1
_chemical_formula_structural   Cd(GaO2)2
_chemical_formula_sum   'Cd24 Ga48 O96'
_cell_volume   2013.47184539
_cell_formula_units_Z   24
loop_
 _symmetry_equiv_pos_site_id
 _symmetry_equiv_pos_as_xyz
  1  'x, y, z'
loop_
 _atom_site_type_symbol
 _atom_site_label
 _atom_site_symmetry_multiplicity
 _atom_site_fract_x
 _atom_site_fract_y
 _atom_site_fract_z
 _atom_site_occupancy
  Cd  Cd0  1  0.66666667  0.33333333  0.02138733  1
  Cd  Cd1  1  0.33333333  0.66666667  0.10491667  1
  Cd  Cd2  1  0.33333333  0.66666667  0.16558067  1
  Cd  Cd3  1  0.33333333  0.66666667  0.00956267  1
  Cd  Cd4  1  0.00000000  0.00000000  0.18819700  1
  Cd  Cd5  1  0.00000000  0.00000000  0.25065300  1
  Cd  Cd6  1  0.00000000  0.00000000  0.09461400  1
  Cd  Cd7  1  0.66666667  0.33333333  0.27067233  1
  Cd  Cd8  1  0.33333333  0.66666667  0.35472067  1
  Cd  Cd9  1  0.00000000  0.00000000  0.43825000  1
  Cd  Cd10  1  0.00000000  0.00000000  0.49891400  1
  Cd  Cd11  1  0.00000000  0.00000000  0.34289600  1
  Cd  Cd12  1  0.66666667  0.33333333  0.52153033  1
  Cd  Cd13  1  0.66666667  0.33333333  0.58398633  1
  Cd  Cd14  1  0.66666667  0.33333333  0.42794733  1
  Cd  Cd15  1  0.33333333  0.66666667  0.60400567  1
  Cd  Cd16  1  0.00000000  0.00000000  0.68805400  1
  Cd  Cd17  1  0.66666667  0.33333333  0.77158333  1
  Cd  Cd18  1  0.66666667  0.33333333  0.83224733  1
  Cd  Cd19  1  0.66666667  0.33333333  0.67622933  1
  Cd  Cd20  1  0.33333333  0.66666667  0.85486367  1
  Cd  Cd21  1  0.33333333  0.66666667  0.91731967  1
  Cd  Cd22  1  0.33333333  0.66666667  0.76128067  1
  Cd  Cd23  1  0.00000000  0.00000000  0.93733900  1
  Ga  Ga24  1  0.66666667  0.33333333  0.33232733  1
  Ga  Ga25  1  0.66666667  0.33333333  0.08149233  1
  Ga  Ga26  1  0.17134700  0.34269400  0.05203700  1
  Ga  Ga27  1  0.17134700  0.82865300  0.05203700  1
  Ga  Ga28  1  0.83589333  0.67178667  0.13637067  1
  Ga  Ga29  1  0.65730600  0.82865300  0.05203700  1
  Ga  Ga30  1  0.83589333  0.16410667  0.13637067  1
  Ga  Ga31  1  0.50036367  0.00072733  0.21852033  1
  Ga  Ga32  1  0.32821333  0.16410667  0.13637067  1
  Ga  Ga33  1  0.66666667  0.33333333  0.17722733  1
  Ga  Ga34  1  0.50036367  0.49963633  0.21852033  1
  Ga  Ga35  1  0.17081667  0.34163333  0.30142033  1
  Ga  Ga36  1  0.99927267  0.49963633  0.21852033  1
  Ga  Ga37  1  0.17081667  0.82918333  0.30142033  1
  Ga  Ga38  1  0.33333333  0.66666667  0.25954067  1
  Ga  Ga39  1  0.65836667  0.82918333  0.30142033  1
  Ga  Ga40  1  0.33333333  0.66666667  0.66566067  1
  Ga  Ga41  1  0.33333333  0.66666667  0.41482567  1
  Ga  Ga42  1  0.83801367  0.67602733  0.38537033  1
  Ga  Ga43  1  0.83801367  0.16198633  0.38537033  1
  Ga  Ga44  1  0.50256000  0.00512000  0.46970400  1
  Ga  Ga45  1  0.32397267  0.16198633  0.38537033  1
  Ga  Ga46  1  0.50256000  0.49744000  0.46970400  1
  Ga  Ga47  1  0.16703033  0.33406067  0.55185367  1
  Ga  Ga48  1  0.99488000  0.49744000  0.46970400  1
  Ga  Ga49  1  0.33333333  0.66666667  0.51056067  1
  Ga  Ga50  1  0.16703033  0.83296967  0.55185367  1
  Ga  Ga51  1  0.83748333  0.67496667  0.63475367  1
  Ga  Ga52  1  0.66593933  0.83296967  0.55185367  1
  Ga  Ga53  1  0.83748333  0.16251667  0.63475367  1
  Ga  Ga54  1  0.00000000  0.00000000  0.59287400  1
  Ga  Ga55  1  0.32503333  0.16251667  0.63475367  1
  Ga  Ga56  1  0.00000000  0.00000000  0.99899400  1
  Ga  Ga57  1  0.00000000  0.00000000  0.74815900  1
  Ga  Ga58  1  0.50468033  0.00936067  0.71870367  1
  Ga  Ga59  1  0.50468033  0.49531967  0.71870367  1
  Ga  Ga60  1  0.16922667  0.33845333  0.80303733  1
  Ga  Ga61  1  0.99063933  0.49531967  0.71870367  1
  Ga  Ga62  1  0.16922667  0.83077333  0.80303733  1
  Ga  Ga63  1  0.83369700  0.66739400  0.88518700  1
  Ga  Ga64  1  0.66154667  0.83077333  0.80303733  1
  Ga  Ga65  1  0.00000000  0.00000000  0.84389400  1
  Ga  Ga66  1  0.83369700  0.16630300  0.88518700  1
  Ga  Ga67  1  0.50415000  0.00830000  0.96808700  1
  Ga  Ga68  1  0.33260600  0.16630300  0.88518700  1
  Ga  Ga69  1  0.50415000  0.49585000  0.96808700  1
  Ga  Ga70  1  0.66666667  0.33333333  0.92620733  1
  Ga  Ga71  1  0.99170000  0.49585000  0.96808700  1
  O  O72  1  0.03350333  0.51675167  0.03528167  1
  O  O73  1  0.33333333  0.66666667  0.06964067  1
  O  O74  1  0.48324833  0.51675167  0.03528167  1
  O  O75  1  0.48324833  0.96649667  0.03528167  1
  O  O76  1  0.69458000  0.84729000  0.12031800  1
  O  O77  1  0.83817600  0.67635200  0.06968900  1
  O  O78  1  0.83817600  0.16182400  0.06968900  1
  O  O79  1  0.00000000  0.00000000  0.15342700  1
  O  O80  1  0.00000000  0.00000000  0.03165700  1
  O  O81  1  0.15271000  0.84729000  0.12031800  1
  O  O82  1  0.15271000  0.30542000  0.12031800  1
  O  O83  1  0.32364800  0.16182400  0.06968900  1
  O  O84  1  0.38239067  0.19119533  0.19973833  1
  O  O85  1  0.52766633  0.05533267  0.15491767  1
  O  O86  1  0.66666667  0.33333333  0.23520033  1
  O  O87  1  0.80880467  0.19119533  0.19973833  1
  O  O88  1  0.52766633  0.47233367  0.15491767  1
  O  O89  1  0.66666667  0.33333333  0.11336533  1
  O  O90  1  0.80880467  0.61760933  0.19973833  1
  O  O91  1  0.94466733  0.47233367  0.15491767  1
  O  O92  1  0.18985000  0.37970000  0.23799100  1
  O  O93  1  0.05126667  0.52563333  0.28194833  1
  O  O94  1  0.18985000  0.81015000  0.23799100  1
  O  O95  1  0.33333333  0.66666667  0.31842967  1
  O  O96  1  0.33333333  0.66666667  0.20213867  1
  O  O97  1  0.47436667  0.52563333  0.28194833  1
  O  O98  1  0.47436667  0.94873333  0.28194833  1
  O  O99  1  0.62030000  0.81015000  0.23799100  1
  O  O100  1  0.83081267  0.66162533  0.31927933  1
  O  O101  1  0.83081267  0.16918733  0.31927933  1
  O  O102  1  0.00000000  0.00000000  0.28743500  1
  O  O103  1  0.33837467  0.16918733  0.31927933  1
  O  O104  1  0.70017000  0.85008500  0.36861500  1
  O  O105  1  0.00000000  0.00000000  0.40297400  1
  O  O106  1  0.14991500  0.85008500  0.36861500  1
  O  O107  1  0.14991500  0.29983000  0.36861500  1
  O  O108  1  0.36124667  0.18062333  0.45365133  1
  O  O109  1  0.50484267  0.00968533  0.40302233  1
  O  O110  1  0.50484267  0.49515733  0.40302233  1
  O  O111  1  0.66666667  0.33333333  0.48676033  1
  O  O112  1  0.66666667  0.33333333  0.36499033  1
  O  O113  1  0.81937667  0.18062333  0.45365133  1
  O  O114  1  0.81937667  0.63875333  0.45365133  1
  O  O115  1  0.99031467  0.49515733  0.40302233  1
  O  O116  1  0.04905733  0.52452867  0.53307167  1
  O  O117  1  0.19433300  0.38866600  0.48825100  1
  O  O118  1  0.33333333  0.66666667  0.56853367  1
  O  O119  1  0.47547133  0.52452867  0.53307167  1
  O  O120  1  0.19433300  0.80566700  0.48825100  1
  O  O121  1  0.33333333  0.66666667  0.44669867  1
  O  O122  1  0.47547133  0.95094267  0.53307167  1
  O  O123  1  0.61133400  0.80566700  0.48825100  1
  O  O124  1  0.85651667  0.71303333  0.57132433  1
  O  O125  1  0.71793333  0.85896667  0.61528167  1
  O  O126  1  0.85651667  0.14348333  0.57132433  1
  O  O127  1  0.00000000  0.00000000  0.65176300  1
  O  O128  1  0.00000000  0.00000000  0.53547200  1
  O  O129  1  0.14103333  0.85896667  0.61528167  1
  O  O130  1  0.14103333  0.28206667  0.61528167  1
  O  O131  1  0.28696667  0.14348333  0.57132433  1
  O  O132  1  0.49747933  0.99495867  0.65261267  1
  O  O133  1  0.49747933  0.50252067  0.65261267  1
  O  O134  1  0.66666667  0.33333333  0.62076833  1
  O  O135  1  0.00504133  0.50252067  0.65261267  1
  O  O136  1  0.36683667  0.18341833  0.70194833  1
  O  O137  1  0.66666667  0.33333333  0.73630733  1
  O  O138  1  0.81658167  0.18341833  0.70194833  1
  O  O139  1  0.81658167  0.63316333  0.70194833  1
  O  O140  1  0.02791333  0.51395667  0.78698467  1
  O  O141  1  0.17150933  0.34301867  0.73635567  1
  O  O142  1  0.17150933  0.82849067  0.73635567  1
  O  O143  1  0.33333333  0.66666667  0.82009367  1
  O  O144  1  0.33333333  0.66666667  0.69832367  1
  O  O145  1  0.48604333  0.51395667  0.78698467  1
  O  O146  1  0.48604333  0.97208667  0.78698467  1
  O  O147  1  0.65698133  0.82849067  0.73635567  1
  O  O148  1  0.71572400  0.85786200  0.86640500  1
  O  O149  1  0.86099967  0.72199933  0.82158433  1
  O  O150  1  0.00000000  0.00000000  0.90186700  1
  O  O151  1  0.14213800  0.85786200  0.86640500  1
  O  O152  1  0.86099967  0.13900033  0.82158433  1
  O  O153  1  0.00000000  0.00000000  0.78003200  1
  O  O154  1  0.14213800  0.28427600  0.86640500  1
  O  O155  1  0.27800067  0.13900033  0.82158433  1
  O  O156  1  0.52318333  0.04636667  0.90465767  1
  O  O157  1  0.38460000  0.19230000  0.94861500  1
  O  O158  1  0.52318333  0.47681667  0.90465767  1
  O  O159  1  0.66666667  0.33333333  0.98509633  1
  O  O160  1  0.66666667  0.33333333  0.86880533  1
  O  O161  1  0.80770000  0.19230000  0.94861500  1
  O  O162  1  0.80770000  0.61540000  0.94861500  1
  O  O163  1  0.95363333  0.47681667  0.90465767  1
  O  O164  1  0.16414600  0.32829200  0.98594600  1
  O  O165  1  0.16414600  0.83585400  0.98594600  1
  O  O166  1  0.33333333  0.66666667  0.95410167  1
  O  O167  1  0.67170800  0.83585400  0.98594600  1
