# generated using pymatgen
data_Nb2Te4O13
_symmetry_space_group_name_H-M   'P 1'
_cell_length_a   7.71848800
_cell_length_b   12.96527888
_cell_length_c   13.00440468
_cell_angle_alpha   116.19756057
_cell_angle_beta   90.28873582
_cell_angle_gamma   90.20486435
_symmetry_Int_Tables_number   1
_chemical_formula_structural   Nb2Te4O13
_chemical_formula_sum   'Nb8 Te16 O52'
_cell_volume   1167.66052636
_cell_formula_units_Z   4
loop_
 _symmetry_equiv_pos_site_id
 _symmetry_equiv_pos_as_xyz
  1  'x, y, z'
loop_
 _atom_site_type_symbol
 _atom_site_label
 _atom_site_symmetry_multiplicity
 _atom_site_fract_x
 _atom_site_fract_y
 _atom_site_fract_z
 _atom_site_occupancy
  Nb  Nb0  1  0.64452200  0.79810600  0.96275800  1
  Nb  Nb1  1  0.10568100  0.29646700  0.47295700  1
  Nb  Nb2  1  0.85637000  0.20898300  0.04859500  1
  Nb  Nb3  1  0.35547800  0.20189400  0.03724200  1
  Nb  Nb4  1  0.60428200  0.28101700  0.46427200  1
  Nb  Nb5  1  0.14363000  0.79101700  0.95140500  1
  Nb  Nb6  1  0.89431900  0.70353300  0.52704300  1
  Nb  Nb7  1  0.39571800  0.71898300  0.53572800  1
  Te  Te8  1  0.44648600  0.76588700  0.28892300  1
  Te  Te9  1  0.69927400  0.54778900  0.01134300  1
  Te  Te10  1  0.87987200  0.05117500  0.24028100  1
  Te  Te11  1  0.55351400  0.23411300  0.71107700  1
  Te  Te12  1  0.62176600  0.46813400  0.29926800  1
  Te  Te13  1  0.97081400  0.26840900  0.80952900  1
  Te  Te14  1  0.37823400  0.53186600  0.70073200  1
  Te  Te15  1  0.21153000  0.05272600  0.52034800  1
  Te  Te16  1  0.12012800  0.94882500  0.75971900  1
  Te  Te17  1  0.37171800  0.01500200  0.19996400  1
  Te  Te18  1  0.02918600  0.73159100  0.19047100  1
  Te  Te19  1  0.62828200  0.98499800  0.80003600  1
  Te  Te20  1  0.12474100  0.44808300  0.27692800  1
  Te  Te21  1  0.78847000  0.94727400  0.47965200  1
  Te  Te22  1  0.30072600  0.45221100  0.98865700  1
  Te  Te23  1  0.87525900  0.55191700  0.72307200  1
  O  O24  1  0.68959500  0.14213800  0.32892000  1
  O  O25  1  0.54026300  0.51220300  0.10267000  1
  O  O26  1  0.38611400  0.12290400  0.13287200  1
  O  O27  1  0.18718900  0.43583400  0.61468200  1
  O  O28  1  0.06926200  0.14861200  0.32445800  1
  O  O29  1  0.30836400  0.36112300  0.17565600  1
  O  O30  1  0.87924900  0.79469700  0.43361100  1
  O  O31  1  0.56251700  0.92905700  0.10927200  1
  O  O32  1  0.37261500  0.24497100  0.43625400  1
  O  O33  1  0.10530700  0.69157700  0.03798900  1
  O  O34  1  0.89469300  0.30842300  0.96201100  1
  O  O35  1  0.39299900  0.61715000  0.61449200  1
  O  O36  1  0.12398200  0.16818700  0.00535100  1
  O  O37  1  0.93073800  0.85138800  0.67554200  1
  O  O38  1  0.37456700  0.75388900  0.92763600  1
  O  O39  1  0.63320500  0.70408700  0.05912700  1
  O  O40  1  0.93600400  0.35221000  0.19015700  1
  O  O41  1  0.81281100  0.56416600  0.38531800  1
  O  O42  1  0.12469700  0.40158200  0.85383200  1
  O  O43  1  0.36679500  0.29591300  0.94087300  1
  O  O44  1  0.43748300  0.07094300  0.89072800  1
  O  O45  1  0.13081000  0.88082500  0.86376000  1
  O  O46  1  0.12590600  0.67134100  0.49890000  1
  O  O47  1  0.45973700  0.48779700  0.89733000  1
  O  O48  1  0.30376400  0.86301400  0.25151600  1
  O  O49  1  0.87409400  0.32865900  0.50110000  1
  O  O50  1  0.63545900  0.19022500  0.55720300  1
  O  O51  1  0.69163600  0.63887700  0.82434400  1
  O  O52  1  0.79108300  0.34425000  0.76989800  1
  O  O53  1  0.87601800  0.83181300  0.99464900  1
  O  O54  1  0.82102600  0.06402100  0.89777200  1
  O  O55  1  0.62391900  0.89906700  0.35120600  1
  O  O56  1  0.44240800  0.57691900  0.37889900  1
  O  O57  1  0.94706300  0.99453200  0.39815300  1
  O  O58  1  0.86919000  0.11917500  0.13624000  1
  O  O59  1  0.14714100  0.38276200  0.38008500  1
  O  O60  1  0.61388600  0.87709600  0.86712800  1
  O  O61  1  0.31040500  0.85786200  0.67108000  1
  O  O62  1  0.20891700  0.65575000  0.23010200  1
  O  O63  1  0.55759200  0.42308100  0.62110100  1
  O  O64  1  0.62543300  0.24611100  0.07236400  1
  O  O65  1  0.36454100  0.80977500  0.44279700  1
  O  O66  1  0.60700100  0.38285000  0.38550800  1
  O  O67  1  0.06399600  0.64779000  0.80984300  1
  O  O68  1  0.12075100  0.20530300  0.56638900  1
  O  O69  1  0.17897400  0.93597900  0.10222800  1
  O  O70  1  0.37608100  0.10093300  0.64879400  1
  O  O71  1  0.87530300  0.59841800  0.14616800  1
  O  O72  1  0.62738500  0.75502900  0.56374600  1
  O  O73  1  0.85285900  0.61723800  0.61991500  1
  O  O74  1  0.69623600  0.13698600  0.74848400  1
  O  O75  1  0.05293700  0.00546800  0.60184700  1
