# generated using pymatgen
data_La6Ti2S8O5
_symmetry_space_group_name_H-M   'P 1'
_cell_length_a   12.77072000
_cell_length_b   4.02037100
_cell_length_c   16.48571446
_cell_angle_alpha   90.00000000
_cell_angle_beta   97.03775488
_cell_angle_gamma   90.00000000
_symmetry_Int_Tables_number   1
_chemical_formula_structural   La6Ti2S8O5
_chemical_formula_sum   'La12 Ti4 S16 O10'
_cell_volume   840.04928030
_cell_formula_units_Z   2
loop_
 _symmetry_equiv_pos_site_id
 _symmetry_equiv_pos_as_xyz
  1  'x, y, z'
loop_
 _atom_site_type_symbol
 _atom_site_label
 _atom_site_symmetry_multiplicity
 _atom_site_fract_x
 _atom_site_fract_y
 _atom_site_fract_z
 _atom_site_occupancy
  La  La0  1  0.68004800  0.75000000  0.35125500  1
  La  La1  1  0.39590200  0.75000000  0.87383600  1
  La  La2  1  0.06815400  0.75000000  0.88255000  1
  La  La3  1  0.60409800  0.25000000  0.12616400  1
  La  La4  1  0.31995200  0.25000000  0.64874500  1
  La  La5  1  0.38482800  0.25000000  0.39842200  1
  La  La6  1  0.99841800  0.25000000  0.38049600  1
  La  La7  1  0.93184600  0.25000000  0.11745000  1
  La  La8  1  0.61517200  0.75000000  0.60157800  1
  La  La9  1  0.00158200  0.75000000  0.61950400  1
  La  La10  1  0.73089400  0.75000000  0.89770900  1
  La  La11  1  0.26910600  0.25000000  0.10229100  1
  Ti  Ti12  1  0.44112800  0.75000000  0.22598900  1
  Ti  Ti13  1  0.15333600  0.75000000  0.23242200  1
  Ti  Ti14  1  0.84666400  0.25000000  0.76757800  1
  Ti  Ti15  1  0.55887200  0.25000000  0.77401100  1
  S  S16  1  0.43032600  0.75000000  0.06110200  1
  S  S17  1  0.23557500  0.25000000  0.92368000  1
  S  S18  1  0.91341100  0.25000000  0.93218500  1
  S  S19  1  0.77440500  0.25000000  0.26917600  1
  S  S20  1  0.80447400  0.25000000  0.62656500  1
  S  S21  1  0.39207200  0.75000000  0.53507500  1
  S  S22  1  0.60792800  0.25000000  0.46492500  1
  S  S23  1  0.56967400  0.25000000  0.93889800  1
  S  S24  1  0.76442500  0.75000000  0.07632000  1
  S  S25  1  0.96934100  0.75000000  0.24570800  1
  S  S26  1  0.88662300  0.75000000  0.45437100  1
  S  S27  1  0.19552600  0.75000000  0.37343500  1
  S  S28  1  0.11337700  0.25000000  0.54562900  1
  S  S29  1  0.22559500  0.75000000  0.73082400  1
  S  S30  1  0.03065900  0.25000000  0.75429200  1
  S  S31  1  0.08658900  0.75000000  0.06781500  1
  O  O32  1  0.28714800  0.75000000  0.19193900  1
  O  O33  1  0.14960900  0.25000000  0.21721600  1
  O  O34  1  0.45281100  0.75000000  0.33938700  1
  O  O35  1  0.54718900  0.25000000  0.66061300  1
  O  O36  1  0.41541100  0.25000000  0.78695700  1
  O  O37  1  0.85039100  0.75000000  0.78278400  1
  O  O38  1  0.58458900  0.75000000  0.21304300  1
  O  O39  1  0.71285200  0.25000000  0.80806100  1
  O  O40  1  0.56689100  0.75000000  0.78275500  1
  O  O41  1  0.43310900  0.25000000  0.21724500  1
