# generated using pymatgen
data_Y2Cu2O5
_symmetry_space_group_name_H-M   'P 1'
_cell_length_a   6.26558900
_cell_length_b   7.19304300
_cell_length_c   11.24612500
_cell_angle_alpha   90.00000000
_cell_angle_beta   90.00000000
_cell_angle_gamma   90.00000000
_symmetry_Int_Tables_number   1
_chemical_formula_structural   Y2Cu2O5
_chemical_formula_sum   'Y8 Cu8 O20'
_cell_volume   506.84768382
_cell_formula_units_Z   4
loop_
 _symmetry_equiv_pos_site_id
 _symmetry_equiv_pos_as_xyz
  1  'x, y, z'
loop_
 _atom_site_type_symbol
 _atom_site_label
 _atom_site_symmetry_multiplicity
 _atom_site_fract_x
 _atom_site_fract_y
 _atom_site_fract_z
 _atom_site_occupancy
  Y  Y0  1  0.24999800  0.88016500  0.97864600  1
  Y  Y1  1  0.74999800  0.61983500  0.52135400  1
  Y  Y2  1  0.25000200  0.38016500  0.02135400  1
  Y  Y3  1  0.75000200  0.11983500  0.47864600  1
  Y  Y4  1  0.75000200  0.11983500  0.02135400  1
  Y  Y5  1  0.25000200  0.38016500  0.47864600  1
  Y  Y6  1  0.74999800  0.61983500  0.97864600  1
  Y  Y7  1  0.24999800  0.88016500  0.52135400  1
  Cu  Cu8  1  0.92858000  0.84882200  0.75000000  1
  Cu  Cu9  1  0.42858000  0.65117800  0.75000000  1
  Cu  Cu10  1  0.57142000  0.34882200  0.25000000  1
  Cu  Cu11  1  0.07142000  0.15117800  0.25000000  1
  Cu  Cu12  1  0.41166000  0.12739700  0.75000000  1
  Cu  Cu13  1  0.91166000  0.37260300  0.75000000  1
  Cu  Cu14  1  0.08834000  0.62739700  0.25000000  1
  Cu  Cu15  1  0.58834000  0.87260300  0.25000000  1
  O  O16  1  0.24549100  0.88063300  0.75000000  1
  O  O17  1  0.74549100  0.61936700  0.75000000  1
  O  O18  1  0.25450900  0.38063300  0.25000000  1
  O  O19  1  0.75450900  0.11936700  0.25000000  1
  O  O20  1  0.90385100  0.88609900  0.91166900  1
  O  O21  1  0.40385100  0.61390100  0.58833100  1
  O  O22  1  0.59614900  0.38609900  0.08833100  1
  O  O23  1  0.09614900  0.11390100  0.41166900  1
  O  O24  1  0.09614900  0.11390100  0.08833100  1
  O  O25  1  0.59614900  0.38609900  0.41166900  1
  O  O26  1  0.40385100  0.61390100  0.91166900  1
  O  O27  1  0.90385100  0.88609900  0.58833100  1
  O  O28  1  0.42979500  0.14327300  0.91405200  1
  O  O29  1  0.92979500  0.35672700  0.58594800  1
  O  O30  1  0.07020500  0.64327300  0.08594800  1
  O  O31  1  0.57020500  0.85672700  0.41405200  1
  O  O32  1  0.57020500  0.85672700  0.08594800  1
  O  O33  1  0.07020500  0.64327300  0.41405200  1
  O  O34  1  0.92979500  0.35672700  0.91405200  1
  O  O35  1  0.42979500  0.14327300  0.58594800  1
