# generated using pymatgen
data_AgP(XeF5)2
_symmetry_space_group_name_H-M   'P 1'
_cell_length_a   8.67741800
_cell_length_b   8.67741800
_cell_length_c   12.79413600
_cell_angle_alpha   90.00000000
_cell_angle_beta   90.00000000
_cell_angle_gamma   90.00000000
_symmetry_Int_Tables_number   1
_chemical_formula_structural   AgP(XeF5)2
_chemical_formula_sum   'Ag4 P4 Xe8 F40'
_cell_volume   963.36751925
_cell_formula_units_Z   4
loop_
 _symmetry_equiv_pos_site_id
 _symmetry_equiv_pos_as_xyz
  1  'x, y, z'
loop_
 _atom_site_type_symbol
 _atom_site_label
 _atom_site_symmetry_multiplicity
 _atom_site_fract_x
 _atom_site_fract_y
 _atom_site_fract_z
 _atom_site_occupancy
  Ag  Ag0  1  0.00000000  0.50000000  0.00000000  1
  Ag  Ag1  1  0.50000000  0.00000000  0.00000000  1
  Ag  Ag2  1  0.50000000  0.00000000  0.50000000  1
  Ag  Ag3  1  0.00000000  0.50000000  0.50000000  1
  P  P4  1  0.00000000  0.00000000  0.00000000  1
  P  P5  1  0.50000000  0.50000000  0.00000000  1
  P  P6  1  0.50000000  0.50000000  0.50000000  1
  P  P7  1  0.00000000  0.00000000  0.50000000  1
  Xe  Xe8  1  0.25000000  0.75000000  0.25000000  1
  Xe  Xe9  1  0.25000000  0.25000000  0.25000000  1
  Xe  Xe10  1  0.75000000  0.75000000  0.25000000  1
  Xe  Xe11  1  0.75000000  0.25000000  0.25000000  1
  Xe  Xe12  1  0.75000000  0.25000000  0.75000000  1
  Xe  Xe13  1  0.75000000  0.75000000  0.75000000  1
  Xe  Xe14  1  0.25000000  0.25000000  0.75000000  1
  Xe  Xe15  1  0.25000000  0.75000000  0.75000000  1
  F  F16  1  0.07751700  0.17291400  0.00000000  1
  F  F17  1  0.57751700  0.32708600  0.00000000  1
  F  F18  1  0.88535200  0.61464800  0.35227000  1
  F  F19  1  0.11464800  0.61464800  0.14773000  1
  F  F20  1  0.61464800  0.11464800  0.35227000  1
  F  F21  1  0.11464800  0.38535200  0.35227000  1
  F  F22  1  0.88535200  0.38535200  0.14773000  1
  F  F23  1  0.42248300  0.67291400  0.00000000  1
  F  F24  1  0.38535200  0.88535200  0.35227000  1
  F  F25  1  0.38535200  0.11464800  0.14773000  1
  F  F26  1  0.32708600  0.42248300  0.00000000  1
  F  F27  1  0.17291400  0.92248300  0.00000000  1
  F  F28  1  0.00000000  0.00000000  0.37193900  1
  F  F29  1  0.50000000  0.50000000  0.37193900  1
  F  F30  1  0.50000000  0.50000000  0.12806100  1
  F  F31  1  0.67291400  0.57751700  0.00000000  1
  F  F32  1  0.82708600  0.07751700  0.00000000  1
  F  F33  1  0.00000000  0.00000000  0.12806100  1
  F  F34  1  0.61464800  0.88535200  0.14773000  1
  F  F35  1  0.92248300  0.82708600  0.00000000  1
  F  F36  1  0.57751700  0.67291400  0.50000000  1
  F  F37  1  0.07751700  0.82708600  0.50000000  1
  F  F38  1  0.38535200  0.11464800  0.85227000  1
  F  F39  1  0.61464800  0.11464800  0.64773000  1
  F  F40  1  0.11464800  0.61464800  0.85227000  1
  F  F41  1  0.61464800  0.88535200  0.85227000  1
  F  F42  1  0.38535200  0.88535200  0.64773000  1
  F  F43  1  0.92248300  0.17291400  0.50000000  1
  F  F44  1  0.88535200  0.38535200  0.85227000  1
  F  F45  1  0.88535200  0.61464800  0.64773000  1
  F  F46  1  0.82708600  0.92248300  0.50000000  1
  F  F47  1  0.67291400  0.42248300  0.50000000  1
  F  F48  1  0.50000000  0.50000000  0.87193900  1
  F  F49  1  0.00000000  0.00000000  0.87193900  1
  F  F50  1  0.00000000  0.00000000  0.62806100  1
  F  F51  1  0.17291400  0.07751700  0.50000000  1
  F  F52  1  0.32708600  0.57751700  0.50000000  1
  F  F53  1  0.50000000  0.50000000  0.62806100  1
  F  F54  1  0.11464800  0.38535200  0.64773000  1
  F  F55  1  0.42248300  0.32708600  0.50000000  1
