# generated using pymatgen
data_Ca6Hf19O44
_symmetry_space_group_name_H-M   'P 1'
_cell_length_a   18.26167257
_cell_length_b   18.26167257
_cell_length_c   17.75840945
_cell_angle_alpha   90.00000000
_cell_angle_beta   90.00000000
_cell_angle_gamma   120.00000000
_symmetry_Int_Tables_number   1
_chemical_formula_structural   Ca6Hf19O44
_chemical_formula_sum   'Ca36 Hf114 O264'
_cell_volume   5128.80042976
_cell_formula_units_Z   6
loop_
 _symmetry_equiv_pos_site_id
 _symmetry_equiv_pos_as_xyz
  1  'x, y, z'
loop_
 _atom_site_type_symbol
 _atom_site_label
 _atom_site_symmetry_multiplicity
 _atom_site_fract_x
 _atom_site_fract_y
 _atom_site_fract_z
 _atom_site_occupancy
  Ca  Ca0  1  0.20033300  0.20033300  0.25000000  1
  Ca  Ca1  1  0.74943133  0.08276467  0.41666667  1
  Ca  Ca2  1  0.33333333  0.25056867  0.41666667  1
  Ca  Ca3  1  0.91723533  0.66666667  0.41666667  1
  Ca  Ca4  1  0.79966700  0.00000000  0.25000000  1
  Ca  Ca5  1  0.79966700  0.79966700  0.75000000  1
  Ca  Ca6  1  0.00000000  0.20033300  0.75000000  1
  Ca  Ca7  1  0.08276467  0.33333333  0.58333333  1
  Ca  Ca8  1  0.66666667  0.74943133  0.58333333  1
  Ca  Ca9  1  0.00000000  0.79966700  0.25000000  1
  Ca  Ca10  1  0.20033300  0.00000000  0.75000000  1
  Ca  Ca11  1  0.25056867  0.91723533  0.58333333  1
  Ca  Ca12  1  0.86699967  0.53366633  0.58333333  1
  Ca  Ca13  1  0.41609800  0.41609800  0.75000000  1
  Ca  Ca14  1  1.00000000  0.58390200  0.75000000  1
  Ca  Ca15  1  0.58390200  0.00000000  0.75000000  1
  Ca  Ca16  1  0.46633367  0.33333333  0.58333333  1
  Ca  Ca17  1  0.46633367  0.13300033  0.08333333  1
  Ca  Ca18  1  0.66666667  0.53366633  0.08333333  1
  Ca  Ca19  1  0.74943133  0.66666667  0.91666667  1
  Ca  Ca20  1  0.33333333  0.08276467  0.91666667  1
  Ca  Ca21  1  0.66666667  0.13300033  0.58333333  1
  Ca  Ca22  1  0.86699967  0.33333333  0.08333333  1
  Ca  Ca23  1  0.91723533  0.25056867  0.91666667  1
  Ca  Ca24  1  0.53366633  0.86699967  0.91666667  1
  Ca  Ca25  1  0.08276467  0.74943133  0.08333333  1
  Ca  Ca26  1  0.66666667  0.91723533  0.08333333  1
  Ca  Ca27  1  0.25056867  0.33333333  0.08333333  1
  Ca  Ca28  1  0.13300033  0.66666667  0.91666667  1
  Ca  Ca29  1  0.13300033  0.46633367  0.41666667  1
  Ca  Ca30  1  0.33333333  0.86699967  0.41666667  1
  Ca  Ca31  1  0.41609800  1.00000000  0.25000000  1
  Ca  Ca32  1  0.00000000  0.41609800  0.25000000  1
  Ca  Ca33  1  0.33333333  0.46633367  0.91666667  1
  Ca  Ca34  1  0.53366633  0.66666667  0.41666667  1
  Ca  Ca35  1  0.58390200  0.58390200  0.25000000  1
  Hf  Hf36  1  0.33333333  0.05929667  0.41666667  1
  Hf  Hf37  1  0.84693267  0.71924733  0.57701133  1
  Hf  Hf38  1  0.04543233  0.12740167  0.57571867  1
  Hf  Hf39  1  0.81973400  0.20564800  0.25632200  1
  Hf  Hf40  1  0.71209900  0.25136400  0.40905200  1
  Hf  Hf41  1  0.00000000  0.18799800  0.25000000  1
  Hf  Hf42  1  0.12740167  0.08196933  0.42428133  1
  Hf  Hf43  1  0.28075267  0.12768533  0.57701133  1
  Hf  Hf44  1  0.18799800  0.18799800  0.75000000  1
  Hf  Hf45  1  0.94070333  0.27403667  0.41666667  1
  Hf  Hf46  1  0.81200200  0.81200200  0.25000000  1
  Hf  Hf47  1  0.95456767  0.87259833  0.42428133  1
  Hf  Hf48  1  0.27403667  0.33333333  0.58333333  1
  Hf  Hf49  1  0.25136400  0.53926500  0.59094800  1
  Hf  Hf50  1  0.66666667  0.94070333  0.58333333  1
  Hf  Hf51  1  0.91803067  0.04543233  0.42428133  1
  Hf  Hf52  1  0.00000000  0.00000000  0.25000000  1
  Hf  Hf53  1  0.53926500  0.28790100  0.40905200  1
  Hf  Hf54  1  0.20564800  0.38591400  0.74367800  1
  Hf  Hf55  1  0.74863600  0.46073500  0.40905200  1
  Hf  Hf56  1  0.12768533  0.84693267  0.42298867  1
  Hf  Hf57  1  0.87259833  0.91803067  0.57571867  1
  Hf  Hf58  1  0.08196933  0.95456767  0.57571867  1
  Hf  Hf59  1  0.46073500  0.71209900  0.59094800  1
  Hf  Hf60  1  0.72596333  0.66666667  0.41666667  1
  Hf  Hf61  1  0.87231467  0.15306733  0.57701133  1
  Hf  Hf62  1  0.79435200  0.61408600  0.25632200  1
  Hf  Hf63  1  0.81200200  0.00000000  0.75000000  1
  Hf  Hf64  1  0.00000000  0.81200200  0.75000000  1
  Hf  Hf65  1  0.05929667  0.72596333  0.58333333  1
  Hf  Hf66  1  0.18026600  0.79435200  0.74367800  1
  Hf  Hf67  1  0.71924733  0.87231467  0.42298867  1
  Hf  Hf68  1  0.00000000  0.00000000  0.75000000  1
  Hf  Hf69  1  0.18799800  0.00000000  0.25000000  1
  Hf  Hf70  1  0.61408600  0.81973400  0.74367800  1
  Hf  Hf71  1  0.15306733  0.28075267  0.42298867  1
  Hf  Hf72  1  0.38591400  0.18026600  0.25632200  1
  Hf  Hf73  1  0.28790100  0.74863600  0.59094800  1
  Hf  Hf74  1  0.00000000  0.39263000  0.75000000  1
  Hf  Hf75  1  0.51359933  0.05258067  0.91034467  1
  Hf  Hf76  1  0.71209900  0.46073500  0.90905200  1
  Hf  Hf77  1  0.48640067  0.53898133  0.58965533  1
  Hf  Hf78  1  0.37876567  0.58469733  0.74238533  1
  Hf  Hf79  1  0.66666667  0.52133133  0.58333333  1
  Hf  Hf80  1  0.79406833  0.41530267  0.75761467  1
  Hf  Hf81  1  0.94741933  0.46101867  0.91034467  1
  Hf  Hf82  1  0.85466467  0.52133133  0.08333333  1
  Hf  Hf83  1  0.60737000  0.60737000  0.75000000  1
  Hf  Hf84  1  0.47866867  0.14533533  0.58333333  1
  Hf  Hf85  1  0.62123433  0.20593167  0.75761467  1
  Hf  Hf86  1  0.94070333  0.66666667  0.91666667  1
  Hf  Hf87  1  0.91803067  0.87259833  0.92428133  1
  Hf  Hf88  1  0.33333333  0.27403667  0.91666667  1
  Hf  Hf89  1  0.58469733  0.37876567  0.75761467  1
  Hf  Hf90  1  0.66666667  0.33333333  0.58333333  1
  Hf  Hf91  1  0.20593167  0.62123433  0.74238533  1
  Hf  Hf92  1  0.87231467  0.71924733  0.07701133  1
  Hf  Hf93  1  0.41530267  0.79406833  0.74238533  1
  Hf  Hf94  1  0.79435200  0.18026600  0.75632200  1
  Hf  Hf95  1  0.53926500  0.25136400  0.90905200  1
  Hf  Hf96  1  0.74863600  0.28790100  0.90905200  1
  Hf  Hf97  1  0.12740167  0.04543233  0.92428133  1
  Hf  Hf98  1  0.39263000  0.00000000  0.75000000  1
  Hf  Hf99  1  0.53898133  0.48640067  0.91034467  1
  Hf  Hf100  1  0.46101867  0.94741933  0.58965533  1
  Hf  Hf101  1  0.47866867  0.33333333  0.08333333  1
  Hf  Hf102  1  0.66666667  0.14533533  0.08333333  1
  Hf  Hf103  1  0.72596333  0.05929667  0.91666667  1
  Hf  Hf104  1  0.84693267  0.12768533  0.07701133  1
  Hf  Hf105  1  0.38591400  0.20564800  0.75632200  1
  Hf  Hf106  1  0.66666667  0.33333333  0.08333333  1
  Hf  Hf107  1  0.85466467  0.33333333  0.58333333  1
  Hf  Hf108  1  0.28075267  0.15306733  0.07701133  1
  Hf  Hf109  1  0.81973400  0.61408600  0.75632200  1
  Hf  Hf110  1  0.05258067  0.51359933  0.58965533  1
  Hf  Hf111  1  0.95456767  0.08196933  0.92428133  1
  Hf  Hf112  1  0.66666667  0.72596333  0.08333333  1
  Hf  Hf113  1  0.18026600  0.38591400  0.24367800  1
  Hf  Hf114  1  0.37876567  0.79406833  0.24238533  1
  Hf  Hf115  1  0.15306733  0.87231467  0.92298867  1
  Hf  Hf116  1  0.04543233  0.91803067  0.07571867  1
  Hf  Hf117  1  0.33333333  0.85466467  0.91666667  1
  Hf  Hf118  1  0.46073500  0.74863600  0.09094800  1
  Hf  Hf119  1  0.61408600  0.79435200  0.24367800  1
  Hf  Hf120  1  0.52133133  0.85466467  0.41666667  1
  Hf  Hf121  1  0.27403667  0.94070333  0.08333333  1
  Hf  Hf122  1  0.14533533  0.47866867  0.91666667  1
  Hf  Hf123  1  0.28790100  0.53926500  0.09094800  1
  Hf  Hf124  1  0.60737000  0.00000000  0.25000000  1
  Hf  Hf125  1  0.58469733  0.20593167  0.25761467  1
  Hf  Hf126  1  0.00000000  0.60737000  0.25000000  1
  Hf  Hf127  1  0.25136400  0.71209900  0.09094800  1
  Hf  Hf128  1  0.33333333  0.66666667  0.91666667  1
  Hf  Hf129  1  0.87259833  0.95456767  0.07571867  1
  Hf  Hf130  1  0.53898133  0.05258067  0.41034467  1
  Hf  Hf131  1  0.08196933  0.12740167  0.07571867  1
  Hf  Hf132  1  0.46101867  0.51359933  0.08965533  1
  Hf  Hf133  1  0.20593167  0.58469733  0.24238533  1
  Hf  Hf134  1  0.41530267  0.62123433  0.24238533  1
  Hf  Hf135  1  0.79406833  0.37876567  0.25761467  1
  Hf  Hf136  1  0.05929667  0.33333333  0.08333333  1
  Hf  Hf137  1  0.20564800  0.81973400  0.24367800  1
  Hf  Hf138  1  0.12768533  0.28075267  0.92298867  1
  Hf  Hf139  1  0.14533533  0.66666667  0.41666667  1
  Hf  Hf140  1  0.33333333  0.47866867  0.41666667  1
  Hf  Hf141  1  0.39263000  0.39263000  0.25000000  1
  Hf  Hf142  1  0.51359933  0.46101867  0.41034467  1
  Hf  Hf143  1  0.05258067  0.53898133  0.08965533  1
  Hf  Hf144  1  0.33333333  0.66666667  0.41666667  1
  Hf  Hf145  1  0.52133133  0.66666667  0.91666667  1
  Hf  Hf146  1  0.94741933  0.48640067  0.41034467  1
  Hf  Hf147  1  0.48640067  0.94741933  0.08965533  1
  Hf  Hf148  1  0.71924733  0.84693267  0.92298867  1
  Hf  Hf149  1  0.62123433  0.41530267  0.25761467  1
  O  O150  1  0.27158600  0.36468400  0.47343800  1
  O  O151  1  0.00000000  0.00000000  0.39287900  1
  O  O152  1  0.14003733  0.08925167  0.54542967  1
  O  O153  1  0.23131967  0.41602833  0.61666233  1
  O  O154  1  0.46818300  0.33960400  0.44644400  1
  O  O155  1  0.94401467  0.87432233  0.80395233  1
  O  O156  1  0.94921433  0.85996267  0.54542967  1
  O  O157  1  0.11073100  0.85042700  0.80944900  1
  O  O158  1  0.90690200  0.27158600  0.52656200  1
  O  O159  1  0.74936167  0.89798633  0.55000433  1
  O  O160  1  0.26679767  0.91714233  0.71856233  1
  O  O161  1  0.89798633  0.14862467  0.44999567  1
  O  O162  1  0.05598533  0.12567767  0.19604767  1
  O  O163  1  0.18470867  0.76868033  0.61666233  1
  O  O164  1  0.91074833  0.05078567  0.54542967  1
  O  O165  1  0.28254767  0.75591833  0.71209633  1
  O  O166  1  0.31701133  0.25047567  0.55189567  1
  O  O167  1  0.20475433  0.00627067  0.61311067  1
  O  O168  1  0.41602833  0.18470867  0.38333767  1
  O  O169  1  0.87432233  0.94401467  0.69604767  1
  O  O170  1  0.36468400  0.09309800  0.52656200  1
  O  O171  1  0.87432233  0.93030767  0.19604767  1
  O  O172  1  0.73320233  0.08285767  0.28143767  1
  O  O173  1  0.25047567  0.93346433  0.44810433  1
  O  O174  1  0.08285767  0.34965533  0.71856233  1
  O  O175  1  0.73969600  0.88926900  0.80944900  1
  O  O176  1  0.93825267  0.24023533  0.30677133  1
  O  O177  1  0.12567767  0.05598533  0.30395233  1
  O  O178  1  0.85137533  0.74936167  0.44999567  1
  O  O179  1  0.24408167  0.52662933  0.71209633  1
  O  O180  1  0.00000000  0.00000000  0.89287900  1
  O  O181  1  0.69801733  0.93825267  0.69322867  1
  O  O182  1  0.53181700  0.66039600  0.55355600  1
  O  O183  1  0.25063833  0.10201367  0.44999567  1
  O  O184  1  0.94401467  0.06969233  0.30395233  1
  O  O185  1  0.79524567  0.99372933  0.38688933  1
  O  O186  1  0.65034467  0.73320233  0.71856233  1
  O  O187  1  0.88926900  0.73969600  0.69055100  1
  O  O188  1  0.88926900  0.14957300  0.19055100  1
  O  O189  1  0.63531600  0.90690200  0.47343800  1
  O  O190  1  0.99372933  0.19848367  0.61311067  1
  O  O191  1  0.85042700  0.73969600  0.19055100  1
  O  O192  1  0.11073100  0.26030400  0.30944900  1
  O  O193  1  0.47337067  0.71745233  0.71209633  1
  O  O194  1  0.75591833  0.47337067  0.28790367  1
  O  O195  1  0.06174733  0.75976467  0.69322867  1
  O  O196  1  0.72841400  0.63531600  0.52656200  1
  O  O197  1  0.75976467  0.69801733  0.30677133  1
  O  O198  1  0.06653567  0.31701133  0.44810433  1
  O  O199  1  0.91714233  0.65034467  0.28143767  1
  O  O200  1  0.05598533  0.93030767  0.69604767  1
  O  O201  1  0.66039600  0.12857900  0.44644400  1
  O  O202  1  0.80151633  0.79524567  0.61311067  1
  O  O203  1  0.19848367  0.20475433  0.38688933  1
  O  O204  1  0.73969600  0.85042700  0.30944900  1
  O  O205  1  0.68298867  0.74952433  0.44810433  1
  O  O206  1  0.08925167  0.94921433  0.45457033  1
  O  O207  1  0.76868033  0.58397167  0.38333767  1
  O  O208  1  0.09309800  0.72841400  0.47343800  1
  O  O209  1  0.87142100  0.53181700  0.44644400  1
  O  O210  1  0.12857900  0.46818300  0.55355600  1
  O  O211  1  0.93346433  0.68298867  0.55189567  1
  O  O212  1  0.52662933  0.28254767  0.28790367  1
  O  O213  1  0.85996267  0.91074833  0.45457033  1
  O  O214  1  0.74952433  0.06653567  0.55189567  1
  O  O215  1  0.00000000  0.00000000  0.60712100  1
  O  O216  1  0.71745233  0.24408167  0.28790367  1
  O  O217  1  0.12567767  0.06969233  0.80395233  1
  O  O218  1  0.93030767  0.87432233  0.30395233  1
  O  O219  1  0.33960400  0.87142100  0.55355600  1
  O  O220  1  0.00000000  0.00000000  0.10712100  1
  O  O221  1  0.06969233  0.94401467  0.19604767  1
  O  O222  1  0.26030400  0.11073100  0.19055100  1
  O  O223  1  0.06969233  0.12567767  0.69604767  1
  O  O224  1  0.93030767  0.05598533  0.80395233  1
  O  O225  1  0.14957300  0.26030400  0.80944900  1
  O  O226  1  0.14957300  0.88926900  0.30944900  1
  O  O227  1  0.10201367  0.85137533  0.55000433  1
  O  O228  1  0.58397167  0.81529133  0.61666233  1
  O  O229  1  0.14862467  0.25063833  0.55000433  1
  O  O230  1  0.24023533  0.30198267  0.69322867  1
  O  O231  1  0.85042700  0.11073100  0.69055100  1
  O  O232  1  0.30198267  0.06174733  0.30677133  1
  O  O233  1  0.81529133  0.23131967  0.38333767  1
  O  O234  1  0.26030400  0.14957300  0.69055100  1
  O  O235  1  0.34965533  0.26679767  0.28143767  1
  O  O236  1  0.00627067  0.80151633  0.38688933  1
  O  O237  1  0.05078567  0.14003733  0.45457033  1
  O  O238  1  0.93825267  0.69801733  0.80677133  1
  O  O239  1  0.66666667  0.33333333  0.72621233  1
  O  O240  1  0.80670400  0.42258500  0.87876300  1
  O  O241  1  0.89798633  0.74936167  0.94999567  1
  O  O242  1  0.13484967  0.67293733  0.77977733  1
  O  O243  1  0.61068133  0.20765567  0.13728567  1
  O  O244  1  0.61588100  0.19329600  0.87876300  1
  O  O245  1  0.77739767  0.18376033  0.14278233  1
  O  O246  1  0.57356867  0.60491933  0.85989533  1
  O  O247  1  0.41602833  0.23131967  0.88333767  1
  O  O248  1  0.93346433  0.25047567  0.05189567  1
  O  O249  1  0.56465300  0.48195800  0.78332900  1
  O  O250  1  0.72265200  0.45901100  0.52938100  1
  O  O251  1  0.85137533  0.10201367  0.94999567  1
  O  O252  1  0.57741500  0.38411900  0.87876300  1
  O  O253  1  0.94921433  0.08925167  0.04542967  1
  O  O254  1  0.98367800  0.58380900  0.88522900  1
  O  O255  1  0.87142100  0.33960400  0.94644400  1
  O  O256  1  0.08269500  0.51804200  0.71667100  1
  O  O257  1  0.54098900  0.27734800  0.02938100  1
  O  O258  1  0.03135067  0.42643133  0.85989533  1
  O  O259  1  0.54098900  0.26364100  0.52938100  1
  O  O260  1  0.39986900  0.41619100  0.61477100  1
  O  O261  1  0.91714233  0.26679767  0.78143767  1
  O  O262  1  0.74952433  0.68298867  0.05189567  1
  O  O263  1  0.40636267  0.22260233  0.14278233  1
  O  O264  1  0.60491933  0.57356867  0.64010467  1
  O  O265  1  0.79234433  0.38931867  0.63728567  1
  O  O266  1  0.51804200  0.08269500  0.78332900  1
  O  O267  1  0.91074833  0.85996267  0.04542967  1
  O  O268  1  0.66666667  0.33333333  0.22621233  1
  O  O269  1  0.36468400  0.27158600  0.02656200  1
  O  O270  1  0.19848367  0.99372933  0.88688933  1
  O  O271  1  0.91730500  0.43534700  0.78332900  1
  O  O272  1  0.61068133  0.40302567  0.63728567  1
  O  O273  1  0.46191233  0.32706267  0.72022267  1
  O  O274  1  0.31701133  0.06653567  0.05189567  1
  O  O275  1  0.55593567  0.07302933  0.02388433  1
  O  O276  1  0.55593567  0.48290633  0.52388433  1
  O  O277  1  0.30198267  0.24023533  0.80677133  1
  O  O278  1  0.66039600  0.53181700  0.94644400  1
  O  O279  1  0.51709367  0.07302933  0.52388433  1
  O  O280  1  0.77739767  0.59363733  0.64278233  1
  O  O281  1  0.14003733  0.05078567  0.04542967  1
  O  O282  1  0.42258500  0.80670400  0.62123700  1
  O  O283  1  0.72841400  0.09309800  0.02656200  1
  O  O284  1  0.39508067  0.96864933  0.85989533  1
  O  O285  1  0.42643133  0.03135067  0.64010467  1
  O  O286  1  0.73320233  0.65034467  0.78143767  1
  O  O287  1  0.58380900  0.98367800  0.61477100  1
  O  O288  1  0.72265200  0.26364100  0.02938100  1
  O  O289  1  0.32706267  0.46191233  0.77977733  1
  O  O290  1  0.46818300  0.12857900  0.94644400  1
  O  O291  1  0.86515033  0.53808767  0.72022267  1
  O  O292  1  0.40636267  0.18376033  0.64278233  1
  O  O293  1  0.34965533  0.08285767  0.78143767  1
  O  O294  1  0.75591833  0.28254767  0.78790367  1
  O  O295  1  0.43534700  0.91730500  0.71667100  1
  O  O296  1  0.75976467  0.06174733  0.80677133  1
  O  O297  1  0.53808767  0.86515033  0.77977733  1
  O  O298  1  0.79524567  0.80151633  0.88688933  1
  O  O299  1  0.60013100  0.01632200  0.88522900  1
  O  O300  1  0.19329600  0.61588100  0.62123700  1
  O  O301  1  0.52662933  0.24408167  0.78790367  1
  O  O302  1  0.41619100  0.39986900  0.88522900  1
  O  O303  1  0.66666667  0.33333333  0.94045433  1
  O  O304  1  0.38411900  0.57741500  0.62123700  1
  O  O305  1  0.79234433  0.40302567  0.13728567  1
  O  O306  1  0.59697433  0.20765567  0.63728567  1
  O  O307  1  0.00627067  0.20475433  0.88688933  1
  O  O308  1  0.66666667  0.33333333  0.44045433  1
  O  O309  1  0.73635900  0.27734800  0.52938100  1
  O  O310  1  0.92697067  0.44406433  0.52388433  1
  O  O311  1  0.73635900  0.45901100  0.02938100  1
  O  O312  1  0.59697433  0.38931867  0.13728567  1
  O  O313  1  0.81623967  0.59363733  0.14278233  1
  O  O314  1  0.81623967  0.22260233  0.64278233  1
  O  O315  1  0.76868033  0.18470867  0.88333767  1
  O  O316  1  0.25063833  0.14862467  0.94999567  1
  O  O317  1  0.81529133  0.58397167  0.88333767  1
  O  O318  1  0.90690200  0.63531600  0.02656200  1
  O  O319  1  0.51709367  0.44406433  0.02388433  1
  O  O320  1  0.96864933  0.39508067  0.64010467  1
  O  O321  1  0.48195800  0.56465300  0.71667100  1
  O  O322  1  0.92697067  0.48290633  0.02388433  1
  O  O323  1  0.01632200  0.60013100  0.61477100  1
  O  O324  1  0.67293733  0.13484967  0.72022267  1
  O  O325  1  0.71745233  0.47337067  0.78790367  1
  O  O326  1  0.60491933  0.03135067  0.14010467  1
  O  O327  1  0.33333333  0.66666667  0.05954567  1
  O  O328  1  0.47337067  0.75591833  0.21209633  1
  O  O329  1  0.56465300  0.08269500  0.28332900  1
  O  O330  1  0.80151633  0.00627067  0.11311067  1
  O  O331  1  0.27734800  0.54098900  0.47061900  1
  O  O332  1  0.28254767  0.52662933  0.21209633  1
  O  O333  1  0.44406433  0.51709367  0.47611567  1
  O  O334  1  0.24023533  0.93825267  0.19322867  1
  O  O335  1  0.08269500  0.56465300  0.21667100  1
  O  O336  1  0.60013100  0.58380900  0.38522900  1
  O  O337  1  0.23131967  0.81529133  0.11666233  1
  O  O338  1  0.38931867  0.79234433  0.86271433  1
  O  O339  1  0.51804200  0.43534700  0.28332900  1
  O  O340  1  0.24408167  0.71745233  0.21209633  1
  O  O341  1  0.61588100  0.42258500  0.37876300  1
  O  O342  1  0.65034467  0.91714233  0.21856233  1
  O  O343  1  0.53808767  0.67293733  0.27977733  1
  O  O344  1  0.74936167  0.85137533  0.05000433  1
  O  O345  1  0.20765567  0.61068133  0.36271433  1
  O  O346  1  0.69801733  0.75976467  0.19322867  1
  O  O347  1  0.20765567  0.59697433  0.86271433  1
  O  O348  1  0.06653567  0.74952433  0.94810433  1
  O  O349  1  0.58380900  0.60013100  0.11477100  1
  O  O350  1  0.41619100  0.01632200  0.38522900  1
  O  O351  1  0.07302933  0.55593567  0.47611567  1
  O  O352  1  0.27158600  0.90690200  0.97343800  1
  O  O353  1  0.45901100  0.72265200  0.97061900  1
  O  O354  1  0.18470867  0.41602833  0.11666233  1
  O  O355  1  0.57741500  0.19329600  0.37876300  1
  O  O356  1  0.33333333  0.66666667  0.55954567  1
  O  O357  1  0.03135067  0.60491933  0.35989533  1
  O  O358  1  0.86515033  0.32706267  0.22022267  1
  O  O359  1  0.58397167  0.76868033  0.11666233  1
  O  O360  1  0.27734800  0.73635900  0.97061900  1
  O  O361  1  0.12857900  0.66039600  0.05355600  1
  O  O362  1  0.98367800  0.39986900  0.38522900  1
  O  O363  1  0.22260233  0.40636267  0.35721767  1
  O  O364  1  0.22260233  0.81623967  0.85721767  1
  O  O365  1  0.96864933  0.57356867  0.14010467  1
  O  O366  1  0.32706267  0.86515033  0.27977733  1
  O  O367  1  0.18376033  0.40636267  0.85721767  1
  O  O368  1  0.44406433  0.92697067  0.97611567  1
  O  O369  1  0.80670400  0.38411900  0.37876300  1
  O  O370  1  0.08925167  0.14003733  0.95457033  1
  O  O371  1  0.39508067  0.42643133  0.35989533  1
  O  O372  1  0.06174733  0.30198267  0.19322867  1
  O  O373  1  0.09309800  0.36468400  0.97343800  1
  O  O374  1  0.39986900  0.98367800  0.11477100  1
  O  O375  1  0.25047567  0.31701133  0.94810433  1
  O  O376  1  0.38931867  0.59697433  0.36271433  1
  O  O377  1  0.99372933  0.79524567  0.11311067  1
  O  O378  1  0.13484967  0.46191233  0.27977733  1
  O  O379  1  0.53181700  0.87142100  0.05355600  1
  O  O380  1  0.07302933  0.51709367  0.97611567  1
  O  O381  1  0.01632200  0.41619100  0.11477100  1
  O  O382  1  0.42258500  0.61588100  0.12123700  1
  O  O383  1  0.10201367  0.25063833  0.05000433  1
  O  O384  1  0.42643133  0.39508067  0.14010467  1
  O  O385  1  0.20475433  0.19848367  0.11311067  1
  O  O386  1  0.46191233  0.13484967  0.22022267  1
  O  O387  1  0.26679767  0.34965533  0.21856233  1
  O  O388  1  0.85996267  0.94921433  0.95457033  1
  O  O389  1  0.19329600  0.57741500  0.12123700  1
  O  O390  1  0.08285767  0.73320233  0.21856233  1
  O  O391  1  0.33333333  0.66666667  0.27378767  1
  O  O392  1  0.05078567  0.91074833  0.95457033  1
  O  O393  1  0.45901100  0.73635900  0.47061900  1
  O  O394  1  0.26364100  0.54098900  0.97061900  1
  O  O395  1  0.67293733  0.53808767  0.22022267  1
  O  O396  1  0.33333333  0.66666667  0.77378767  1
  O  O397  1  0.40302567  0.61068133  0.86271433  1
  O  O398  1  0.59363733  0.77739767  0.85721767  1
  O  O399  1  0.40302567  0.79234433  0.36271433  1
  O  O400  1  0.26364100  0.72265200  0.47061900  1
  O  O401  1  0.48290633  0.92697067  0.47611567  1
  O  O402  1  0.48290633  0.55593567  0.97611567  1
  O  O403  1  0.43534700  0.51804200  0.21667100  1
  O  O404  1  0.91730500  0.48195800  0.28332900  1
  O  O405  1  0.48195800  0.91730500  0.21667100  1
  O  O406  1  0.57356867  0.96864933  0.35989533  1
  O  O407  1  0.18376033  0.77739767  0.35721767  1
  O  O408  1  0.63531600  0.72841400  0.97343800  1
  O  O409  1  0.14862467  0.89798633  0.05000433  1
  O  O410  1  0.59363733  0.81623967  0.35721767  1
  O  O411  1  0.68298867  0.93346433  0.94810433  1
  O  O412  1  0.33960400  0.46818300  0.05355600  1
  O  O413  1  0.38411900  0.80670400  0.12123700  1
