# generated using pymatgen
data_AgPb4ClO4
_symmetry_space_group_name_H-M   'P 1'
_cell_length_a   8.45607800
_cell_length_b   8.45607800
_cell_length_c   6.55146700
_cell_angle_alpha   90.00000000
_cell_angle_beta   90.00000000
_cell_angle_gamma   90.00000000
_symmetry_Int_Tables_number   1
_chemical_formula_structural   AgPb4ClO4
_chemical_formula_sum   'Ag2 Pb8 Cl2 O8'
_cell_volume   468.46431939
_cell_formula_units_Z   2
loop_
 _symmetry_equiv_pos_site_id
 _symmetry_equiv_pos_as_xyz
  1  'x, y, z'
loop_
 _atom_site_type_symbol
 _atom_site_label
 _atom_site_symmetry_multiplicity
 _atom_site_fract_x
 _atom_site_fract_y
 _atom_site_fract_z
 _atom_site_occupancy
  Ag  Ag0  1  0.00000000  0.50000000  0.90411200  1
  Ag  Ag1  1  0.50000000  0.00000000  0.09588800  1
  Pb  Pb2  1  0.14390100  0.19560000  0.22386600  1
  Pb  Pb3  1  0.69560000  0.35609900  0.22386600  1
  Pb  Pb4  1  0.30440000  0.64390100  0.22386600  1
  Pb  Pb5  1  0.35609900  0.30440000  0.77613400  1
  Pb  Pb6  1  0.80440000  0.14390100  0.77613400  1
  Pb  Pb7  1  0.19560000  0.85609900  0.77613400  1
  Pb  Pb8  1  0.85609900  0.80440000  0.22386600  1
  Pb  Pb9  1  0.64390100  0.69560000  0.77613400  1
  Cl  Cl10  1  0.50000000  0.00000000  0.48691600  1
  Cl  Cl11  1  0.00000000  0.50000000  0.51308400  1
  O  O12  1  0.08967200  0.75283900  0.07131900  1
  O  O13  1  0.25283900  0.41032800  0.07131900  1
  O  O14  1  0.91032800  0.24716100  0.07131900  1
  O  O15  1  0.74716100  0.58967200  0.07131900  1
  O  O16  1  0.75283900  0.91032800  0.92868100  1
  O  O17  1  0.58967200  0.25283900  0.92868100  1
  O  O18  1  0.24716100  0.08967200  0.92868100  1
  O  O19  1  0.41032800  0.74716100  0.92868100  1
