# generated using pymatgen
data_K3Cr2(PS4)3
_symmetry_space_group_name_H-M   'P 1'
_cell_length_a   9.96996800
_cell_length_b   12.62221700
_cell_length_c   19.54456931
_cell_angle_alpha   90.00000000
_cell_angle_beta   113.68552599
_cell_angle_gamma   90.00000000
_symmetry_Int_Tables_number   1
_chemical_formula_structural   K3Cr2(PS4)3
_chemical_formula_sum   'K12 Cr8 P12 S48'
_cell_volume   2252.36685253
_cell_formula_units_Z   4
loop_
 _symmetry_equiv_pos_site_id
 _symmetry_equiv_pos_as_xyz
  1  'x, y, z'
loop_
 _atom_site_type_symbol
 _atom_site_label
 _atom_site_symmetry_multiplicity
 _atom_site_fract_x
 _atom_site_fract_y
 _atom_site_fract_z
 _atom_site_occupancy
  K  K0  1  0.19631400  0.86840300  0.20377200  1
  K  K1  1  0.69343700  0.42096400  0.62087600  1
  K  K2  1  0.27681000  0.56315900  0.04600000  1
  K  K3  1  0.69343700  0.07903600  0.12087600  1
  K  K4  1  0.30656300  0.57903600  0.37912400  1
  K  K5  1  0.72319000  0.43684100  0.95400000  1
  K  K6  1  0.19631400  0.63159700  0.70377200  1
  K  K7  1  0.80368600  0.36840300  0.29622800  1
  K  K8  1  0.30656300  0.92096400  0.87912400  1
  K  K9  1  0.72319000  0.06315900  0.45400000  1
  K  K10  1  0.80368600  0.13159700  0.79622800  1
  K  K11  1  0.27681000  0.93684100  0.54600000  1
  Cr  Cr12  1  0.23599900  0.22884300  0.28993600  1
  Cr  Cr13  1  0.76400100  0.77115700  0.71006400  1
  Cr  Cr14  1  0.76400100  0.72884300  0.21006400  1
  Cr  Cr15  1  0.22335800  0.21734600  0.10228500  1
  Cr  Cr16  1  0.23599900  0.27115700  0.78993600  1
  Cr  Cr17  1  0.22335800  0.28265400  0.60228500  1
  Cr  Cr18  1  0.77664200  0.71734600  0.39771500  1
  Cr  Cr19  1  0.77664200  0.78265400  0.89771500  1
  P  P20  1  0.47856000  0.37257100  0.74633500  1
  P  P21  1  0.47856000  0.12742900  0.24633500  1
  P  P22  1  0.97491700  0.18293200  0.64622400  1
  P  P23  1  0.02508300  0.81706800  0.35377600  1
  P  P24  1  0.52144000  0.87257100  0.75366500  1
  P  P25  1  0.75725600  0.73998600  0.55185400  1
  P  P26  1  0.24274400  0.26001400  0.44814600  1
  P  P27  1  0.75725600  0.76001400  0.05185400  1
  P  P28  1  0.52144000  0.62742900  0.25366500  1
  P  P29  1  0.97491700  0.31706800  0.14622400  1
  P  P30  1  0.24274400  0.23998600  0.94814600  1
  P  P31  1  0.02508300  0.68293200  0.85377600  1
  S  S32  1  0.61205400  0.92890600  0.68279600  1
  S  S33  1  0.94305700  0.63379600  0.92963600  1
  S  S34  1  0.88357400  0.65851800  0.13422800  1
  S  S35  1  0.38794600  0.07109400  0.31720400  1
  S  S36  1  0.38794600  0.42890600  0.81720400  1
  S  S37  1  0.62433400  0.93914700  0.85865000  1
  S  S38  1  0.37832400  0.32480500  0.40286900  1
  S  S39  1  0.38949100  0.21727900  0.72536700  1
  S  S40  1  0.24185600  0.82548300  0.38959400  1
  S  S41  1  0.88357400  0.84148200  0.63422800  1
  S  S42  1  0.62433400  0.56085300  0.35865000  1
  S  S43  1  0.24185600  0.67451700  0.88959400  1
  S  S44  1  0.87977500  0.86633500  0.02106700  1
  S  S45  1  0.12022500  0.13366500  0.97893300  1
  S  S46  1  0.11642600  0.34148200  0.86577200  1
  S  S47  1  0.61050900  0.71727900  0.77463300  1
  S  S48  1  0.91527200  0.61632300  0.75007500  1
  S  S49  1  0.62167600  0.82480500  0.09713100  1
  S  S50  1  0.75814400  0.32548300  0.11040600  1
  S  S51  1  0.62167600  0.67519500  0.59713100  1
  S  S52  1  0.93557800  0.66124000  0.33304900  1
  S  S53  1  0.93557800  0.83876000  0.83304900  1
  S  S54  1  0.75814400  0.17451700  0.61040600  1
  S  S55  1  0.06442200  0.16124000  0.16695100  1
  S  S56  1  0.05694300  0.36620400  0.07036400  1
  S  S57  1  0.37566600  0.06085300  0.14135000  1
  S  S58  1  0.08472800  0.38367700  0.24992500  1
  S  S59  1  0.63286500  0.80973000  0.45129700  1
  S  S60  1  0.91527200  0.88367700  0.25007500  1
  S  S61  1  0.30371100  0.87868800  0.71261200  1
  S  S62  1  0.37566600  0.43914700  0.64135000  1
  S  S63  1  0.87977500  0.63366500  0.52106700  1
  S  S64  1  0.37832400  0.17519500  0.90286900  1
  S  S65  1  0.36713500  0.19027000  0.54870300  1
  S  S66  1  0.69628900  0.12131200  0.28738800  1
  S  S67  1  0.30371100  0.62131200  0.21261200  1
  S  S68  1  0.61205400  0.57109400  0.18279600  1
  S  S69  1  0.63286500  0.69027000  0.95129700  1
  S  S70  1  0.05694300  0.13379600  0.57036400  1
  S  S71  1  0.06442200  0.33876000  0.66695100  1
  S  S72  1  0.69628900  0.37868800  0.78738800  1
  S  S73  1  0.36713500  0.30973000  0.04870300  1
  S  S74  1  0.38949100  0.28272100  0.22536700  1
  S  S75  1  0.11642600  0.15851800  0.36577200  1
  S  S76  1  0.12022500  0.36633500  0.47893300  1
  S  S77  1  0.61050900  0.78272100  0.27463300  1
  S  S78  1  0.08472800  0.11632300  0.74992500  1
  S  S79  1  0.94305700  0.86620400  0.42963600  1
