# generated using pymatgen
data_TbCl2F
_symmetry_space_group_name_H-M   'P 1'
_cell_length_a   8.95321800
_cell_length_b   5.85807000
_cell_length_c   6.86129984
_cell_angle_alpha   90.00000000
_cell_angle_beta   109.64507358
_cell_angle_gamma   90.00000000
_symmetry_Int_Tables_number   1
_chemical_formula_structural   TbCl2F
_chemical_formula_sum   'Tb4 Cl8 F4'
_cell_volume   338.91882835
_cell_formula_units_Z   4
loop_
 _symmetry_equiv_pos_site_id
 _symmetry_equiv_pos_as_xyz
  1  'x, y, z'
loop_
 _atom_site_type_symbol
 _atom_site_label
 _atom_site_symmetry_multiplicity
 _atom_site_fract_x
 _atom_site_fract_y
 _atom_site_fract_z
 _atom_site_occupancy
  Tb  Tb0  1  0.50000000  0.73296600  0.75000000  1
  Tb  Tb1  1  0.50000000  0.26703400  0.25000000  1
  Tb  Tb2  1  0.00000000  0.23296600  0.75000000  1
  Tb  Tb3  1  0.00000000  0.76703400  0.25000000  1
  Cl  Cl4  1  0.68879850  0.02776150  0.60601100  1
  Cl  Cl5  1  0.31120150  0.97223850  0.39398900  1
  Cl  Cl6  1  0.68879850  0.97223850  0.10601100  1
  Cl  Cl7  1  0.31120150  0.02776150  0.89398900  1
  Cl  Cl8  1  0.18879850  0.52776150  0.60601100  1
  Cl  Cl9  1  0.81120150  0.47223850  0.39398900  1
  Cl  Cl10  1  0.18879850  0.47223850  0.10601100  1
  Cl  Cl11  1  0.81120150  0.52776150  0.89398900  1
  F  F12  1  0.00000000  0.00000000  0.00000000  1
  F  F13  1  0.00000000  0.00000000  0.50000000  1
  F  F14  1  0.50000000  0.50000000  0.00000000  1
  F  F15  1  0.50000000  0.50000000  0.50000000  1
