# generated using pymatgen
data_BaTi2O5
_symmetry_space_group_name_H-M   'P 1'
_cell_length_a   17.04343800
_cell_length_b   3.96927800
_cell_length_c   9.59550929
_cell_angle_alpha   90.00000000
_cell_angle_beta   102.85383747
_cell_angle_gamma   90.00000000
_symmetry_Int_Tables_number   1
_chemical_formula_structural   BaTi2O5
_chemical_formula_sum   'Ba6 Ti12 O30'
_cell_volume   632.87067788
_cell_formula_units_Z   6
loop_
 _symmetry_equiv_pos_site_id
 _symmetry_equiv_pos_as_xyz
  1  'x, y, z'
loop_
 _atom_site_type_symbol
 _atom_site_label
 _atom_site_symmetry_multiplicity
 _atom_site_fract_x
 _atom_site_fract_y
 _atom_site_fract_z
 _atom_site_occupancy
  Ba  Ba0  1  0.86806300  0.50125800  0.01595000  1
  Ba  Ba1  1  0.63193700  0.00125800  0.98405000  1
  Ba  Ba2  1  0.00000000  0.50333200  0.50000000  1
  Ba  Ba3  1  0.36806300  0.00125800  0.01595000  1
  Ba  Ba4  1  0.13193700  0.50125800  0.98405000  1
  Ba  Ba5  1  0.50000000  0.00333200  0.50000000  1
  Ti  Ti6  1  0.53882950  0.47297350  0.20941700  1
  Ti  Ti7  1  0.66653350  0.50935950  0.69561100  1
  Ti  Ti8  1  0.83346650  0.00935950  0.30438900  1
  Ti  Ti9  1  0.70643800  0.51424400  0.37259900  1
  Ti  Ti10  1  0.96117050  0.97297350  0.79058300  1
  Ti  Ti11  1  0.79356200  0.01424400  0.62740100  1
  Ti  Ti12  1  0.03882950  0.97297350  0.20941700  1
  Ti  Ti13  1  0.16653350  0.00935950  0.69561100  1
  Ti  Ti14  1  0.33346650  0.50935950  0.30438900  1
  Ti  Ti15  1  0.20643800  0.01424400  0.37259900  1
  Ti  Ti16  1  0.46117050  0.47297350  0.79058300  1
  Ti  Ti17  1  0.29356200  0.51424400  0.62740100  1
  O  O18  1  0.71049000  0.50722900  0.87734600  1
  O  O19  1  0.73543950  0.01162550  0.39895600  1
  O  O20  1  0.82503550  0.51097250  0.33729800  1
  O  O21  1  0.65272050  0.51010150  0.18598300  1
  O  O22  1  0.00000000  0.01425500  0.00000000  1
  O  O23  1  0.67496450  0.01097250  0.66270200  1
  O  O24  1  0.84727950  0.01010150  0.81401700  1
  O  O25  1  0.78951000  0.00722900  0.12265400  1
  O  O26  1  0.53493400  0.02124300  0.20901200  1
  O  O27  1  0.94242500  0.01595600  0.28934000  1
  O  O28  1  0.96506600  0.52124300  0.79098800  1
  O  O29  1  0.60838200  0.50898300  0.42516400  1
  O  O30  1  0.76456050  0.51162550  0.60104400  1
  O  O31  1  0.89161800  0.00898300  0.57483600  1
  O  O32  1  0.55757500  0.51595600  0.71066000  1
  O  O33  1  0.21049000  0.00722900  0.87734600  1
  O  O34  1  0.23543950  0.51162550  0.39895600  1
  O  O35  1  0.32503550  0.01097250  0.33729800  1
  O  O36  1  0.15272050  0.01010150  0.18598300  1
  O  O37  1  0.50000000  0.51425500  0.00000000  1
  O  O38  1  0.17496450  0.51097250  0.66270200  1
  O  O39  1  0.34727950  0.51010150  0.81401700  1
  O  O40  1  0.28951000  0.50722900  0.12265400  1
  O  O41  1  0.03493400  0.52124300  0.20901200  1
  O  O42  1  0.44242500  0.51595600  0.28934000  1
  O  O43  1  0.46506600  0.02124300  0.79098800  1
  O  O44  1  0.10838200  0.00898300  0.42516400  1
  O  O45  1  0.26456050  0.01162550  0.60104400  1
  O  O46  1  0.39161800  0.50898300  0.57483600  1
  O  O47  1  0.05757500  0.01595600  0.71066000  1
