# generated using pymatgen
data_SnS2(O3F)2
_symmetry_space_group_name_H-M   'P 1'
_cell_length_a   5.40238100
_cell_length_b   9.86739900
_cell_length_c   14.15846718
_cell_angle_alpha   90.00000000
_cell_angle_beta   110.27438964
_cell_angle_gamma   90.00000000
_symmetry_Int_Tables_number   1
_chemical_formula_structural   SnS2(O3F)2
_chemical_formula_sum   'Sn4 S8 O24 F8'
_cell_volume   707.99030170
_cell_formula_units_Z   4
loop_
 _symmetry_equiv_pos_site_id
 _symmetry_equiv_pos_as_xyz
  1  'x, y, z'
loop_
 _atom_site_type_symbol
 _atom_site_label
 _atom_site_symmetry_multiplicity
 _atom_site_fract_x
 _atom_site_fract_y
 _atom_site_fract_z
 _atom_site_occupancy
  Sn  Sn0  1  0.97164000  0.80628100  0.82117200  1
  Sn  Sn1  1  0.02836000  0.19371900  0.17882800  1
  Sn  Sn2  1  0.97164000  0.69371900  0.32117200  1
  Sn  Sn3  1  0.02836000  0.30628100  0.67882800  1
  S  S4  1  0.17105500  0.18346200  0.93850200  1
  S  S5  1  0.53385600  0.97698000  0.30896600  1
  S  S6  1  0.53385600  0.52302000  0.80896600  1
  S  S7  1  0.46614400  0.47698000  0.19103400  1
  S  S8  1  0.82894500  0.81653800  0.06149800  1
  S  S9  1  0.82894500  0.68346200  0.56149800  1
  S  S10  1  0.17105500  0.31653800  0.43850200  1
  S  S11  1  0.46614400  0.02302000  0.69103400  1
  O  O12  1  0.84001100  0.76591000  0.96613300  1
  O  O13  1  0.04204200  0.05538500  0.90465100  1
  O  O14  1  0.87754000  0.78940100  0.63765700  1
  O  O15  1  0.12246000  0.28940100  0.86234300  1
  O  O16  1  0.27127300  0.39790000  0.21822600  1
  O  O17  1  0.15998900  0.23409000  0.03386700  1
  O  O18  1  0.54589400  0.90253200  0.75617200  1
  O  O19  1  0.95795800  0.55538500  0.59534900  1
  O  O20  1  0.54589400  0.59746800  0.25617200  1
  O  O21  1  0.45410600  0.09746800  0.24382800  1
  O  O22  1  0.15998900  0.26591000  0.53386700  1
  O  O23  1  0.95795800  0.94461500  0.09534900  1
  O  O24  1  0.72872700  0.89790000  0.28177400  1
  O  O25  1  0.67689000  0.09666000  0.67434300  1
  O  O26  1  0.12246000  0.21059900  0.36234300  1
  O  O27  1  0.32311000  0.90334000  0.32565700  1
  O  O28  1  0.67689000  0.40334000  0.17434300  1
  O  O29  1  0.84001100  0.73409000  0.46613300  1
  O  O30  1  0.45410600  0.40253200  0.74382800  1
  O  O31  1  0.32311000  0.59666000  0.82565700  1
  O  O32  1  0.27127300  0.10210000  0.71822600  1
  O  O33  1  0.72872700  0.60210000  0.78177400  1
  O  O34  1  0.87754000  0.71059900  0.13765700  1
  O  O35  1  0.04204200  0.44461500  0.40465100  1
  F  F36  1  0.51853200  0.65111400  0.53393600  1
  F  F37  1  0.29986900  0.53994700  0.08447700  1
  F  F38  1  0.48146800  0.15111400  0.96606400  1
  F  F39  1  0.29986900  0.96005300  0.58447700  1
  F  F40  1  0.48146800  0.34888600  0.46606400  1
  F  F41  1  0.51853200  0.84888600  0.03393600  1
  F  F42  1  0.70013100  0.03994700  0.41552300  1
  F  F43  1  0.70013100  0.46005300  0.91552300  1
