# generated using pymatgen
data_Zn3BPO7
_symmetry_space_group_name_H-M   'P 1'
_cell_length_a   9.85871400
_cell_length_b   12.96373800
_cell_length_c   4.96153750
_cell_angle_alpha   90.00000000
_cell_angle_beta   119.87809442
_cell_angle_gamma   90.00000000
_symmetry_Int_Tables_number   1
_chemical_formula_structural   Zn3BPO7
_chemical_formula_sum   'Zn12 B4 P4 O28'
_cell_volume   549.83147971
_cell_formula_units_Z   4
loop_
 _symmetry_equiv_pos_site_id
 _symmetry_equiv_pos_as_xyz
  1  'x, y, z'
loop_
 _atom_site_type_symbol
 _atom_site_label
 _atom_site_symmetry_multiplicity
 _atom_site_fract_x
 _atom_site_fract_y
 _atom_site_fract_z
 _atom_site_occupancy
  Zn  Zn0  1  0.60101600  0.24876000  0.23003300  1
  Zn  Zn1  1  0.60101600  0.75124000  0.23003300  1
  Zn  Zn2  1  0.43211250  0.63534750  0.53616700  1
  Zn  Zn3  1  0.40917050  0.10921750  0.53620600  1
  Zn  Zn4  1  0.40917050  0.89078250  0.53620600  1
  Zn  Zn5  1  0.43211250  0.36465250  0.53616700  1
  Zn  Zn6  1  0.10101600  0.74876000  0.23003300  1
  Zn  Zn7  1  0.10101600  0.25124000  0.23003300  1
  Zn  Zn8  1  0.93211250  0.13534750  0.53616700  1
  Zn  Zn9  1  0.90917050  0.60921750  0.53620600  1
  Zn  Zn10  1  0.90917050  0.39078250  0.53620600  1
  Zn  Zn11  1  0.93211250  0.86465250  0.53616700  1
  B  B12  1  0.26960850  0.78631450  0.89917100  1
  B  B13  1  0.26960850  0.21368550  0.89917100  1
  B  B14  1  0.76960850  0.28631450  0.89917100  1
  B  B15  1  0.76960850  0.71368550  0.89917100  1
  P  P16  1  0.06082000  0.00000000  0.14121800  1
  P  P17  1  0.60622400  0.00000000  0.23318600  1
  P  P18  1  0.56082000  0.50000000  0.14121800  1
  P  P19  1  0.10622400  0.50000000  0.23318600  1
  O  O20  1  0.61881150  0.28150050  0.85314800  1
  O  O21  1  0.70288300  0.90020500  0.27192300  1
  O  O22  1  0.39731650  0.79278950  0.19891600  1
  O  O23  1  0.50987900  0.40106900  0.23968500  1
  O  O24  1  0.39731650  0.20721050  0.19891600  1
  O  O25  1  0.29496900  0.21960900  0.64702100  1
  O  O26  1  0.70288300  0.09979500  0.27192300  1
  O  O27  1  0.98109400  0.00000000  0.77941100  1
  O  O28  1  0.24060600  0.00000000  0.28040800  1
  O  O29  1  0.46156800  0.00000000  0.89943800  1
  O  O30  1  0.61881150  0.71849950  0.85314800  1
  O  O31  1  0.50987900  0.59893100  0.23968500  1
  O  O32  1  0.55529300  0.00000000  0.48379600  1
  O  O33  1  0.29496900  0.78039100  0.64702100  1
  O  O34  1  0.11881150  0.78150050  0.85314800  1
  O  O35  1  0.20288300  0.40020500  0.27192300  1
  O  O36  1  0.89731650  0.29278950  0.19891600  1
  O  O37  1  0.00987900  0.90106900  0.23968500  1
  O  O38  1  0.89731650  0.70721050  0.19891600  1
  O  O39  1  0.79496900  0.71960900  0.64702100  1
  O  O40  1  0.20288300  0.59979500  0.27192300  1
  O  O41  1  0.48109400  0.50000000  0.77941100  1
  O  O42  1  0.74060600  0.50000000  0.28040800  1
  O  O43  1  0.96156800  0.50000000  0.89943800  1
  O  O44  1  0.11881150  0.21849950  0.85314800  1
  O  O45  1  0.00987900  0.09893100  0.23968500  1
  O  O46  1  0.05529300  0.50000000  0.48379600  1
  O  O47  1  0.79496900  0.28039100  0.64702100  1
