# generated using pymatgen
data_Ba3SrIr2O9
_symmetry_space_group_name_H-M   'P 1'
_cell_length_a   6.10909600
_cell_length_b   10.45972000
_cell_length_c   15.06945785
_cell_angle_alpha   90.00000000
_cell_angle_beta   93.11173766
_cell_angle_gamma   90.00000000
_symmetry_Int_Tables_number   1
_chemical_formula_structural   Ba3SrIr2O9
_chemical_formula_sum   'Ba12 Sr4 Ir8 O36'
_cell_volume   961.51004954
_cell_formula_units_Z   4
loop_
 _symmetry_equiv_pos_site_id
 _symmetry_equiv_pos_as_xyz
  1  'x, y, z'
loop_
 _atom_site_type_symbol
 _atom_site_label
 _atom_site_symmetry_multiplicity
 _atom_site_fract_x
 _atom_site_fract_y
 _atom_site_fract_z
 _atom_site_occupancy
  Ba  Ba0  1  0.50000000  0.51150200  0.25000000  1
  Ba  Ba1  1  0.50000000  0.48849800  0.75000000  1
  Ba  Ba2  1  0.49288200  0.16611000  0.40856100  1
  Ba  Ba3  1  0.50711800  0.83389000  0.59143900  1
  Ba  Ba4  1  0.49288200  0.83389000  0.90856100  1
  Ba  Ba5  1  0.50711800  0.16611000  0.09143900  1
  Ba  Ba6  1  0.00000000  0.01150200  0.25000000  1
  Ba  Ba7  1  0.00000000  0.98849800  0.75000000  1
  Ba  Ba8  1  0.99288200  0.66611000  0.40856100  1
  Ba  Ba9  1  0.00711800  0.33389000  0.59143900  1
  Ba  Ba10  1  0.99288200  0.33389000  0.90856100  1
  Ba  Ba11  1  0.00711800  0.66611000  0.09143900  1
  Sr  Sr12  1  0.00000000  0.00000000  0.50000000  1
  Sr  Sr13  1  0.00000000  0.00000000  0.00000000  1
  Sr  Sr14  1  0.50000000  0.50000000  0.50000000  1
  Sr  Sr15  1  0.50000000  0.50000000  0.00000000  1
  Ir  Ir16  1  0.52525500  0.83546300  0.16596200  1
  Ir  Ir17  1  0.47474500  0.16453700  0.83403800  1
  Ir  Ir18  1  0.52525500  0.16453700  0.66596200  1
  Ir  Ir19  1  0.47474500  0.83546300  0.33403800  1
  Ir  Ir20  1  0.02525500  0.33546300  0.16596200  1
  Ir  Ir21  1  0.97474500  0.66453700  0.83403800  1
  Ir  Ir22  1  0.02525500  0.66453700  0.66596200  1
  Ir  Ir23  1  0.97474500  0.33546300  0.33403800  1
  O  O24  1  0.77497950  0.09228950  0.60808800  1
  O  O25  1  0.50000000  0.99059800  0.25000000  1
  O  O26  1  0.45011600  0.32022100  0.90407100  1
  O  O27  1  0.27243400  0.76131100  0.23334700  1
  O  O28  1  0.54988400  0.32022100  0.59592900  1
  O  O29  1  0.72756600  0.76131100  0.26665300  1
  O  O30  1  0.22502050  0.90771050  0.39191200  1
  O  O31  1  0.54988400  0.67977900  0.09592900  1
  O  O32  1  0.72756600  0.23868900  0.76665300  1
  O  O33  1  0.50000000  0.00940200  0.75000000  1
  O  O34  1  0.77497950  0.90771050  0.10808800  1
  O  O35  1  0.67330900  0.90777300  0.42605900  1
  O  O36  1  0.67330900  0.09222700  0.92605900  1
  O  O37  1  0.32669100  0.09222700  0.57394100  1
  O  O38  1  0.27243400  0.23868900  0.73334700  1
  O  O39  1  0.32669100  0.90777300  0.07394100  1
  O  O40  1  0.22502050  0.09228950  0.89191200  1
  O  O41  1  0.45011600  0.67977900  0.40407100  1
  O  O42  1  0.27497950  0.59228950  0.60808800  1
  O  O43  1  0.00000000  0.49059800  0.25000000  1
  O  O44  1  0.95011600  0.82022100  0.90407100  1
  O  O45  1  0.77243400  0.26131100  0.23334700  1
  O  O46  1  0.04988400  0.82022100  0.59592900  1
  O  O47  1  0.22756600  0.26131100  0.26665300  1
  O  O48  1  0.72502050  0.40771050  0.39191200  1
  O  O49  1  0.04988400  0.17977900  0.09592900  1
  O  O50  1  0.22756600  0.73868900  0.76665300  1
  O  O51  1  0.00000000  0.50940200  0.75000000  1
  O  O52  1  0.27497950  0.40771050  0.10808800  1
  O  O53  1  0.17330900  0.40777300  0.42605900  1
  O  O54  1  0.17330900  0.59222700  0.92605900  1
  O  O55  1  0.82669100  0.59222700  0.57394100  1
  O  O56  1  0.77243400  0.73868900  0.73334700  1
  O  O57  1  0.82669100  0.40777300  0.07394100  1
  O  O58  1  0.72502050  0.59228950  0.89191200  1
  O  O59  1  0.95011600  0.17977900  0.40407100  1
