# generated using pymatgen
data_Na2Pd(NO2)4
_symmetry_space_group_name_H-M   'P 1'
_cell_length_a   4.69923200
_cell_length_b   11.39365100
_cell_length_c   15.66385300
_cell_angle_alpha   90.00000000
_cell_angle_beta   90.00000000
_cell_angle_gamma   90.00000000
_symmetry_Int_Tables_number   1
_chemical_formula_structural   Na2Pd(NO2)4
_chemical_formula_sum   'Na8 Pd4 N16 O32'
_cell_volume   838.66476588
_cell_formula_units_Z   4
loop_
 _symmetry_equiv_pos_site_id
 _symmetry_equiv_pos_as_xyz
  1  'x, y, z'
loop_
 _atom_site_type_symbol
 _atom_site_label
 _atom_site_symmetry_multiplicity
 _atom_site_fract_x
 _atom_site_fract_y
 _atom_site_fract_z
 _atom_site_occupancy
  Na  Na0  1  0.76430500  0.74826200  0.83408600  1
  Na  Na1  1  0.73569500  0.74826200  0.33408600  1
  Na  Na2  1  0.23569500  0.24826200  0.16591400  1
  Na  Na3  1  0.28270500  0.39942400  0.91440600  1
  Na  Na4  1  0.78270500  0.89942400  0.58559400  1
  Na  Na5  1  0.71729500  0.89942400  0.08559400  1
  Na  Na6  1  0.26430500  0.24826200  0.66591400  1
  Na  Na7  1  0.21729500  0.39942400  0.41440600  1
  Pd  Pd8  1  0.00074600  0.57315200  0.12417700  1
  Pd  Pd9  1  0.49925400  0.57315200  0.62417700  1
  Pd  Pd10  1  0.99925400  0.07315200  0.87582300  1
  Pd  Pd11  1  0.50074600  0.07315200  0.37582300  1
  N  N12  1  0.08966400  0.51524000  0.24544400  1
  N  N13  1  0.41879100  0.13232400  0.49730700  1
  N  N14  1  0.08120900  0.13232400  0.99730700  1
  N  N15  1  0.77750700  0.43403600  0.60307900  1
  N  N16  1  0.58120900  0.63232400  0.50269300  1
  N  N17  1  0.58966400  0.01524000  0.25455600  1
  N  N18  1  0.22732900  0.71368100  0.64628800  1
  N  N19  1  0.91879100  0.63232400  0.00269300  1
  N  N20  1  0.27750700  0.93403600  0.89692100  1
  N  N21  1  0.72732900  0.21368100  0.85371200  1
  N  N22  1  0.27267100  0.71368100  0.14628800  1
  N  N23  1  0.22249300  0.93403600  0.39692100  1
  N  N24  1  0.77267100  0.21368100  0.35371200  1
  N  N25  1  0.72249300  0.43403600  0.10307900  1
  N  N26  1  0.41033600  0.51524000  0.74544400  1
  N  N27  1  0.91033600  0.01524000  0.75455600  1
  O  O28  1  0.99541700  0.19604700  0.31197000  1
  O  O29  1  0.99586700  0.07039300  0.69052000  1
  O  O30  1  0.22120500  0.22487800  0.00788600  1
  O  O31  1  0.00935400  0.95179200  0.44284600  1
  O  O32  1  0.25416300  0.83661100  0.36059500  1
  O  O33  1  0.50084400  0.07612200  0.56117200  1
  O  O34  1  0.75416300  0.33661100  0.13940500  1
  O  O35  1  0.00413300  0.57039300  0.30948000  1
  O  O36  1  0.72390200  0.31326800  0.38477200  1
  O  O37  1  0.74034800  0.92567100  0.24424300  1
  O  O38  1  0.49064600  0.95179200  0.94284600  1
  O  O39  1  0.74583700  0.33661100  0.63940500  1
  O  O40  1  0.50935400  0.45179200  0.05715400  1
  O  O41  1  0.99064600  0.45179200  0.55715400  1
  O  O42  1  0.27609800  0.81326800  0.61522800  1
  O  O43  1  0.77609800  0.31326800  0.88477200  1
  O  O44  1  0.50413300  0.07039300  0.19052000  1
  O  O45  1  0.25965200  0.42567100  0.75575700  1
  O  O46  1  0.77879500  0.72487800  0.99211400  1
  O  O47  1  0.72120500  0.72487800  0.49211400  1
  O  O48  1  0.24034800  0.42567100  0.25575700  1
  O  O49  1  0.24583700  0.83661100  0.86059500  1
  O  O50  1  0.27879500  0.22487800  0.50788600  1
  O  O51  1  0.49586700  0.57039300  0.80948000  1
  O  O52  1  0.22390200  0.81326800  0.11522800  1
  O  O53  1  0.00458300  0.69604700  0.68803000  1
  O  O54  1  0.75965200  0.92567100  0.74424300  1
  O  O55  1  0.49541700  0.69604700  0.18803000  1
  O  O56  1  0.49915600  0.57612200  0.43882800  1
  O  O57  1  0.99915600  0.07612200  0.06117200  1
  O  O58  1  0.50458300  0.19604700  0.81197000  1
  O  O59  1  0.00084400  0.57612200  0.93882800  1
