# generated using pymatgen
data_NaNb4Tl3P2O17
_symmetry_space_group_name_H-M   'P 1'
_cell_length_a   10.09422600
_cell_length_b   21.67351400
_cell_length_c   7.49101900
_cell_angle_alpha   90.00000000
_cell_angle_beta   90.00000000
_cell_angle_gamma   90.00000000
_symmetry_Int_Tables_number   1
_chemical_formula_structural   NaNb4Tl3P2O17
_chemical_formula_sum   'Na4 Nb16 Tl12 P8 O68'
_cell_volume   1638.86527461
_cell_formula_units_Z   4
loop_
 _symmetry_equiv_pos_site_id
 _symmetry_equiv_pos_as_xyz
  1  'x, y, z'
loop_
 _atom_site_type_symbol
 _atom_site_label
 _atom_site_symmetry_multiplicity
 _atom_site_fract_x
 _atom_site_fract_y
 _atom_site_fract_z
 _atom_site_occupancy
  Na  Na0  1  0.36790100  0.00000000  0.00000000  1
  Na  Na1  1  0.36790100  0.00000000  0.50000000  1
  Na  Na2  1  0.86790100  0.50000000  0.00000000  1
  Na  Na3  1  0.86790100  0.50000000  0.50000000  1
  Nb  Nb4  1  0.80786800  0.15365700  0.49935100  1
  Nb  Nb5  1  0.59022100  0.26324100  0.75000000  1
  Nb  Nb6  1  0.80786800  0.15365700  0.00064900  1
  Nb  Nb7  1  0.99899100  0.00000000  0.50000000  1
  Nb  Nb8  1  0.30786800  0.34634300  0.99935100  1
  Nb  Nb9  1  0.99899100  0.00000000  0.00000000  1
  Nb  Nb10  1  0.30786800  0.34634300  0.50064900  1
  Nb  Nb11  1  0.09022100  0.23675900  0.25000000  1
  Nb  Nb12  1  0.30786800  0.65365700  0.49935100  1
  Nb  Nb13  1  0.09022100  0.76324100  0.75000000  1
  Nb  Nb14  1  0.30786800  0.65365700  0.00064900  1
  Nb  Nb15  1  0.49899100  0.50000000  0.50000000  1
  Nb  Nb16  1  0.80786800  0.84634300  0.99935100  1
  Nb  Nb17  1  0.49899100  0.50000000  0.00000000  1
  Nb  Nb18  1  0.80786800  0.84634300  0.50064900  1
  Nb  Nb19  1  0.59022100  0.73675900  0.25000000  1
  Tl  Tl20  1  0.67323350  0.36103350  0.25000000  1
  Tl  Tl21  1  0.48411800  0.19793700  0.25000000  1
  Tl  Tl22  1  0.98411800  0.30206300  0.75000000  1
  Tl  Tl23  1  0.66134900  0.02812200  0.25000000  1
  Tl  Tl24  1  0.16134900  0.47187800  0.75000000  1
  Tl  Tl25  1  0.17323350  0.13896650  0.75000000  1
  Tl  Tl26  1  0.17323350  0.86103350  0.25000000  1
  Tl  Tl27  1  0.98411800  0.69793700  0.25000000  1
  Tl  Tl28  1  0.48411800  0.80206300  0.75000000  1
  Tl  Tl29  1  0.16134900  0.52812200  0.25000000  1
  Tl  Tl30  1  0.66134900  0.97187800  0.75000000  1
  Tl  Tl31  1  0.67323350  0.63896650  0.75000000  1
  P  P32  1  0.03373250  0.38506050  0.25000000  1
  P  P33  1  0.72562700  0.41237200  0.75000000  1
  P  P34  1  0.53373250  0.11493950  0.75000000  1
  P  P35  1  0.22562700  0.08762800  0.25000000  1
  P  P36  1  0.53373250  0.88506050  0.25000000  1
  P  P37  1  0.22562700  0.91237200  0.75000000  1
  P  P38  1  0.03373250  0.61493950  0.75000000  1
  P  P39  1  0.72562700  0.58762800  0.25000000  1
  O  O40  1  0.23330400  0.34992900  0.75000000  1
  O  O41  1  0.41645300  0.07036800  0.75000000  1
  O  O42  1  0.16186750  0.06134650  0.42376100  1
  O  O43  1  0.37474250  0.43490550  0.95877600  1
  O  O44  1  0.19827150  0.27219650  0.06253800  1
  O  O45  1  0.37474250  0.43490550  0.54122400  1
  O  O46  1  0.02744250  0.02799350  0.75000000  1
  O  O47  1  0.12103750  0.39362350  0.07968300  1
  O  O48  1  0.19827150  0.27219650  0.43746200  1
  O  O49  1  0.16186750  0.06134650  0.07623900  1
  O  O50  1  0.86112800  0.14691500  0.75000000  1
  O  O51  1  0.73330400  0.15007100  0.25000000  1
  O  O52  1  0.69827150  0.22780350  0.93746200  1
  O  O53  1  0.96154500  0.19752600  0.06841500  1
  O  O54  1  0.52744250  0.47200650  0.25000000  1
  O  O55  1  0.62103750  0.10637650  0.57968300  1
  O  O56  1  0.37452350  0.07505150  0.25000000  1
  O  O57  1  0.87474250  0.06509450  0.45877600  1
  O  O58  1  0.66186750  0.43865350  0.57623900  1
  O  O59  1  0.66186750  0.43865350  0.92376100  1
  O  O60  1  0.20157400  0.15901700  0.25000000  1
  O  O61  1  0.48024550  0.18384550  0.75000000  1
  O  O62  1  0.87452350  0.42494850  0.75000000  1
  O  O63  1  0.36112800  0.35308500  0.25000000  1
  O  O64  1  0.46154500  0.30247400  0.93158500  1
  O  O65  1  0.87474250  0.06509450  0.04122400  1
  O  O66  1  0.91645300  0.42963200  0.25000000  1
  O  O67  1  0.12103750  0.39362350  0.42031700  1
  O  O68  1  0.46154500  0.30247400  0.56841500  1
  O  O69  1  0.96154500  0.19752600  0.43158500  1
  O  O70  1  0.69827150  0.22780350  0.56253800  1
  O  O71  1  0.70157400  0.34098300  0.75000000  1
  O  O72  1  0.62103750  0.10637650  0.92031700  1
  O  O73  1  0.98024550  0.31615450  0.25000000  1
  O  O74  1  0.73330400  0.84992900  0.75000000  1
  O  O75  1  0.91645300  0.57036800  0.75000000  1
  O  O76  1  0.66186750  0.56134650  0.42376100  1
  O  O77  1  0.87474250  0.93490550  0.95877600  1
  O  O78  1  0.69827150  0.77219650  0.06253800  1
  O  O79  1  0.87474250  0.93490550  0.54122400  1
  O  O80  1  0.52744250  0.52799350  0.75000000  1
  O  O81  1  0.62103750  0.89362350  0.07968300  1
  O  O82  1  0.69827150  0.77219650  0.43746200  1
  O  O83  1  0.66186750  0.56134650  0.07623900  1
  O  O84  1  0.36112800  0.64691500  0.75000000  1
  O  O85  1  0.23330400  0.65007100  0.25000000  1
  O  O86  1  0.19827150  0.72780350  0.93746200  1
  O  O87  1  0.46154500  0.69752600  0.06841500  1
  O  O88  1  0.02744250  0.97200650  0.25000000  1
  O  O89  1  0.12103750  0.60637650  0.57968300  1
  O  O90  1  0.87452350  0.57505150  0.25000000  1
  O  O91  1  0.37474250  0.56509450  0.45877600  1
  O  O92  1  0.16186750  0.93865350  0.57623900  1
  O  O93  1  0.16186750  0.93865350  0.92376100  1
  O  O94  1  0.70157400  0.65901700  0.25000000  1
  O  O95  1  0.98024550  0.68384550  0.75000000  1
  O  O96  1  0.37452350  0.92494850  0.75000000  1
  O  O97  1  0.86112800  0.85308500  0.25000000  1
  O  O98  1  0.96154500  0.80247400  0.93158500  1
  O  O99  1  0.37474250  0.56509450  0.04122400  1
  O  O100  1  0.41645300  0.92963200  0.25000000  1
  O  O101  1  0.62103750  0.89362350  0.42031700  1
  O  O102  1  0.96154500  0.80247400  0.56841500  1
  O  O103  1  0.46154500  0.69752600  0.43158500  1
  O  O104  1  0.19827150  0.72780350  0.56253800  1
  O  O105  1  0.20157400  0.84098300  0.75000000  1
  O  O106  1  0.12103750  0.60637650  0.92031700  1
  O  O107  1  0.48024550  0.81615450  0.25000000  1
