# generated using pymatgen
data_Rb2Nb3Cl7O5
_symmetry_space_group_name_H-M   'P 1'
_cell_length_a   17.28293400
_cell_length_b   9.03673200
_cell_length_c   11.32404034
_cell_angle_alpha   90.00000000
_cell_angle_beta   111.15712141
_cell_angle_gamma   90.00000000
_symmetry_Int_Tables_number   1
_chemical_formula_structural   Rb2Nb3Cl7O5
_chemical_formula_sum   'Rb8 Nb12 Cl28 O20'
_cell_volume   1649.38856028
_cell_formula_units_Z   4
loop_
 _symmetry_equiv_pos_site_id
 _symmetry_equiv_pos_as_xyz
  1  'x, y, z'
loop_
 _atom_site_type_symbol
 _atom_site_label
 _atom_site_symmetry_multiplicity
 _atom_site_fract_x
 _atom_site_fract_y
 _atom_site_fract_z
 _atom_site_occupancy
  Rb  Rb0  1  0.20230050  0.96002750  0.85607400  1
  Rb  Rb1  1  0.29769950  0.53997250  0.14392600  1
  Rb  Rb2  1  0.29769950  0.46002750  0.64392600  1
  Rb  Rb3  1  0.20230050  0.03997250  0.35607400  1
  Rb  Rb4  1  0.70230050  0.46002750  0.85607400  1
  Rb  Rb5  1  0.79769950  0.03997250  0.14392600  1
  Rb  Rb6  1  0.79769950  0.96002750  0.64392600  1
  Rb  Rb7  1  0.70230050  0.53997250  0.35607400  1
  Nb  Nb8  1  0.00000000  0.53473300  0.75000000  1
  Nb  Nb9  1  0.49750600  0.28860800  0.02643000  1
  Nb  Nb10  1  0.00249400  0.78860800  0.47357000  1
  Nb  Nb11  1  0.49750600  0.71139200  0.52643000  1
  Nb  Nb12  1  0.00000000  0.46526700  0.25000000  1
  Nb  Nb13  1  0.00249400  0.21139200  0.97357000  1
  Nb  Nb14  1  0.50000000  0.03473300  0.75000000  1
  Nb  Nb15  1  0.99750600  0.78860800  0.02643000  1
  Nb  Nb16  1  0.50249400  0.28860800  0.47357000  1
  Nb  Nb17  1  0.99750600  0.21139200  0.52643000  1
  Nb  Nb18  1  0.50000000  0.96526700  0.25000000  1
  Nb  Nb19  1  0.50249400  0.71139200  0.97357000  1
  Cl  Cl20  1  0.35080850  0.71093850  0.87504100  1
  Cl  Cl21  1  0.14919150  0.78906150  0.12495900  1
  Cl  Cl22  1  0.35132250  0.07051650  0.66912400  1
  Cl  Cl23  1  0.00000000  0.90700200  0.25000000  1
  Cl  Cl24  1  0.34703450  0.29040550  0.95782100  1
  Cl  Cl25  1  0.15296550  0.79040550  0.54217900  1
  Cl  Cl26  1  0.34703450  0.70959450  0.45782100  1
  Cl  Cl27  1  0.35132250  0.92948350  0.16912400  1
  Cl  Cl28  1  0.14867750  0.42948350  0.33087600  1
  Cl  Cl29  1  0.35080850  0.28906150  0.37504100  1
  Cl  Cl30  1  0.00000000  0.09299800  0.75000000  1
  Cl  Cl31  1  0.14919150  0.21093850  0.62495900  1
  Cl  Cl32  1  0.14867750  0.57051650  0.83087600  1
  Cl  Cl33  1  0.15296550  0.20959450  0.04217900  1
  Cl  Cl34  1  0.85080850  0.21093850  0.87504100  1
  Cl  Cl35  1  0.64919150  0.28906150  0.12495900  1
  Cl  Cl36  1  0.85132250  0.57051650  0.66912400  1
  Cl  Cl37  1  0.50000000  0.40700200  0.25000000  1
  Cl  Cl38  1  0.84703450  0.79040550  0.95782100  1
  Cl  Cl39  1  0.65296550  0.29040550  0.54217900  1
  Cl  Cl40  1  0.84703450  0.20959450  0.45782100  1
  Cl  Cl41  1  0.85132250  0.42948350  0.16912400  1
  Cl  Cl42  1  0.64867750  0.92948350  0.33087600  1
  Cl  Cl43  1  0.85080850  0.78906150  0.37504100  1
  Cl  Cl44  1  0.50000000  0.59299800  0.75000000  1
  Cl  Cl45  1  0.64919150  0.71093850  0.62495900  1
  Cl  Cl46  1  0.64867750  0.07051650  0.83087600  1
  Cl  Cl47  1  0.65296550  0.70959450  0.04217900  1
  O  O48  1  0.49873000  0.78781400  0.37912800  1
  O  O49  1  0.00148500  0.39761700  0.87435900  1
  O  O50  1  0.49851500  0.10238300  0.12564100  1
  O  O51  1  0.00127000  0.28781400  0.12087200  1
  O  O52  1  0.49873000  0.21218600  0.87912800  1
  O  O53  1  0.00000000  0.00000000  0.00000000  1
  O  O54  1  0.00127000  0.71218600  0.62087200  1
  O  O55  1  0.00148500  0.60238300  0.37435900  1
  O  O56  1  0.49851500  0.89761700  0.62564100  1
  O  O57  1  0.00000000  0.00000000  0.50000000  1
  O  O58  1  0.99873000  0.28781400  0.37912800  1
  O  O59  1  0.50148500  0.89761700  0.87435900  1
  O  O60  1  0.99851500  0.60238300  0.12564100  1
  O  O61  1  0.50127000  0.78781400  0.12087200  1
  O  O62  1  0.99873000  0.71218600  0.87912800  1
  O  O63  1  0.50000000  0.50000000  0.00000000  1
  O  O64  1  0.50127000  0.21218600  0.62087200  1
  O  O65  1  0.50148500  0.10238300  0.37435900  1
  O  O66  1  0.99851500  0.39761700  0.62564100  1
  O  O67  1  0.50000000  0.50000000  0.50000000  1
