# generated using pymatgen
data_K2CdPb
_symmetry_space_group_name_H-M   'P 1'
_cell_length_a   8.72756000
_cell_length_b   11.16376800
_cell_length_c   6.65877400
_cell_angle_alpha   90.00000000
_cell_angle_beta   90.00000000
_cell_angle_gamma   90.00000000
_symmetry_Int_Tables_number   1
_chemical_formula_structural   K2CdPb
_chemical_formula_sum   'K8 Cd4 Pb4'
_cell_volume   648.78069842
_cell_formula_units_Z   4
loop_
 _symmetry_equiv_pos_site_id
 _symmetry_equiv_pos_as_xyz
  1  'x, y, z'
loop_
 _atom_site_type_symbol
 _atom_site_label
 _atom_site_symmetry_multiplicity
 _atom_site_fract_x
 _atom_site_fract_y
 _atom_site_fract_z
 _atom_site_occupancy
  K  K0  1  0.65006150  0.32884250  0.25000000  1
  K  K1  1  0.34993850  0.32884250  0.75000000  1
  K  K2  1  0.64232200  0.68045700  0.25000000  1
  K  K3  1  0.35767800  0.68045700  0.75000000  1
  K  K4  1  0.15006150  0.82884250  0.25000000  1
  K  K5  1  0.84993850  0.82884250  0.75000000  1
  K  K6  1  0.14232200  0.18045700  0.25000000  1
  K  K7  1  0.85767800  0.18045700  0.75000000  1
  Cd  Cd8  1  0.50000000  0.00808700  0.00000000  1
  Cd  Cd9  1  0.50000000  0.00808700  0.50000000  1
  Cd  Cd10  1  0.00000000  0.50808700  0.00000000  1
  Cd  Cd11  1  0.00000000  0.50808700  0.50000000  1
  Pb  Pb12  1  0.77376750  0.00311450  0.25000000  1
  Pb  Pb13  1  0.22623250  0.00311450  0.75000000  1
  Pb  Pb14  1  0.27376750  0.50311450  0.25000000  1
  Pb  Pb15  1  0.72623250  0.50311450  0.75000000  1
