# generated using pymatgen
data_Tl2BiP2S7
_symmetry_space_group_name_H-M   'P 1'
_cell_length_a   23.57550800
_cell_length_b   6.81641600
_cell_length_c   19.09521750
_cell_angle_alpha   90.00000000
_cell_angle_beta   119.87289597
_cell_angle_gamma   90.00000000
_symmetry_Int_Tables_number   1
_chemical_formula_structural   Tl2BiP2S7
_chemical_formula_sum   'Tl16 Bi8 P16 S56'
_cell_volume   2660.89171939
_cell_formula_units_Z   8
loop_
 _symmetry_equiv_pos_site_id
 _symmetry_equiv_pos_as_xyz
  1  'x, y, z'
loop_
 _atom_site_type_symbol
 _atom_site_label
 _atom_site_symmetry_multiplicity
 _atom_site_fract_x
 _atom_site_fract_y
 _atom_site_fract_z
 _atom_site_occupancy
  Tl  Tl0  1  0.00667000  0.47012900  0.88180800  1
  Tl  Tl1  1  0.00667000  0.52987100  0.38180800  1
  Tl  Tl2  1  0.99333000  0.52987100  0.11819200  1
  Tl  Tl3  1  0.82373750  0.99691650  0.47301500  1
  Tl  Tl4  1  0.99333000  0.47012900  0.61819200  1
  Tl  Tl5  1  0.17626250  0.00308350  0.52698500  1
  Tl  Tl6  1  0.67626250  0.49691650  0.02698500  1
  Tl  Tl7  1  0.32373750  0.50308350  0.97301500  1
  Tl  Tl8  1  0.50667000  0.97012900  0.88180800  1
  Tl  Tl9  1  0.50667000  0.02987100  0.38180800  1
  Tl  Tl10  1  0.49333000  0.02987100  0.11819200  1
  Tl  Tl11  1  0.32373750  0.49691650  0.47301500  1
  Tl  Tl12  1  0.49333000  0.97012900  0.61819200  1
  Tl  Tl13  1  0.67626250  0.50308350  0.52698500  1
  Tl  Tl14  1  0.17626250  0.99691650  0.02698500  1
  Tl  Tl15  1  0.82373750  0.00308350  0.97301500  1
  Bi  Bi16  1  0.33665400  0.44978700  0.75343600  1
  Bi  Bi17  1  0.66334600  0.55021300  0.24656400  1
  Bi  Bi18  1  0.16334600  0.94978700  0.74656400  1
  Bi  Bi19  1  0.83665400  0.05021300  0.25343600  1
  Bi  Bi20  1  0.83665400  0.94978700  0.75343600  1
  Bi  Bi21  1  0.16334600  0.05021300  0.24656400  1
  Bi  Bi22  1  0.66334600  0.44978700  0.74656400  1
  Bi  Bi23  1  0.33665400  0.55021300  0.25343600  1
  P  P24  1  0.04894450  0.97941650  0.80761300  1
  P  P25  1  0.95105550  0.97941650  0.69238700  1
  P  P26  1  0.83458150  0.50057050  0.36164600  1
  P  P27  1  0.95105550  0.02058350  0.19238700  1
  P  P28  1  0.16541850  0.49942950  0.63835400  1
  P  P29  1  0.04894450  0.02058350  0.30761300  1
  P  P30  1  0.33458150  0.99942950  0.86164600  1
  P  P31  1  0.66541850  0.00057050  0.13835400  1
  P  P32  1  0.54894450  0.47941650  0.80761300  1
  P  P33  1  0.45105550  0.47941650  0.69238700  1
  P  P34  1  0.33458150  0.00057050  0.36164600  1
  P  P35  1  0.45105550  0.52058350  0.19238700  1
  P  P36  1  0.66541850  0.99942950  0.63835400  1
  P  P37  1  0.54894450  0.52058350  0.30761300  1
  P  P38  1  0.83458150  0.49942950  0.86164600  1
  P  P39  1  0.16541850  0.50057050  0.13835400  1
  S  S40  1  0.89024750  0.74967950  0.39306400  1
  S  S41  1  0.60975250  0.24967950  0.10693600  1
  S  S42  1  0.76825150  0.51083750  0.40249400  1
  S  S43  1  0.09967000  0.21591000  0.80195600  1
  S  S44  1  0.90033000  0.78409000  0.19804400  1
  S  S45  1  0.89767700  0.26877000  0.41154000  1
  S  S46  1  0.02917000  0.98330600  0.89813900  1
  S  S47  1  0.97083000  0.01669400  0.10186100  1
  S  S48  1  0.39024750  0.75032050  0.89306400  1
  S  S49  1  0.28228900  0.04476700  0.73758300  1
  S  S50  1  0.09967000  0.78409000  0.30195600  1
  S  S51  1  0.10232300  0.73123000  0.58846000  1
  S  S52  1  0.60232300  0.76877000  0.08846000  1
  S  S53  1  0.10975250  0.25032050  0.60693600  1
  S  S54  1  0.39767700  0.23123000  0.91154000  1
  S  S55  1  0.90033000  0.21591000  0.69804400  1
  S  S56  1  0.02917000  0.01669400  0.39813900  1
  S  S57  1  0.78228900  0.45523300  0.23758300  1
  S  S58  1  0.21771100  0.54476700  0.76241700  1
  S  S59  1  0.73174850  0.01083750  0.09750600  1
  S  S60  1  0.09567500  0.72839000  0.80356300  1
  S  S61  1  0.26825150  0.98916250  0.90249400  1
  S  S62  1  0.09567500  0.27161000  0.30356300  1
  S  S63  1  0.23174850  0.48916250  0.59750600  1
  S  S64  1  0.71771100  0.95523300  0.26241700  1
  S  S65  1  0.90432500  0.27161000  0.19643700  1
  S  S66  1  0.90432500  0.72839000  0.69643700  1
  S  S67  1  0.97083000  0.98330600  0.60186100  1
  S  S68  1  0.39024750  0.24967950  0.39306400  1
  S  S69  1  0.10975250  0.74967950  0.10693600  1
  S  S70  1  0.26825150  0.01083750  0.40249400  1
  S  S71  1  0.59967000  0.71591000  0.80195600  1
  S  S72  1  0.40033000  0.28409000  0.19804400  1
  S  S73  1  0.39767700  0.76877000  0.41154000  1
  S  S74  1  0.52917000  0.48330600  0.89813900  1
  S  S75  1  0.47083000  0.51669400  0.10186100  1
  S  S76  1  0.89024750  0.25032050  0.89306400  1
  S  S77  1  0.78228900  0.54476700  0.73758300  1
  S  S78  1  0.59967000  0.28409000  0.30195600  1
  S  S79  1  0.60232300  0.23123000  0.58846000  1
  S  S80  1  0.10232300  0.26877000  0.08846000  1
  S  S81  1  0.60975250  0.75032050  0.60693600  1
  S  S82  1  0.89767700  0.73123000  0.91154000  1
  S  S83  1  0.40033000  0.71591000  0.69804400  1
  S  S84  1  0.52917000  0.51669400  0.39813900  1
  S  S85  1  0.28228900  0.95523300  0.23758300  1
  S  S86  1  0.71771100  0.04476700  0.76241700  1
  S  S87  1  0.23174850  0.51083750  0.09750600  1
  S  S88  1  0.59567500  0.22839000  0.80356300  1
  S  S89  1  0.76825150  0.48916250  0.90249400  1
  S  S90  1  0.59567500  0.77161000  0.30356300  1
  S  S91  1  0.73174850  0.98916250  0.59750600  1
  S  S92  1  0.21771100  0.45523300  0.26241700  1
  S  S93  1  0.40432500  0.77161000  0.19643700  1
  S  S94  1  0.40432500  0.22839000  0.69643700  1
  S  S95  1  0.47083000  0.48330600  0.60186100  1
