# generated using pymatgen
data_BaNaCe2C4O12F
_symmetry_space_group_name_H-M   'P 1'
_cell_length_a   5.14827820
_cell_length_b   5.14827820
_cell_length_c   23.18747000
_cell_angle_alpha   90.00000000
_cell_angle_beta   90.00000000
_cell_angle_gamma   120.00000000
_symmetry_Int_Tables_number   1
_chemical_formula_structural   BaNaCe2C4O12F
_chemical_formula_sum   'Ba2 Na2 Ce4 C8 O24 F2'
_cell_volume   532.24061367
_cell_formula_units_Z   2
loop_
 _symmetry_equiv_pos_site_id
 _symmetry_equiv_pos_as_xyz
  1  'x, y, z'
loop_
 _atom_site_type_symbol
 _atom_site_label
 _atom_site_symmetry_multiplicity
 _atom_site_fract_x
 _atom_site_fract_y
 _atom_site_fract_z
 _atom_site_occupancy
  Ba  Ba0  1  0.00000000  0.00000000  0.50000000  1
  Ba  Ba1  1  0.00000000  0.00000000  0.00000000  1
  Na  Na2  1  0.66666667  0.33333333  0.25000000  1
  Na  Na3  1  0.33333333  0.66666667  0.75000000  1
  Ce  Ce4  1  0.66666667  0.33333333  0.85311700  1
  Ce  Ce5  1  0.33333333  0.66666667  0.35311700  1
  Ce  Ce6  1  0.33333333  0.66666667  0.14688300  1
  Ce  Ce7  1  0.66666667  0.33333333  0.64688300  1
  C  C8  1  0.00000000  0.00000000  0.17739700  1
  C  C9  1  0.00000000  0.00000000  0.67739700  1
  C  C10  1  0.00000000  0.00000000  0.82260300  1
  C  C11  1  0.00000000  0.00000000  0.32260300  1
  C  C12  1  0.33333333  0.66666667  0.93298700  1
  C  C13  1  0.66666667  0.33333333  0.43298700  1
  C  C14  1  0.66666667  0.33333333  0.06701300  1
  C  C15  1  0.33333333  0.66666667  0.56701300  1
  O  O16  1  0.29036400  0.14518200  0.17611700  1
  O  O17  1  0.14518200  0.29036400  0.67611700  1
  O  O18  1  0.14518200  0.85481800  0.67611700  1
  O  O19  1  0.85481800  0.14518200  0.17611700  1
  O  O20  1  0.85481800  0.70963600  0.17611700  1
  O  O21  1  0.70963600  0.85481800  0.82388300  1
  O  O22  1  0.14518200  0.29036400  0.82388300  1
  O  O23  1  0.70963600  0.85481800  0.67611700  1
  O  O24  1  0.14518200  0.85481800  0.82388300  1
  O  O25  1  0.85481800  0.14518200  0.32388300  1
  O  O26  1  0.29036400  0.14518200  0.32388300  1
  O  O27  1  0.85481800  0.70963600  0.32388300  1
  O  O28  1  0.04221800  0.52110900  0.93433200  1
  O  O29  1  0.52110900  0.04221800  0.43433200  1
  O  O30  1  0.52110900  0.47889100  0.43433200  1
  O  O31  1  0.47889100  0.52110900  0.93433200  1
  O  O32  1  0.47889100  0.95778200  0.93433200  1
  O  O33  1  0.95778200  0.47889100  0.06566800  1
  O  O34  1  0.52110900  0.04221800  0.06566800  1
  O  O35  1  0.95778200  0.47889100  0.43433200  1
  O  O36  1  0.52110900  0.47889100  0.06566800  1
  O  O37  1  0.47889100  0.52110900  0.56566800  1
  O  O38  1  0.04221800  0.52110900  0.56566800  1
  O  O39  1  0.47889100  0.95778200  0.56566800  1
  F  F40  1  0.66666667  0.33333333  0.75000000  1
  F  F41  1  0.33333333  0.66666667  0.25000000  1
