# generated using pymatgen
data_Hf3Tl2(CuSe4)2
_symmetry_space_group_name_H-M   'P 1'
_cell_length_a   14.93312600
_cell_length_b   3.82185800
_cell_length_c   14.50273627
_cell_angle_alpha   90.00000000
_cell_angle_beta   114.64706352
_cell_angle_gamma   90.00000000
_symmetry_Int_Tables_number   1
_chemical_formula_structural   Hf3Tl2(CuSe4)2
_chemical_formula_sum   'Hf6 Tl4 Cu4 Se16'
_cell_volume   752.29538423
_cell_formula_units_Z   2
loop_
 _symmetry_equiv_pos_site_id
 _symmetry_equiv_pos_as_xyz
  1  'x, y, z'
loop_
 _atom_site_type_symbol
 _atom_site_label
 _atom_site_symmetry_multiplicity
 _atom_site_fract_x
 _atom_site_fract_y
 _atom_site_fract_z
 _atom_site_occupancy
  Hf  Hf0  1  0.84489500  0.50000000  0.61982700  1
  Hf  Hf1  1  0.15510500  0.50000000  0.38017300  1
  Hf  Hf2  1  0.00000000  0.50000000  0.00000000  1
  Hf  Hf3  1  0.34489500  0.00000000  0.61982700  1
  Hf  Hf4  1  0.65510500  0.00000000  0.38017300  1
  Hf  Hf5  1  0.50000000  0.00000000  0.00000000  1
  Tl  Tl6  1  0.16848600  0.50000000  0.80162700  1
  Tl  Tl7  1  0.83151400  0.50000000  0.19837300  1
  Tl  Tl8  1  0.66848600  0.00000000  0.80162700  1
  Tl  Tl9  1  0.33151400  0.00000000  0.19837300  1
  Cu  Cu10  1  0.95926100  0.00000000  0.80202100  1
  Cu  Cu11  1  0.04073900  0.00000000  0.19797900  1
  Cu  Cu12  1  0.45926100  0.50000000  0.80202100  1
  Cu  Cu13  1  0.54073900  0.50000000  0.19797900  1
  Se  Se14  1  0.10728300  0.00000000  0.96039400  1
  Se  Se15  1  0.97974700  0.00000000  0.64456000  1
  Se  Se16  1  0.02025300  0.00000000  0.35544000  1
  Se  Se17  1  0.79523400  0.50000000  0.41863100  1
  Se  Se18  1  0.20476600  0.50000000  0.58136900  1
  Se  Se19  1  0.64318600  0.00000000  0.19079900  1
  Se  Se20  1  0.35681400  0.00000000  0.80920100  1
  Se  Se21  1  0.89271700  0.00000000  0.03960600  1
  Se  Se22  1  0.60728300  0.50000000  0.96039400  1
  Se  Se23  1  0.47974700  0.50000000  0.64456000  1
  Se  Se24  1  0.52025300  0.50000000  0.35544000  1
  Se  Se25  1  0.29523400  0.00000000  0.41863100  1
  Se  Se26  1  0.70476600  0.00000000  0.58136900  1
  Se  Se27  1  0.14318600  0.50000000  0.19079900  1
  Se  Se28  1  0.85681400  0.50000000  0.80920100  1
  Se  Se29  1  0.39271700  0.50000000  0.03960600  1
