# generated using pymatgen
data_Ta9Pb12O20F29
_symmetry_space_group_name_H-M   'P 1'
_cell_length_a   23.36735200
_cell_length_b   23.36735200
_cell_length_c   3.92941000
_cell_angle_alpha   90.00000000
_cell_angle_beta   90.00000000
_cell_angle_gamma   90.00000000
_symmetry_Int_Tables_number   1
_chemical_formula_structural   Ta9Pb12O20F29
_chemical_formula_sum   'Ta18 Pb24 O40 F58'
_cell_volume   2145.58807865
_cell_formula_units_Z   2
loop_
 _symmetry_equiv_pos_site_id
 _symmetry_equiv_pos_as_xyz
  1  'x, y, z'
loop_
 _atom_site_type_symbol
 _atom_site_label
 _atom_site_symmetry_multiplicity
 _atom_site_fract_x
 _atom_site_fract_y
 _atom_site_fract_z
 _atom_site_occupancy
  Ta  Ta0  1  0.10089650  0.86982050  0.00000000  1
  Ta  Ta1  1  0.36982050  0.39910350  0.50000000  1
  Ta  Ta2  1  0.26824600  0.52818500  0.50000000  1
  Ta  Ta3  1  0.89910350  0.13017950  0.00000000  1
  Ta  Ta4  1  0.63017950  0.60089650  0.50000000  1
  Ta  Ta5  1  0.97181500  0.76824600  0.00000000  1
  Ta  Ta6  1  0.50000000  0.50000000  0.50000000  1
  Ta  Ta7  1  0.73175400  0.47181500  0.50000000  1
  Ta  Ta8  1  0.02818500  0.23175400  0.00000000  1
  Ta  Ta9  1  0.60089650  0.36982050  0.50000000  1
  Ta  Ta10  1  0.86982050  0.89910350  0.00000000  1
  Ta  Ta11  1  0.76824600  0.02818500  0.00000000  1
  Ta  Ta12  1  0.39910350  0.63017950  0.50000000  1
  Ta  Ta13  1  0.13017950  0.10089650  0.00000000  1
  Ta  Ta14  1  0.47181500  0.26824600  0.50000000  1
  Ta  Ta15  1  0.00000000  0.00000000  0.00000000  1
  Ta  Ta16  1  0.23175400  0.97181500  0.00000000  1
  Ta  Ta17  1  0.52818500  0.73175400  0.50000000  1
  Pb  Pb18  1  0.78938750  0.60187850  0.00000000  1
  Pb  Pb19  1  0.82769900  0.75404200  0.50000000  1
  Pb  Pb20  1  0.10187850  0.71061250  0.50000000  1
  Pb  Pb21  1  0.89812150  0.28938750  0.50000000  1
  Pb  Pb22  1  0.89846150  0.45247450  0.00000000  1
  Pb  Pb23  1  0.04752550  0.39846150  0.50000000  1
  Pb  Pb24  1  0.17230100  0.24595800  0.50000000  1
  Pb  Pb25  1  0.25404200  0.67230100  0.00000000  1
  Pb  Pb26  1  0.21061250  0.39812150  0.00000000  1
  Pb  Pb27  1  0.74595800  0.32769900  0.00000000  1
  Pb  Pb28  1  0.10153850  0.54752550  0.00000000  1
  Pb  Pb29  1  0.95247450  0.60153850  0.50000000  1
  Pb  Pb30  1  0.28938750  0.10187850  0.50000000  1
  Pb  Pb31  1  0.32769900  0.25404200  0.00000000  1
  Pb  Pb32  1  0.60187850  0.21061250  0.00000000  1
  Pb  Pb33  1  0.39812150  0.78938750  0.00000000  1
  Pb  Pb34  1  0.39846150  0.95247450  0.50000000  1
  Pb  Pb35  1  0.54752550  0.89846150  0.00000000  1
  Pb  Pb36  1  0.67230100  0.74595800  0.00000000  1
  Pb  Pb37  1  0.75404200  0.17230100  0.50000000  1
  Pb  Pb38  1  0.71061250  0.89812150  0.50000000  1
  Pb  Pb39  1  0.24595800  0.82769900  0.50000000  1
  Pb  Pb40  1  0.60153850  0.04752550  0.50000000  1
  Pb  Pb41  1  0.45247450  0.10153850  0.00000000  1
  O  O42  1  0.04335500  0.80707000  0.00000000  1
  O  O43  1  0.74400200  0.47011300  0.00000000  1
  O  O44  1  0.95255950  0.06829350  0.00000000  1
  O  O45  1  0.63629750  0.60660850  0.00000000  1
  O  O46  1  0.56829350  0.54744050  0.50000000  1
  O  O47  1  0.43170650  0.45255950  0.50000000  1
  O  O48  1  0.36370250  0.39339150  0.00000000  1
  O  O49  1  0.04744050  0.93170650  0.00000000  1
  O  O50  1  0.69293000  0.54335500  0.50000000  1
  O  O51  1  0.95664500  0.19293000  0.00000000  1
  O  O52  1  0.30707000  0.45664500  0.50000000  1
  O  O53  1  0.66996750  0.42020650  0.50000000  1
  O  O54  1  0.02988700  0.24400200  0.50000000  1
  O  O55  1  0.07979350  0.16996750  0.00000000  1
  O  O56  1  0.25599800  0.52988700  0.00000000  1
  O  O57  1  0.92020650  0.83003250  0.00000000  1
  O  O58  1  0.10660850  0.86370250  0.50000000  1
  O  O59  1  0.97011300  0.75599800  0.50000000  1
  O  O60  1  0.33003250  0.57979350  0.50000000  1
  O  O61  1  0.89339150  0.13629750  0.50000000  1
  O  O62  1  0.54335500  0.30707000  0.50000000  1
  O  O63  1  0.24400200  0.97011300  0.50000000  1
  O  O64  1  0.45255950  0.56829350  0.50000000  1
  O  O65  1  0.13629750  0.10660850  0.50000000  1
  O  O66  1  0.06829350  0.04744050  0.00000000  1
  O  O67  1  0.93170650  0.95255950  0.00000000  1
  O  O68  1  0.86370250  0.89339150  0.50000000  1
  O  O69  1  0.54744050  0.43170650  0.50000000  1
  O  O70  1  0.19293000  0.04335500  0.00000000  1
  O  O71  1  0.45664500  0.69293000  0.50000000  1
  O  O72  1  0.80707000  0.95664500  0.00000000  1
  O  O73  1  0.16996750  0.92020650  0.00000000  1
  O  O74  1  0.52988700  0.74400200  0.00000000  1
  O  O75  1  0.57979350  0.66996750  0.50000000  1
  O  O76  1  0.75599800  0.02988700  0.50000000  1
  O  O77  1  0.42020650  0.33003250  0.50000000  1
  O  O78  1  0.60660850  0.36370250  0.00000000  1
  O  O79  1  0.47011300  0.25599800  0.00000000  1
  O  O80  1  0.83003250  0.07979350  0.00000000  1
  O  O81  1  0.39339150  0.63629750  0.00000000  1
  F  F82  1  0.83732350  0.19588050  0.00000000  1
  F  F83  1  0.07773450  0.61409350  0.50000000  1
  F  F84  1  0.19239700  0.47984600  0.50000000  1
  F  F85  1  0.92226550  0.38590650  0.50000000  1
  F  F86  1  0.09904700  0.28640600  0.00000000  1
  F  F87  1  0.17068850  0.35232650  0.50000000  1
  F  F88  1  0.85232650  0.32931150  0.00000000  1
  F  F89  1  0.77588400  0.71494500  0.00000000  1
  F  F90  1  0.00398650  0.56622450  0.00000000  1
  F  F91  1  0.78505500  0.27588400  0.50000000  1
  F  F92  1  0.88590650  0.57773450  0.00000000  1
  F  F93  1  0.16267650  0.80411950  0.00000000  1
  F  F94  1  0.82931150  0.64767350  0.50000000  1
  F  F95  1  0.78640600  0.40095300  0.50000000  1
  F  F96  1  0.14767350  0.67068850  0.00000000  1
  F  F97  1  0.80760300  0.52015400  0.50000000  1
  F  F98  1  0.22411600  0.28505500  0.00000000  1
  F  F99  1  0.21359400  0.59904700  0.50000000  1
  F  F100  1  0.93377550  0.50398650  0.50000000  1
  F  F101  1  0.50000000  0.50000000  0.00000000  1
  F  F102  1  0.69588050  0.66267650  0.50000000  1
  F  F103  1  0.11409350  0.42226550  0.00000000  1
  F  F104  1  0.97984600  0.30760300  0.00000000  1
  F  F105  1  0.21494500  0.72411600  0.50000000  1
  F  F106  1  0.02015400  0.69239700  0.00000000  1
  F  F107  1  0.06622450  0.49601350  0.50000000  1
  F  F108  1  0.99601350  0.43377550  0.00000000  1
  F  F109  1  0.90095300  0.71359400  0.00000000  1
  F  F110  1  0.30411950  0.33732350  0.50000000  1
  F  F111  1  0.33732350  0.69588050  0.50000000  1
  F  F112  1  0.57773450  0.11409350  0.00000000  1
  F  F113  1  0.69239700  0.97984600  0.00000000  1
  F  F114  1  0.42226550  0.88590650  0.00000000  1
  F  F115  1  0.59904700  0.78640600  0.50000000  1
  F  F116  1  0.67068850  0.85232650  0.00000000  1
  F  F117  1  0.35232650  0.82931150  0.50000000  1
  F  F118  1  0.27588400  0.21494500  0.50000000  1
  F  F119  1  0.50398650  0.06622450  0.50000000  1
  F  F120  1  0.28505500  0.77588400  0.00000000  1
  F  F121  1  0.38590650  0.07773450  0.50000000  1
  F  F122  1  0.66267650  0.30411950  0.50000000  1
  F  F123  1  0.32931150  0.14767350  0.00000000  1
  F  F124  1  0.28640600  0.90095300  0.00000000  1
  F  F125  1  0.64767350  0.17068850  0.50000000  1
  F  F126  1  0.30760300  0.02015400  0.00000000  1
  F  F127  1  0.72411600  0.78505500  0.50000000  1
  F  F128  1  0.71359400  0.09904700  0.00000000  1
  F  F129  1  0.43377550  0.00398650  0.00000000  1
  F  F130  1  0.00000000  0.00000000  0.50000000  1
  F  F131  1  0.19588050  0.16267650  0.00000000  1
  F  F132  1  0.61409350  0.92226550  0.50000000  1
  F  F133  1  0.47984600  0.80760300  0.50000000  1
  F  F134  1  0.71494500  0.22411600  0.00000000  1
  F  F135  1  0.52015400  0.19239700  0.50000000  1
  F  F136  1  0.56622450  0.99601350  0.00000000  1
  F  F137  1  0.49601350  0.93377550  0.50000000  1
  F  F138  1  0.40095300  0.21359400  0.50000000  1
  F  F139  1  0.80411950  0.83732350  0.00000000  1
