# generated using pymatgen
data_KYP2O7
_symmetry_space_group_name_H-M   'P 1'
_cell_length_a   5.78329000
_cell_length_b   9.34419600
_cell_length_c   12.43980600
_cell_angle_alpha   90.00000000
_cell_angle_beta   90.00000000
_cell_angle_gamma   90.00000000
_symmetry_Int_Tables_number   1
_chemical_formula_structural   KYP2O7
_chemical_formula_sum   'K4 Y4 P8 O28'
_cell_volume   672.24954555
_cell_formula_units_Z   4
loop_
 _symmetry_equiv_pos_site_id
 _symmetry_equiv_pos_as_xyz
  1  'x, y, z'
loop_
 _atom_site_type_symbol
 _atom_site_label
 _atom_site_symmetry_multiplicity
 _atom_site_fract_x
 _atom_site_fract_y
 _atom_site_fract_z
 _atom_site_occupancy
  K  K0  1  0.50000000  0.80429700  0.25000000  1
  K  K1  1  0.50000000  0.19570300  0.75000000  1
  K  K2  1  0.00000000  0.30429700  0.25000000  1
  K  K3  1  0.00000000  0.69570300  0.75000000  1
  Y  Y4  1  0.00000000  0.00000000  0.00000000  1
  Y  Y5  1  0.00000000  0.00000000  0.50000000  1
  Y  Y6  1  0.50000000  0.50000000  0.00000000  1
  Y  Y7  1  0.50000000  0.50000000  0.50000000  1
  P  P8  1  0.50000000  0.14412500  0.37042900  1
  P  P9  1  0.50000000  0.85587500  0.62957100  1
  P  P10  1  0.50000000  0.14412500  0.12957100  1
  P  P11  1  0.50000000  0.85587500  0.87042900  1
  P  P12  1  0.00000000  0.64412500  0.37042900  1
  P  P13  1  0.00000000  0.35587500  0.62957100  1
  P  P14  1  0.00000000  0.64412500  0.12957100  1
  P  P15  1  0.00000000  0.35587500  0.87042900  1
  O  O16  1  0.27983800  0.94634100  0.62315600  1
  O  O17  1  0.50000000  0.72720400  0.55508900  1
  O  O18  1  0.72016200  0.05365900  0.37684400  1
  O  O19  1  0.72016200  0.05365900  0.12315600  1
  O  O20  1  0.50000000  0.27279600  0.44491100  1
  O  O21  1  0.72016200  0.94634100  0.87684400  1
  O  O22  1  0.50000000  0.27279600  0.05508900  1
  O  O23  1  0.50000000  0.72720400  0.94491100  1
  O  O24  1  0.72016200  0.94634100  0.62315600  1
  O  O25  1  0.50000000  0.78214600  0.75000000  1
  O  O26  1  0.27983800  0.05365900  0.37684400  1
  O  O27  1  0.27983800  0.05365900  0.12315600  1
  O  O28  1  0.50000000  0.21785400  0.25000000  1
  O  O29  1  0.27983800  0.94634100  0.87684400  1
  O  O30  1  0.77983800  0.44634100  0.62315600  1
  O  O31  1  0.00000000  0.22720400  0.55508900  1
  O  O32  1  0.22016200  0.55365900  0.37684400  1
  O  O33  1  0.22016200  0.55365900  0.12315600  1
  O  O34  1  0.00000000  0.77279600  0.44491100  1
  O  O35  1  0.22016200  0.44634100  0.87684400  1
  O  O36  1  0.00000000  0.77279600  0.05508900  1
  O  O37  1  0.00000000  0.22720400  0.94491100  1
  O  O38  1  0.22016200  0.44634100  0.62315600  1
  O  O39  1  0.00000000  0.28214600  0.75000000  1
  O  O40  1  0.77983800  0.55365900  0.37684400  1
  O  O41  1  0.77983800  0.55365900  0.12315600  1
  O  O42  1  0.00000000  0.71785400  0.25000000  1
  O  O43  1  0.77983800  0.44634100  0.87684400  1
