# generated using pymatgen
data_Ba2NdBiO6
_symmetry_space_group_name_H-M   'P 1'
_cell_length_a   10.77771400
_cell_length_b   6.24230200
_cell_length_c   6.28380911
_cell_angle_alpha   90.00000000
_cell_angle_beta   125.16346857
_cell_angle_gamma   90.00000000
_symmetry_Int_Tables_number   1
_chemical_formula_structural   Ba2NdBiO6
_chemical_formula_sum   'Ba4 Nd2 Bi2 O12'
_cell_volume   345.61190172
_cell_formula_units_Z   2
loop_
 _symmetry_equiv_pos_site_id
 _symmetry_equiv_pos_as_xyz
  1  'x, y, z'
loop_
 _atom_site_type_symbol
 _atom_site_label
 _atom_site_symmetry_multiplicity
 _atom_site_fract_x
 _atom_site_fract_y
 _atom_site_fract_z
 _atom_site_occupancy
  Ba  Ba0  1  0.74829700  0.50000000  0.23976400  1
  Ba  Ba1  1  0.75170300  0.00000000  0.76023600  1
  Ba  Ba2  1  0.24829700  0.00000000  0.23976400  1
  Ba  Ba3  1  0.25170300  0.50000000  0.76023600  1
  Nd  Nd4  1  0.00000000  0.00000000  0.50000000  1
  Nd  Nd5  1  0.50000000  0.50000000  0.50000000  1
  Bi  Bi6  1  0.00000000  0.50000000  0.00000000  1
  Bi  Bi7  1  0.50000000  0.00000000  0.00000000  1
  O  O8  1  0.23821500  0.50000000  0.31055200  1
  O  O9  1  0.26178500  0.00000000  0.68944800  1
  O  O10  1  0.95964150  0.74108050  0.19751000  1
  O  O11  1  0.54035850  0.75891950  0.80249000  1
  O  O12  1  0.54035850  0.24108050  0.80249000  1
  O  O13  1  0.95964150  0.25891950  0.19751000  1
  O  O14  1  0.73821500  0.00000000  0.31055200  1
  O  O15  1  0.76178500  0.50000000  0.68944800  1
  O  O16  1  0.45964150  0.24108050  0.19751000  1
  O  O17  1  0.04035850  0.25891950  0.80249000  1
  O  O18  1  0.04035850  0.74108050  0.80249000  1
  O  O19  1  0.45964150  0.75891950  0.19751000  1
