# generated using pymatgen
data_Rb10Si6O17
_symmetry_space_group_name_H-M   'P 1'
_cell_length_a   13.01633500
_cell_length_b   13.80648200
_cell_length_c   14.00063300
_cell_angle_alpha   90.00000000
_cell_angle_beta   90.00000000
_cell_angle_gamma   90.00000000
_symmetry_Int_Tables_number   1
_chemical_formula_structural   Rb10Si6O17
_chemical_formula_sum   'Rb40 Si24 O68'
_cell_volume   2516.05088467
_cell_formula_units_Z   4
loop_
 _symmetry_equiv_pos_site_id
 _symmetry_equiv_pos_as_xyz
  1  'x, y, z'
loop_
 _atom_site_type_symbol
 _atom_site_label
 _atom_site_symmetry_multiplicity
 _atom_site_fract_x
 _atom_site_fract_y
 _atom_site_fract_z
 _atom_site_occupancy
  Rb  Rb0  1  0.47013000  0.78341300  0.85941500  1
  Rb  Rb1  1  0.71009900  0.71164000  0.06090100  1
  Rb  Rb2  1  0.14990400  0.96509300  0.46081100  1
  Rb  Rb3  1  0.06390900  0.98961900  0.77493200  1
  Rb  Rb4  1  0.56390900  0.51038100  0.22506800  1
  Rb  Rb5  1  0.85009600  0.46509300  0.03918900  1
  Rb  Rb6  1  0.20188700  0.62494000  0.70776200  1
  Rb  Rb7  1  0.28990100  0.28836000  0.93909900  1
  Rb  Rb8  1  0.56390900  0.98961900  0.72506800  1
  Rb  Rb9  1  0.52987000  0.21658700  0.14058500  1
  Rb  Rb10  1  0.97013000  0.71658700  0.14058500  1
  Rb  Rb11  1  0.47013000  0.71658700  0.35941500  1
  Rb  Rb12  1  0.02987000  0.21658700  0.35941500  1
  Rb  Rb13  1  0.78990100  0.28836000  0.56090100  1
  Rb  Rb14  1  0.29811300  0.12494000  0.70776200  1
  Rb  Rb15  1  0.52987000  0.28341300  0.64058500  1
  Rb  Rb16  1  0.71009900  0.78836000  0.56090100  1
  Rb  Rb17  1  0.64990400  0.96509300  0.03918900  1
  Rb  Rb18  1  0.93609100  0.48961900  0.72506800  1
  Rb  Rb19  1  0.64990400  0.53490700  0.53918900  1
  Rb  Rb20  1  0.06390900  0.51038100  0.27493200  1
  Rb  Rb21  1  0.79811300  0.37506000  0.29223800  1
  Rb  Rb22  1  0.79811300  0.12494000  0.79223800  1
  Rb  Rb23  1  0.29811300  0.37506000  0.20776200  1
  Rb  Rb24  1  0.28990100  0.21164000  0.43909900  1
  Rb  Rb25  1  0.97013000  0.78341300  0.64058500  1
  Rb  Rb26  1  0.78990100  0.21164000  0.06090100  1
  Rb  Rb27  1  0.14990400  0.53490700  0.96081100  1
  Rb  Rb28  1  0.20188700  0.87506000  0.20776200  1
  Rb  Rb29  1  0.21009900  0.78836000  0.93909900  1
  Rb  Rb30  1  0.70188700  0.62494000  0.79223800  1
  Rb  Rb31  1  0.43609100  0.48961900  0.77493200  1
  Rb  Rb32  1  0.70188700  0.87506000  0.29223800  1
  Rb  Rb33  1  0.43609100  0.01038100  0.27493200  1
  Rb  Rb34  1  0.35009600  0.46509300  0.46081100  1
  Rb  Rb35  1  0.21009900  0.71164000  0.43909900  1
  Rb  Rb36  1  0.35009600  0.03490700  0.96081100  1
  Rb  Rb37  1  0.93609100  0.01038100  0.22506800  1
  Rb  Rb38  1  0.85009600  0.03490700  0.53918900  1
  Rb  Rb39  1  0.02987000  0.28341300  0.85941500  1
  Si  Si40  1  0.91772000  0.90972000  0.98699000  1
  Si  Si41  1  0.44473000  0.78320900  0.11381500  1
  Si  Si42  1  0.55527000  0.21679100  0.88618500  1
  Si  Si43  1  0.05527000  0.21679100  0.61381500  1
  Si  Si44  1  0.58228000  0.40972000  0.98699000  1
  Si  Si45  1  0.71775900  0.13093000  0.31653300  1
  Si  Si46  1  0.44473000  0.71679100  0.61381500  1
  Si  Si47  1  0.28224100  0.86907000  0.68346700  1
  Si  Si48  1  0.08228000  0.09028000  0.01301000  1
  Si  Si49  1  0.21775900  0.36907000  0.68346700  1
  Si  Si50  1  0.91772000  0.59028000  0.48699000  1
  Si  Si51  1  0.05527000  0.28320900  0.11381500  1
  Si  Si52  1  0.41772000  0.90972000  0.51301000  1
  Si  Si53  1  0.21775900  0.13093000  0.18346700  1
  Si  Si54  1  0.94473000  0.78320900  0.38618500  1
  Si  Si55  1  0.28224100  0.63093000  0.18346700  1
  Si  Si56  1  0.41772000  0.59028000  0.01301000  1
  Si  Si57  1  0.08228000  0.40972000  0.51301000  1
  Si  Si58  1  0.78224100  0.63093000  0.31653300  1
  Si  Si59  1  0.58228000  0.09028000  0.48699000  1
  Si  Si60  1  0.71775900  0.36907000  0.81653300  1
  Si  Si61  1  0.78224100  0.86907000  0.81653300  1
  Si  Si62  1  0.94473000  0.71679100  0.88618500  1
  Si  Si63  1  0.55527000  0.28320900  0.38618500  1
  O  O64  1  0.35440100  0.88731000  0.41772300  1
  O  O65  1  0.03986400  0.67443900  0.82516900  1
  O  O66  1  0.35838800  0.73046400  0.18814700  1
  O  O67  1  0.14559900  0.38731000  0.41772300  1
  O  O68  1  0.34658000  0.94371300  0.60589300  1
  O  O69  1  0.38658300  0.64198700  0.54382200  1
  O  O70  1  0.53986400  0.67443900  0.67483100  1
  O  O71  1  0.85838800  0.76953600  0.81185300  1
  O  O72  1  0.17172000  0.65776800  0.13839700  1
  O  O73  1  0.28382900  0.57886800  0.28690800  1
  O  O74  1  0.51166500  0.18450000  0.45016000  1
  O  O75  1  0.78382900  0.92113200  0.71309200  1
  O  O76  1  0.51166500  0.31550000  0.95016000  1
  O  O77  1  0.64161200  0.23046400  0.31185300  1
  O  O78  1  0.71617100  0.42113200  0.71309200  1
  O  O79  1  0.15342000  0.05628700  0.10589300  1
  O  O80  1  0.34658000  0.55628700  0.10589300  1
  O  O81  1  0.84658000  0.94371300  0.89410700  1
  O  O82  1  0.46013600  0.32556100  0.32516900  1
  O  O83  1  0.01166500  0.31550000  0.54984000  1
  O  O84  1  0.85440100  0.61269000  0.58227700  1
  O  O85  1  0.21617100  0.07886800  0.28690800  1
  O  O86  1  0.78382900  0.57886800  0.21309200  1
  O  O87  1  0.15342000  0.44371300  0.60589300  1
  O  O88  1  0.14559900  0.11269000  0.91772300  1
  O  O89  1  0.84658000  0.55628700  0.39410700  1
  O  O90  1  0.98833500  0.68450000  0.45016000  1
  O  O91  1  0.32828000  0.15776800  0.13839700  1
  O  O92  1  0.11341700  0.14198700  0.54382200  1
  O  O93  1  0.98833500  0.81550000  0.95016000  1
  O  O94  1  0.01166500  0.18450000  0.04984000  1
  O  O95  1  0.67172000  0.84223200  0.86160300  1
  O  O96  1  0.71617100  0.07886800  0.21309200  1
  O  O97  1  0.00000000  0.00000000  0.00000000  1
  O  O98  1  0.53986400  0.82556100  0.17483100  1
  O  O99  1  0.50000000  0.00000000  0.50000000  1
  O  O100  1  0.85440100  0.88731000  0.08227700  1
  O  O101  1  0.65342000  0.05628700  0.39410700  1
  O  O102  1  0.67172000  0.65776800  0.36160300  1
  O  O103  1  0.61341700  0.35801300  0.45617800  1
  O  O104  1  0.46013600  0.17443900  0.82516900  1
  O  O105  1  0.82828000  0.34223200  0.86160300  1
  O  O106  1  0.32828000  0.34223200  0.63839700  1
  O  O107  1  0.96013600  0.32556100  0.17483100  1
  O  O108  1  0.48833500  0.68450000  0.04984000  1
  O  O109  1  0.48833500  0.81550000  0.54984000  1
  O  O110  1  0.61341700  0.14198700  0.95617800  1
  O  O111  1  0.00000000  0.50000000  0.50000000  1
  O  O112  1  0.50000000  0.50000000  0.00000000  1
  O  O113  1  0.96013600  0.17443900  0.67483100  1
  O  O114  1  0.65342000  0.44371300  0.89410700  1
  O  O115  1  0.11341700  0.35801300  0.04382200  1
  O  O116  1  0.35440100  0.61269000  0.91772300  1
  O  O117  1  0.64559900  0.11269000  0.58227700  1
  O  O118  1  0.38658300  0.85801300  0.04382200  1
  O  O119  1  0.88658300  0.85801300  0.45617800  1
  O  O120  1  0.82828000  0.15776800  0.36160300  1
  O  O121  1  0.64161200  0.26953600  0.81185300  1
  O  O122  1  0.21617100  0.42113200  0.78690800  1
  O  O123  1  0.35838800  0.76953600  0.68814700  1
  O  O124  1  0.64559900  0.38731000  0.08227700  1
  O  O125  1  0.28382900  0.92113200  0.78690800  1
  O  O126  1  0.14161200  0.23046400  0.18814700  1
  O  O127  1  0.17172000  0.84223200  0.63839700  1
  O  O128  1  0.85838800  0.73046400  0.31185300  1
  O  O129  1  0.03986400  0.82556100  0.32516900  1
  O  O130  1  0.14161200  0.26953600  0.68814700  1
  O  O131  1  0.88658300  0.64198700  0.95617800  1
