# generated using pymatgen
data_Cu3TeS3Cl
_symmetry_space_group_name_H-M   'P 1'
_cell_length_a   7.41037801
_cell_length_b   7.41037801
_cell_length_c   10.28144461
_cell_angle_alpha   90.00000000
_cell_angle_beta   90.00000000
_cell_angle_gamma   120.00000000
_symmetry_Int_Tables_number   1
_chemical_formula_structural   Cu3TeS3Cl
_chemical_formula_sum   'Cu9 Te3 S9 Cl3'
_cell_volume   488.95117818
_cell_formula_units_Z   3
loop_
 _symmetry_equiv_pos_site_id
 _symmetry_equiv_pos_as_xyz
  1  'x, y, z'
loop_
 _atom_site_type_symbol
 _atom_site_label
 _atom_site_symmetry_multiplicity
 _atom_site_fract_x
 _atom_site_fract_y
 _atom_site_fract_z
 _atom_site_occupancy
  Cu  Cu0  1  0.14174067  0.85825933  0.08750333  1
  Cu  Cu1  1  0.71651867  0.85825933  0.08750333  1
  Cu  Cu2  1  0.14174067  0.28348133  0.08750333  1
  Cu  Cu3  1  0.80840733  0.19159267  0.42083667  1
  Cu  Cu4  1  0.38318533  0.19159267  0.42083667  1
  Cu  Cu5  1  0.80840733  0.61681467  0.42083667  1
  Cu  Cu6  1  0.47507400  0.52492600  0.75417000  1
  Cu  Cu7  1  0.04985200  0.52492600  0.75417000  1
  Cu  Cu8  1  0.47507400  0.95014800  0.75417000  1
  Te  Te9  1  0.33333333  0.66666667  0.41425767  1
  Te  Te10  1  0.00000000  0.00000000  0.74759100  1
  Te  Te11  1  0.66666667  0.33333333  0.08092433  1
  S  S12  1  0.16679400  0.33358800  0.86179100  1
  S  S13  1  0.66641200  0.83320600  0.86179100  1
  S  S14  1  0.16679400  0.83320600  0.86179100  1
  S  S15  1  0.83346067  0.66692133  0.19512433  1
  S  S16  1  0.33307867  0.16653933  0.19512433  1
  S  S17  1  0.83346067  0.16653933  0.19512433  1
  S  S18  1  0.50012733  0.00025467  0.52845767  1
  S  S19  1  0.99974533  0.49987267  0.52845767  1
  S  S20  1  0.50012733  0.49987267  0.52845767  1
  Cl  Cl21  1  0.33333333  0.66666667  0.09852367  1
  Cl  Cl22  1  0.00000000  0.00000000  0.43185700  1
  Cl  Cl23  1  0.66666667  0.33333333  0.76519033  1
