# generated using pymatgen
data_K2Ag4Se3
_symmetry_space_group_name_H-M   'P 1'
_cell_length_a   18.21062400
_cell_length_b   4.49314800
_cell_length_c   12.06446175
_cell_angle_alpha   90.00000000
_cell_angle_beta   108.33429303
_cell_angle_gamma   90.00000000
_symmetry_Int_Tables_number   1
_chemical_formula_structural   K2Ag4Se3
_chemical_formula_sum   'K8 Ag16 Se12'
_cell_volume   937.04043514
_cell_formula_units_Z   4
loop_
 _symmetry_equiv_pos_site_id
 _symmetry_equiv_pos_as_xyz
  1  'x, y, z'
loop_
 _atom_site_type_symbol
 _atom_site_label
 _atom_site_symmetry_multiplicity
 _atom_site_fract_x
 _atom_site_fract_y
 _atom_site_fract_z
 _atom_site_occupancy
  K  K0  1  0.68606600  0.50000000  0.34416100  1
  K  K1  1  0.81393400  0.00000000  0.65583900  1
  K  K2  1  0.66373900  0.00000000  0.83853900  1
  K  K3  1  0.83626100  0.50000000  0.16146100  1
  K  K4  1  0.18606600  0.00000000  0.34416100  1
  K  K5  1  0.31393400  0.50000000  0.65583900  1
  K  K6  1  0.16373900  0.50000000  0.83853900  1
  K  K7  1  0.33626100  0.00000000  0.16146100  1
  Ag  Ag8  1  0.90919900  0.50000000  0.48373200  1
  Ag  Ag9  1  0.99230800  0.00000000  0.12252200  1
  Ag  Ag10  1  0.98215100  0.00000000  0.37026800  1
  Ag  Ag11  1  0.91052100  0.50000000  0.91203700  1
  Ag  Ag12  1  0.59080100  0.00000000  0.51626800  1
  Ag  Ag13  1  0.58947900  0.00000000  0.08796300  1
  Ag  Ag14  1  0.51784900  0.50000000  0.62973200  1
  Ag  Ag15  1  0.50769200  0.50000000  0.87747800  1
  Ag  Ag16  1  0.40919900  0.00000000  0.48373200  1
  Ag  Ag17  1  0.49230800  0.50000000  0.12252200  1
  Ag  Ag18  1  0.48215100  0.50000000  0.37026800  1
  Ag  Ag19  1  0.41052100  0.00000000  0.91203700  1
  Ag  Ag20  1  0.09080100  0.50000000  0.51626800  1
  Ag  Ag21  1  0.08947900  0.50000000  0.08796300  1
  Ag  Ag22  1  0.01784900  0.00000000  0.62973200  1
  Ag  Ag23  1  0.00769200  0.00000000  0.87747800  1
  Se  Se24  1  0.64501200  0.50000000  0.04009100  1
  Se  Se25  1  0.83834400  0.00000000  0.38377600  1
  Se  Se26  1  0.53413400  0.00000000  0.27739900  1
  Se  Se27  1  0.66165600  0.50000000  0.61622400  1
  Se  Se28  1  0.96586600  0.50000000  0.72260100  1
  Se  Se29  1  0.85498800  0.00000000  0.95990900  1
  Se  Se30  1  0.14501200  0.00000000  0.04009100  1
  Se  Se31  1  0.33834400  0.50000000  0.38377600  1
  Se  Se32  1  0.03413400  0.50000000  0.27739900  1
  Se  Se33  1  0.16165600  0.00000000  0.61622400  1
  Se  Se34  1  0.46586600  0.00000000  0.72260100  1
  Se  Se35  1  0.35498800  0.50000000  0.95990900  1
