# generated using pymatgen
data_Ba3ScCO3F7
_symmetry_space_group_name_H-M   'P 1'
_cell_length_a   11.67206600
_cell_length_b   13.59668600
_cell_length_c   6.09462000
_cell_angle_alpha   90.00000000
_cell_angle_beta   90.00000000
_cell_angle_gamma   90.00000000
_symmetry_Int_Tables_number   1
_chemical_formula_structural   Ba3ScCO3F7
_chemical_formula_sum   'Ba12 Sc4 C4 O12 F28'
_cell_volume   967.22482626
_cell_formula_units_Z   4
loop_
 _symmetry_equiv_pos_site_id
 _symmetry_equiv_pos_as_xyz
  1  'x, y, z'
loop_
 _atom_site_type_symbol
 _atom_site_label
 _atom_site_symmetry_multiplicity
 _atom_site_fract_x
 _atom_site_fract_y
 _atom_site_fract_z
 _atom_site_occupancy
  Ba  Ba0  1  0.72378450  0.12071650  0.75000000  1
  Ba  Ba1  1  0.72378450  0.87928350  0.25000000  1
  Ba  Ba2  1  0.27621550  0.12071650  0.75000000  1
  Ba  Ba3  1  0.50000000  0.59450900  0.25000000  1
  Ba  Ba4  1  0.50000000  0.40549100  0.75000000  1
  Ba  Ba5  1  0.27621550  0.87928350  0.25000000  1
  Ba  Ba6  1  0.22378450  0.62071650  0.75000000  1
  Ba  Ba7  1  0.22378450  0.37928350  0.25000000  1
  Ba  Ba8  1  0.77621550  0.62071650  0.75000000  1
  Ba  Ba9  1  0.00000000  0.09450900  0.25000000  1
  Ba  Ba10  1  0.00000000  0.90549100  0.75000000  1
  Ba  Ba11  1  0.77621550  0.37928350  0.25000000  1
  Sc  Sc12  1  0.50000000  0.76955400  0.75000000  1
  Sc  Sc13  1  0.50000000  0.23044600  0.25000000  1
  Sc  Sc14  1  0.00000000  0.26955400  0.75000000  1
  Sc  Sc15  1  0.00000000  0.73044600  0.25000000  1
  C  C16  1  0.50000000  0.96385500  0.75000000  1
  C  C17  1  0.50000000  0.03614500  0.25000000  1
  C  C18  1  0.00000000  0.46385500  0.75000000  1
  C  C19  1  0.00000000  0.53614500  0.25000000  1
  O  O20  1  0.50000000  0.05778500  0.75000000  1
  O  O21  1  0.59535650  0.08738450  0.25000000  1
  O  O22  1  0.59535650  0.91261550  0.75000000  1
  O  O23  1  0.40464350  0.91261550  0.75000000  1
  O  O24  1  0.50000000  0.94221500  0.25000000  1
  O  O25  1  0.40464350  0.08738450  0.25000000  1
  O  O26  1  0.00000000  0.55778500  0.75000000  1
  O  O27  1  0.09535650  0.58738450  0.25000000  1
  O  O28  1  0.09535650  0.41261550  0.75000000  1
  O  O29  1  0.90464350  0.41261550  0.75000000  1
  O  O30  1  0.00000000  0.44221500  0.25000000  1
  O  O31  1  0.90464350  0.58738450  0.25000000  1
  F  F32  1  0.16061500  0.00000000  0.50000000  1
  F  F33  1  0.50000000  0.61520000  0.75000000  1
  F  F34  1  0.50000000  0.38480000  0.25000000  1
  F  F35  1  0.83938500  0.00000000  0.50000000  1
  F  F36  1  0.37938900  0.73857000  0.50607100  1
  F  F37  1  0.37938900  0.26143000  0.49392900  1
  F  F38  1  0.62061100  0.73857000  0.99392900  1
  F  F39  1  0.62061100  0.73857000  0.50607100  1
  F  F40  1  0.37938900  0.73857000  0.99392900  1
  F  F41  1  0.62061100  0.26143000  0.00607100  1
  F  F42  1  0.83938500  0.00000000  0.00000000  1
  F  F43  1  0.16061500  0.00000000  0.00000000  1
  F  F44  1  0.37938900  0.26143000  0.00607100  1
  F  F45  1  0.62061100  0.26143000  0.49392900  1
  F  F46  1  0.66061500  0.50000000  0.50000000  1
  F  F47  1  0.00000000  0.11520000  0.75000000  1
  F  F48  1  0.00000000  0.88480000  0.25000000  1
  F  F49  1  0.33938500  0.50000000  0.50000000  1
  F  F50  1  0.87938900  0.23857000  0.50607100  1
  F  F51  1  0.87938900  0.76143000  0.49392900  1
  F  F52  1  0.12061100  0.23857000  0.99392900  1
  F  F53  1  0.12061100  0.23857000  0.50607100  1
  F  F54  1  0.87938900  0.23857000  0.99392900  1
  F  F55  1  0.12061100  0.76143000  0.00607100  1
  F  F56  1  0.33938500  0.50000000  0.00000000  1
  F  F57  1  0.66061500  0.50000000  0.00000000  1
  F  F58  1  0.87938900  0.76143000  0.00607100  1
  F  F59  1  0.12061100  0.76143000  0.49392900  1
