# generated using pymatgen
data_Nb2Bi2PbO9
_symmetry_space_group_name_H-M   'P 1'
_cell_length_a   5.65752800
_cell_length_b   25.36768400
_cell_length_c   5.70047600
_cell_angle_alpha   90.00000000
_cell_angle_beta   90.00000000
_cell_angle_gamma   90.00000000
_symmetry_Int_Tables_number   1
_chemical_formula_structural   Nb2Bi2PbO9
_chemical_formula_sum   'Nb8 Bi8 Pb4 O36'
_cell_volume   818.12309514
_cell_formula_units_Z   4
loop_
 _symmetry_equiv_pos_site_id
 _symmetry_equiv_pos_as_xyz
  1  'x, y, z'
loop_
 _atom_site_type_symbol
 _atom_site_label
 _atom_site_symmetry_multiplicity
 _atom_site_fract_x
 _atom_site_fract_y
 _atom_site_fract_z
 _atom_site_occupancy
  Nb  Nb0  1  0.75143250  0.91501650  0.76805100  1
  Nb  Nb1  1  0.25143250  0.58498350  0.76805100  1
  Nb  Nb2  1  0.24856750  0.91501650  0.26805100  1
  Nb  Nb3  1  0.74856750  0.58498350  0.26805100  1
  Nb  Nb4  1  0.25143250  0.41501650  0.76805100  1
  Nb  Nb5  1  0.75143250  0.08498350  0.76805100  1
  Nb  Nb6  1  0.74856750  0.41501650  0.26805100  1
  Nb  Nb7  1  0.24856750  0.08498350  0.26805100  1
  Bi  Bi8  1  0.78456500  0.70070200  0.68910100  1
  Bi  Bi9  1  0.21543500  0.70070200  0.18910100  1
  Bi  Bi10  1  0.71543500  0.79929800  0.18910100  1
  Bi  Bi11  1  0.28456500  0.79929800  0.68910100  1
  Bi  Bi12  1  0.28456500  0.20070200  0.68910100  1
  Bi  Bi13  1  0.71543500  0.20070200  0.18910100  1
  Bi  Bi14  1  0.21543500  0.29929800  0.18910100  1
  Bi  Bi15  1  0.78456500  0.29929800  0.68910100  1
  Pb  Pb16  1  0.75441000  0.00000000  0.24551700  1
  Pb  Pb17  1  0.24559000  0.00000000  0.74551700  1
  Pb  Pb18  1  0.25441000  0.50000000  0.24551700  1
  Pb  Pb19  1  0.74559000  0.50000000  0.74551700  1
  O  O20  1  0.67874100  0.84237300  0.80810900  1
  O  O21  1  0.02436750  0.56988750  0.52806800  1
  O  O22  1  0.46866350  0.58788050  0.07855900  1
  O  O23  1  0.82125900  0.65762700  0.30810900  1
  O  O24  1  0.51756350  0.74847750  0.47953000  1
  O  O25  1  0.20056900  0.00000000  0.31564900  1
  O  O26  1  0.32125900  0.84237300  0.30810900  1
  O  O27  1  0.53133650  0.58788050  0.57855900  1
  O  O28  1  0.52436750  0.93011250  0.52806800  1
  O  O29  1  0.98243650  0.75152250  0.97953000  1
  O  O30  1  0.96866350  0.91211950  0.07855900  1
  O  O31  1  0.48243650  0.74847750  0.97953000  1
  O  O32  1  0.17874100  0.65762700  0.80810900  1
  O  O33  1  0.01756350  0.75152250  0.47953000  1
  O  O34  1  0.03133650  0.91211950  0.57855900  1
  O  O35  1  0.47563250  0.93011250  0.02806800  1
  O  O36  1  0.79943100  0.00000000  0.81564900  1
  O  O37  1  0.97563250  0.56988750  0.02806800  1
  O  O38  1  0.17874100  0.34237300  0.80810900  1
  O  O39  1  0.52436750  0.06988750  0.52806800  1
  O  O40  1  0.96866350  0.08788050  0.07855900  1
  O  O41  1  0.32125900  0.15762700  0.30810900  1
  O  O42  1  0.01756350  0.24847750  0.47953000  1
  O  O43  1  0.70056900  0.50000000  0.31564900  1
  O  O44  1  0.82125900  0.34237300  0.30810900  1
  O  O45  1  0.03133650  0.08788050  0.57855900  1
  O  O46  1  0.02436750  0.43011250  0.52806800  1
  O  O47  1  0.48243650  0.25152250  0.97953000  1
  O  O48  1  0.46866350  0.41211950  0.07855900  1
  O  O49  1  0.98243650  0.24847750  0.97953000  1
  O  O50  1  0.67874100  0.15762700  0.80810900  1
  O  O51  1  0.51756350  0.25152250  0.47953000  1
  O  O52  1  0.53133650  0.41211950  0.57855900  1
  O  O53  1  0.97563250  0.43011250  0.02806800  1
  O  O54  1  0.29943100  0.50000000  0.81564900  1
  O  O55  1  0.47563250  0.06988750  0.02806800  1
