# generated using pymatgen
data_Zn3As2
_symmetry_space_group_name_H-M   'P 1'
_cell_length_a   11.90409200
_cell_length_b   11.90409200
_cell_length_c   23.93368400
_cell_angle_alpha   90.00000000
_cell_angle_beta   90.00000000
_cell_angle_gamma   90.00000000
_symmetry_Int_Tables_number   1
_chemical_formula_structural   Zn3As2
_chemical_formula_sum   'Zn96 As64'
_cell_volume   3391.58028391
_cell_formula_units_Z   32
loop_
 _symmetry_equiv_pos_site_id
 _symmetry_equiv_pos_as_xyz
  1  'x, y, z'
loop_
 _atom_site_type_symbol
 _atom_site_label
 _atom_site_symmetry_multiplicity
 _atom_site_fract_x
 _atom_site_fract_y
 _atom_site_fract_z
 _atom_site_occupancy
  Zn  Zn0  1  0.12016050  0.64662550  0.06348350  1
  Zn  Zn1  1  0.85337450  0.62016050  0.43651650  1
  Zn  Zn2  1  0.88960150  0.88732550  0.44634050  1
  Zn  Zn3  1  0.61039850  0.11267450  0.30365950  1
  Zn  Zn4  1  0.86277650  0.11491950  0.17919050  1
  Zn  Zn5  1  0.11267450  0.61039850  0.19634050  1
  Zn  Zn6  1  0.38960150  0.88732550  0.30365950  1
  Zn  Zn7  1  0.38960150  0.61267450  0.44634050  1
  Zn  Zn8  1  0.11039850  0.11267450  0.44634050  1
  Zn  Zn9  1  0.87983950  0.85337450  0.18651650  1
  Zn  Zn10  1  0.35337450  0.87983950  0.43651650  1
  Zn  Zn11  1  0.88960150  0.61267450  0.30365950  1
  Zn  Zn12  1  0.37983950  0.14662550  0.06348350  1
  Zn  Zn13  1  0.88732550  0.38960150  0.19634050  1
  Zn  Zn14  1  0.13722350  0.88508050  0.17919050  1
  Zn  Zn15  1  0.88732550  0.88960150  0.05365950  1
  Zn  Zn16  1  0.85337450  0.87983950  0.31348350  1
  Zn  Zn17  1  0.61491950  0.86277650  0.42919050  1
  Zn  Zn18  1  0.35337450  0.62016050  0.31348350  1
  Zn  Zn19  1  0.61039850  0.38732550  0.44634050  1
  Zn  Zn20  1  0.36277650  0.38508050  0.17919050  1
  Zn  Zn21  1  0.62016050  0.35337450  0.18651650  1
  Zn  Zn22  1  0.14662550  0.12016050  0.31348350  1
  Zn  Zn23  1  0.88508050  0.13722350  0.32080950  1
  Zn  Zn24  1  0.64662550  0.37983950  0.31348350  1
  Zn  Zn25  1  0.12016050  0.14662550  0.18651650  1
  Zn  Zn26  1  0.37983950  0.64662550  0.18651650  1
  Zn  Zn27  1  0.11491950  0.63722350  0.42919050  1
  Zn  Zn28  1  0.14662550  0.37983950  0.43651650  1
  Zn  Zn29  1  0.13722350  0.38508050  0.07080950  1
  Zn  Zn30  1  0.61491950  0.63722350  0.32080950  1
  Zn  Zn31  1  0.62016050  0.85337450  0.06348350  1
  Zn  Zn32  1  0.38732550  0.61039850  0.05365950  1
  Zn  Zn33  1  0.88508050  0.36277650  0.42919050  1
  Zn  Zn34  1  0.63722350  0.11491950  0.07080950  1
  Zn  Zn35  1  0.36277650  0.88508050  0.07080950  1
  Zn  Zn36  1  0.64662550  0.12016050  0.43651650  1
  Zn  Zn37  1  0.61267450  0.88960150  0.19634050  1
  Zn  Zn38  1  0.11491950  0.86277650  0.32080950  1
  Zn  Zn39  1  0.87983950  0.35337450  0.06348350  1
  Zn  Zn40  1  0.38508050  0.36277650  0.32080950  1
  Zn  Zn41  1  0.38732550  0.11039850  0.19634050  1
  Zn  Zn42  1  0.63722350  0.61491950  0.17919050  1
  Zn  Zn43  1  0.11039850  0.38732550  0.30365950  1
  Zn  Zn44  1  0.38508050  0.13722350  0.42919050  1
  Zn  Zn45  1  0.11267450  0.11039850  0.05365950  1
  Zn  Zn46  1  0.61267450  0.38960150  0.05365950  1
  Zn  Zn47  1  0.86277650  0.61491950  0.07080950  1
  Zn  Zn48  1  0.62016050  0.14662550  0.56348350  1
  Zn  Zn49  1  0.35337450  0.12016050  0.93651650  1
  Zn  Zn50  1  0.38960150  0.38732550  0.94634050  1
  Zn  Zn51  1  0.11039850  0.61267450  0.80365950  1
  Zn  Zn52  1  0.36277650  0.61491950  0.67919050  1
  Zn  Zn53  1  0.61267450  0.11039850  0.69634050  1
  Zn  Zn54  1  0.88960150  0.38732550  0.80365950  1
  Zn  Zn55  1  0.88960150  0.11267450  0.94634050  1
  Zn  Zn56  1  0.61039850  0.61267450  0.94634050  1
  Zn  Zn57  1  0.37983950  0.35337450  0.68651650  1
  Zn  Zn58  1  0.85337450  0.37983950  0.93651650  1
  Zn  Zn59  1  0.38960150  0.11267450  0.80365950  1
  Zn  Zn60  1  0.87983950  0.64662550  0.56348350  1
  Zn  Zn61  1  0.38732550  0.88960150  0.69634050  1
  Zn  Zn62  1  0.63722350  0.38508050  0.67919050  1
  Zn  Zn63  1  0.38732550  0.38960150  0.55365950  1
  Zn  Zn64  1  0.35337450  0.37983950  0.81348350  1
  Zn  Zn65  1  0.11491950  0.36277650  0.92919050  1
  Zn  Zn66  1  0.85337450  0.12016050  0.81348350  1
  Zn  Zn67  1  0.11039850  0.88732550  0.94634050  1
  Zn  Zn68  1  0.86277650  0.88508050  0.67919050  1
  Zn  Zn69  1  0.12016050  0.85337450  0.68651650  1
  Zn  Zn70  1  0.64662550  0.62016050  0.81348350  1
  Zn  Zn71  1  0.38508050  0.63722350  0.82080950  1
  Zn  Zn72  1  0.14662550  0.87983950  0.81348350  1
  Zn  Zn73  1  0.62016050  0.64662550  0.68651650  1
  Zn  Zn74  1  0.87983950  0.14662550  0.68651650  1
  Zn  Zn75  1  0.61491950  0.13722350  0.92919050  1
  Zn  Zn76  1  0.64662550  0.87983950  0.93651650  1
  Zn  Zn77  1  0.63722350  0.88508050  0.57080950  1
  Zn  Zn78  1  0.11491950  0.13722350  0.82080950  1
  Zn  Zn79  1  0.12016050  0.35337450  0.56348350  1
  Zn  Zn80  1  0.88732550  0.11039850  0.55365950  1
  Zn  Zn81  1  0.38508050  0.86277650  0.92919050  1
  Zn  Zn82  1  0.13722350  0.61491950  0.57080950  1
  Zn  Zn83  1  0.86277650  0.38508050  0.57080950  1
  Zn  Zn84  1  0.14662550  0.62016050  0.93651650  1
  Zn  Zn85  1  0.11267450  0.38960150  0.69634050  1
  Zn  Zn86  1  0.61491950  0.36277650  0.82080950  1
  Zn  Zn87  1  0.37983950  0.85337450  0.56348350  1
  Zn  Zn88  1  0.88508050  0.86277650  0.82080950  1
  Zn  Zn89  1  0.88732550  0.61039850  0.69634050  1
  Zn  Zn90  1  0.13722350  0.11491950  0.67919050  1
  Zn  Zn91  1  0.61039850  0.88732550  0.80365950  1
  Zn  Zn92  1  0.88508050  0.63722350  0.92919050  1
  Zn  Zn93  1  0.61267450  0.61039850  0.55365950  1
  Zn  Zn94  1  0.11267450  0.88960150  0.55365950  1
  Zn  Zn95  1  0.36277650  0.11491950  0.57080950  1
  As  As96  1  0.75189350  0.50511650  0.00169450  1
  As  As97  1  0.00000000  0.50000000  0.37405800  1
  As  As98  1  0.49488350  0.24810650  0.49830550  1
  As  As99  1  0.75468400  0.75000000  0.37500000  1
  As  As100  1  0.24531600  0.25000000  0.37500000  1
  As  As101  1  0.74810650  0.50511650  0.24830550  1
  As  As102  1  0.75000000  0.25468400  0.12500000  1
  As  As103  1  0.00000000  0.00000000  0.37594200  1
  As  As104  1  0.99488350  0.24810650  0.25169450  1
  As  As105  1  0.50511650  0.75189350  0.49830550  1
  As  As106  1  0.49488350  0.25189350  0.25169450  1
  As  As107  1  0.25468400  0.75000000  0.37500000  1
  As  As108  1  0.00511650  0.74810650  0.49830550  1
  As  As109  1  0.25189350  0.49488350  0.24830550  1
  As  As110  1  0.50000000  0.50000000  0.12405800  1
  As  As111  1  0.25189350  0.99488350  0.00169450  1
  As  As112  1  0.00511650  0.75189350  0.25169450  1
  As  As113  1  0.75000000  0.75468400  0.12500000  1
  As  As114  1  0.74531600  0.25000000  0.37500000  1
  As  As115  1  0.50000000  0.00000000  0.12594200  1
  As  As116  1  0.50000000  0.50000000  0.37594200  1
  As  As117  1  0.24810650  0.49488350  0.00169450  1
  As  As118  1  0.25000000  0.74531600  0.12500000  1
  As  As119  1  0.99488350  0.25189350  0.49830550  1
  As  As120  1  0.50511650  0.74810650  0.25169450  1
  As  As121  1  0.00000000  0.50000000  0.12594200  1
  As  As122  1  0.24810650  0.99488350  0.24830550  1
  As  As123  1  0.74810650  0.00511650  0.00169450  1
  As  As124  1  0.50000000  0.00000000  0.37405800  1
  As  As125  1  0.25000000  0.24531600  0.12500000  1
  As  As126  1  0.75189350  0.00511650  0.24830550  1
  As  As127  1  0.00000000  0.00000000  0.12405800  1
  As  As128  1  0.25189350  0.00511650  0.50169450  1
  As  As129  1  0.50000000  0.00000000  0.87405800  1
  As  As130  1  0.99488350  0.74810650  0.99830550  1
  As  As131  1  0.25468400  0.25000000  0.87500000  1
  As  As132  1  0.74531600  0.75000000  0.87500000  1
  As  As133  1  0.24810650  0.00511650  0.74830550  1
  As  As134  1  0.25000000  0.75468400  0.62500000  1
  As  As135  1  0.50000000  0.50000000  0.87594200  1
  As  As136  1  0.49488350  0.74810650  0.75169450  1
  As  As137  1  0.00511650  0.25189350  0.99830550  1
  As  As138  1  0.99488350  0.75189350  0.75169450  1
  As  As139  1  0.75468400  0.25000000  0.87500000  1
  As  As140  1  0.50511650  0.24810650  0.99830550  1
  As  As141  1  0.75189350  0.99488350  0.74830550  1
  As  As142  1  0.00000000  0.00000000  0.62405800  1
  As  As143  1  0.75189350  0.49488350  0.50169450  1
  As  As144  1  0.50511650  0.25189350  0.75169450  1
  As  As145  1  0.25000000  0.25468400  0.62500000  1
  As  As146  1  0.24531600  0.75000000  0.87500000  1
  As  As147  1  0.00000000  0.50000000  0.62594200  1
  As  As148  1  0.00000000  0.00000000  0.87594200  1
  As  As149  1  0.74810650  0.99488350  0.50169450  1
  As  As150  1  0.75000000  0.24531600  0.62500000  1
  As  As151  1  0.49488350  0.75189350  0.99830550  1
  As  As152  1  0.00511650  0.24810650  0.75169450  1
  As  As153  1  0.50000000  0.00000000  0.62594200  1
  As  As154  1  0.74810650  0.49488350  0.74830550  1
  As  As155  1  0.24810650  0.50511650  0.50169450  1
  As  As156  1  0.00000000  0.50000000  0.87405800  1
  As  As157  1  0.75000000  0.74531600  0.62500000  1
  As  As158  1  0.25189350  0.50511650  0.74830550  1
  As  As159  1  0.50000000  0.50000000  0.62405800  1
