# generated using pymatgen
data_K2NaBP2
_symmetry_space_group_name_H-M   'P 1'
_cell_length_a   12.63080400
_cell_length_b   5.02098400
_cell_length_c   12.13978768
_cell_angle_alpha   90.00000000
_cell_angle_beta   120.87497240
_cell_angle_gamma   90.00000000
_symmetry_Int_Tables_number   1
_chemical_formula_structural   K2NaBP2
_chemical_formula_sum   'K8 Na4 B4 P8'
_cell_volume   660.79164780
_cell_formula_units_Z   4
loop_
 _symmetry_equiv_pos_site_id
 _symmetry_equiv_pos_as_xyz
  1  'x, y, z'
loop_
 _atom_site_type_symbol
 _atom_site_label
 _atom_site_symmetry_multiplicity
 _atom_site_fract_x
 _atom_site_fract_y
 _atom_site_fract_z
 _atom_site_occupancy
  K  K0  1  0.51726300  0.50000000  0.17971200  1
  K  K1  1  0.32293300  0.50000000  0.40864300  1
  K  K2  1  0.48273700  0.50000000  0.82028800  1
  K  K3  1  0.67706700  0.50000000  0.59135700  1
  K  K4  1  0.01726300  0.00000000  0.17971200  1
  K  K5  1  0.82293300  0.00000000  0.40864300  1
  K  K6  1  0.98273700  0.00000000  0.82028800  1
  K  K7  1  0.17706700  0.00000000  0.59135700  1
  Na  Na8  1  0.70287300  0.00000000  0.86650300  1
  Na  Na9  1  0.29712700  0.00000000  0.13349700  1
  Na  Na10  1  0.20287300  0.50000000  0.86650300  1
  Na  Na11  1  0.79712700  0.50000000  0.13349700  1
  B  B12  1  0.50000000  0.00000000  0.50000000  1
  B  B13  1  0.00000000  0.50000000  0.00000000  1
  B  B14  1  0.00000000  0.50000000  0.50000000  1
  B  B15  1  0.50000000  0.00000000  0.00000000  1
  P  P16  1  0.16425400  0.50000000  0.08842500  1
  P  P17  1  0.53311000  0.00000000  0.37386900  1
  P  P18  1  0.83574600  0.50000000  0.91157500  1
  P  P19  1  0.46689000  0.00000000  0.62613100  1
  P  P20  1  0.66425400  0.00000000  0.08842500  1
  P  P21  1  0.03311000  0.50000000  0.37386900  1
  P  P22  1  0.33574600  0.00000000  0.91157500  1
  P  P23  1  0.96689000  0.50000000  0.62613100  1
