# generated using pymatgen
data_Rb3Hg2S3ClO12
_symmetry_space_group_name_H-M   'P 1'
_cell_length_a   8.08149000
_cell_length_b   10.04379600
_cell_length_c   10.24350348
_cell_angle_alpha   90.00000000
_cell_angle_beta   110.88255435
_cell_angle_gamma   90.00000000
_symmetry_Int_Tables_number   1
_chemical_formula_structural   Rb3Hg2S3ClO12
_chemical_formula_sum   'Rb6 Hg4 S6 Cl2 O24'
_cell_volume   776.83763636
_cell_formula_units_Z   2
loop_
 _symmetry_equiv_pos_site_id
 _symmetry_equiv_pos_as_xyz
  1  'x, y, z'
loop_
 _atom_site_type_symbol
 _atom_site_label
 _atom_site_symmetry_multiplicity
 _atom_site_fract_x
 _atom_site_fract_y
 _atom_site_fract_z
 _atom_site_occupancy
  Rb  Rb0  1  0.90181100  0.24960300  0.73212600  1
  Rb  Rb1  1  0.32409100  0.55408800  0.69866000  1
  Rb  Rb2  1  0.09818900  0.74960300  0.26787400  1
  Rb  Rb3  1  0.67590900  0.05408800  0.30134000  1
  Rb  Rb4  1  0.68355600  0.88157000  0.86894900  1
  Rb  Rb5  1  0.31644400  0.38157000  0.13105100  1
  Hg  Hg6  1  0.75985400  0.42707700  0.04722700  1
  Hg  Hg7  1  0.26483900  0.14864600  0.49949500  1
  Hg  Hg8  1  0.73516100  0.64864600  0.50050500  1
  Hg  Hg9  1  0.24014600  0.92707700  0.95277300  1
  S  S10  1  0.02933600  0.09703700  0.10836800  1
  S  S11  1  0.90618100  0.39208500  0.39112700  1
  S  S12  1  0.45117900  0.21009600  0.85973300  1
  S  S13  1  0.54882100  0.71009600  0.14026700  1
  S  S14  1  0.09381900  0.89208500  0.60887300  1
  S  S15  1  0.97066400  0.59703700  0.89163200  1
  Cl  Cl16  1  0.52410900  0.80268900  0.52001100  1
  Cl  Cl17  1  0.47589100  0.30268900  0.47998900  1
  O  O18  1  0.98440800  0.24126600  0.09264300  1
  O  O19  1  0.10111000  0.51670400  0.85596700  1
  O  O20  1  0.41184000  0.65554400  0.18857600  1
  O  O21  1  0.56450400  0.63415500  0.02021500  1
  O  O22  1  0.02228300  0.05120500  0.96144500  1
  O  O23  1  0.97771700  0.55120500  0.03855500  1
  O  O24  1  0.96217400  0.25554100  0.44568100  1
  O  O25  1  0.72415600  0.72042200  0.25607700  1
  O  O26  1  0.73475500  0.38314400  0.26823500  1
  O  O27  1  0.04237000  0.46580400  0.35820200  1
  O  O28  1  0.89889000  0.01670400  0.14403300  1
  O  O29  1  0.21222300  0.07706500  0.20960300  1
  O  O30  1  0.43549600  0.13415500  0.97978500  1
  O  O31  1  0.50286800  0.85473600  0.08987800  1
  O  O32  1  0.03782600  0.75554100  0.55431900  1
  O  O33  1  0.86713300  0.46082100  0.51199400  1
  O  O34  1  0.13286700  0.96082100  0.48800600  1
  O  O35  1  0.26524500  0.88314400  0.73176500  1
  O  O36  1  0.49713200  0.35473600  0.91012200  1
  O  O37  1  0.01559200  0.74126600  0.90735700  1
  O  O38  1  0.78777700  0.57706500  0.79039700  1
  O  O39  1  0.95763000  0.96580400  0.64179800  1
  O  O40  1  0.27584400  0.22042200  0.74392300  1
  O  O41  1  0.58816000  0.15554400  0.81142400  1
