# generated using pymatgen
data_Cs4Mg3F10
_symmetry_space_group_name_H-M   'P 1'
_cell_length_a   6.23315000
_cell_length_b   14.76504600
_cell_length_c   13.89973500
_cell_angle_alpha   90.00000000
_cell_angle_beta   90.00000000
_cell_angle_gamma   90.00000000
_symmetry_Int_Tables_number   1
_chemical_formula_structural   Cs4Mg3F10
_chemical_formula_sum   'Cs16 Mg12 F40'
_cell_volume   1279.23078732
_cell_formula_units_Z   4
loop_
 _symmetry_equiv_pos_site_id
 _symmetry_equiv_pos_as_xyz
  1  'x, y, z'
loop_
 _atom_site_type_symbol
 _atom_site_label
 _atom_site_symmetry_multiplicity
 _atom_site_fract_x
 _atom_site_fract_y
 _atom_site_fract_z
 _atom_site_occupancy
  Cs  Cs0  1  0.50000000  0.74704800  0.10781700  1
  Cs  Cs1  1  0.00000000  0.75295200  0.89218300  1
  Cs  Cs2  1  0.50000000  0.75295200  0.60781700  1
  Cs  Cs3  1  0.00000000  0.74704800  0.39218300  1
  Cs  Cs4  1  0.00000000  0.55095800  0.13861900  1
  Cs  Cs5  1  0.50000000  0.94904200  0.86138100  1
  Cs  Cs6  1  0.00000000  0.94904200  0.63861900  1
  Cs  Cs7  1  0.50000000  0.55095800  0.36138100  1
  Cs  Cs8  1  0.00000000  0.24704800  0.10781700  1
  Cs  Cs9  1  0.50000000  0.25295200  0.89218300  1
  Cs  Cs10  1  0.00000000  0.25295200  0.60781700  1
  Cs  Cs11  1  0.50000000  0.24704800  0.39218300  1
  Cs  Cs12  1  0.50000000  0.05095800  0.13861900  1
  Cs  Cs13  1  0.00000000  0.44904200  0.86138100  1
  Cs  Cs14  1  0.50000000  0.44904200  0.63861900  1
  Cs  Cs15  1  0.00000000  0.05095800  0.36138100  1
  Mg  Mg16  1  0.00000000  0.88322000  0.15757000  1
  Mg  Mg17  1  0.50000000  0.61678000  0.84243000  1
  Mg  Mg18  1  0.00000000  0.61678000  0.65757000  1
  Mg  Mg19  1  0.50000000  0.88322000  0.34243000  1
  Mg  Mg20  1  0.50000000  0.50000000  0.00000000  1
  Mg  Mg21  1  0.00000000  0.50000000  0.50000000  1
  Mg  Mg22  1  0.50000000  0.38322000  0.15757000  1
  Mg  Mg23  1  0.00000000  0.11678000  0.84243000  1
  Mg  Mg24  1  0.50000000  0.11678000  0.65757000  1
  Mg  Mg25  1  0.00000000  0.38322000  0.34243000  1
  Mg  Mg26  1  0.00000000  0.00000000  0.00000000  1
  Mg  Mg27  1  0.50000000  0.00000000  0.50000000  1
  F  F28  1  0.70947400  0.59624400  0.95971600  1
  F  F29  1  0.20947400  0.90375600  0.04028400  1
  F  F30  1  0.29052600  0.90375600  0.45971600  1
  F  F31  1  0.79052600  0.59624400  0.54028400  1
  F  F32  1  0.79052600  0.90375600  0.04028400  1
  F  F33  1  0.29052600  0.59624400  0.95971600  1
  F  F34  1  0.20947400  0.59624400  0.54028400  1
  F  F35  1  0.70947400  0.90375600  0.45971600  1
  F  F36  1  0.50000000  0.52596300  0.14272700  1
  F  F37  1  0.00000000  0.97403700  0.85727300  1
  F  F38  1  0.50000000  0.97403700  0.64272700  1
  F  F39  1  0.00000000  0.52596300  0.35727300  1
  F  F40  1  0.00000000  0.75182300  0.14983200  1
  F  F41  1  0.50000000  0.74817700  0.85016800  1
  F  F42  1  0.75000000  0.89034000  0.25000000  1
  F  F43  1  0.25000000  0.60966000  0.75000000  1
  F  F44  1  0.75000000  0.60966000  0.75000000  1
  F  F45  1  0.25000000  0.89034000  0.25000000  1
  F  F46  1  0.50000000  0.75182300  0.35016800  1
  F  F47  1  0.00000000  0.74817700  0.64983200  1
  F  F48  1  0.20947400  0.09624400  0.95971600  1
  F  F49  1  0.70947400  0.40375600  0.04028400  1
  F  F50  1  0.79052600  0.40375600  0.45971600  1
  F  F51  1  0.29052600  0.09624400  0.54028400  1
  F  F52  1  0.29052600  0.40375600  0.04028400  1
  F  F53  1  0.79052600  0.09624400  0.95971600  1
  F  F54  1  0.70947400  0.09624400  0.54028400  1
  F  F55  1  0.20947400  0.40375600  0.45971600  1
  F  F56  1  0.00000000  0.02596300  0.14272700  1
  F  F57  1  0.50000000  0.47403700  0.85727300  1
  F  F58  1  0.00000000  0.47403700  0.64272700  1
  F  F59  1  0.50000000  0.02596300  0.35727300  1
  F  F60  1  0.50000000  0.25182300  0.14983200  1
  F  F61  1  0.00000000  0.24817700  0.85016800  1
  F  F62  1  0.25000000  0.39034000  0.25000000  1
  F  F63  1  0.75000000  0.10966000  0.75000000  1
  F  F64  1  0.25000000  0.10966000  0.75000000  1
  F  F65  1  0.75000000  0.39034000  0.25000000  1
  F  F66  1  0.00000000  0.25182300  0.35016800  1
  F  F67  1  0.50000000  0.24817700  0.64983200  1
