# generated using pymatgen
data_Bi2Se3
_symmetry_space_group_name_H-M   'P 1'
_cell_length_a   4.18976606
_cell_length_b   4.18976606
_cell_length_c   30.41115216
_cell_angle_alpha   90.00000000
_cell_angle_beta   90.00000000
_cell_angle_gamma   120.00000000
_symmetry_Int_Tables_number   1
_chemical_formula_structural   Bi2Se3
_chemical_formula_sum   'Bi6 Se9'
_cell_volume   462.32039820
_cell_formula_units_Z   3
loop_
 _symmetry_equiv_pos_site_id
 _symmetry_equiv_pos_as_xyz
  1  'x, y, z'
loop_
 _atom_site_type_symbol
 _atom_site_label
 _atom_site_symmetry_multiplicity
 _atom_site_fract_x
 _atom_site_fract_y
 _atom_site_fract_z
 _atom_site_occupancy
  Bi  Bi0  1  0.33333333  0.66666667  0.06400667  1
  Bi  Bi1  1  0.33333333  0.66666667  0.26932667  1
  Bi  Bi2  1  0.00000000  0.00000000  0.39734000  1
  Bi  Bi3  1  0.00000000  0.00000000  0.60266000  1
  Bi  Bi4  1  0.66666667  0.33333333  0.73067333  1
  Bi  Bi5  1  0.66666667  0.33333333  0.93599333  1
  Se  Se6  1  0.00000000  0.00000000  0.00000000  1
  Se  Se7  1  0.66666667  0.33333333  0.11548033  1
  Se  Se8  1  0.00000000  0.00000000  0.21785300  1
  Se  Se9  1  0.66666667  0.33333333  0.33333333  1
  Se  Se10  1  0.33333333  0.66666667  0.44881367  1
  Se  Se11  1  0.66666667  0.33333333  0.55118633  1
  Se  Se12  1  0.33333333  0.66666667  0.66666667  1
  Se  Se13  1  0.00000000  0.00000000  0.78214700  1
  Se  Se14  1  0.33333333  0.66666667  0.88451967  1
