# generated using pymatgen
data_Cd(AuF6)2
_symmetry_space_group_name_H-M   'P 1'
_cell_length_a   11.43297600
_cell_length_b   9.02011600
_cell_length_c   10.36865254
_cell_angle_alpha   90.00000000
_cell_angle_beta   117.96959136
_cell_angle_gamma   90.00000000
_symmetry_Int_Tables_number   1
_chemical_formula_structural   Cd(AuF6)2
_chemical_formula_sum   'Cd4 Au8 F48'
_cell_volume   944.38947842
_cell_formula_units_Z   4
loop_
 _symmetry_equiv_pos_site_id
 _symmetry_equiv_pos_as_xyz
  1  'x, y, z'
loop_
 _atom_site_type_symbol
 _atom_site_label
 _atom_site_symmetry_multiplicity
 _atom_site_fract_x
 _atom_site_fract_y
 _atom_site_fract_z
 _atom_site_occupancy
  Cd  Cd0  1  0.00000000  0.82576500  0.25000000  1
  Cd  Cd1  1  0.50000000  0.67423500  0.75000000  1
  Cd  Cd2  1  0.50000000  0.32576500  0.25000000  1
  Cd  Cd3  1  0.00000000  0.17423500  0.75000000  1
  Au  Au4  1  0.25015200  0.00240400  0.62849100  1
  Au  Au5  1  0.75015200  0.49759600  0.12849100  1
  Au  Au6  1  0.24984800  0.49759600  0.37150900  1
  Au  Au7  1  0.74984800  0.00240400  0.87150900  1
  Au  Au8  1  0.75015200  0.50240400  0.62849100  1
  Au  Au9  1  0.25015200  0.99759600  0.12849100  1
  Au  Au10  1  0.74984800  0.99759600  0.37150900  1
  Au  Au11  1  0.24984800  0.50240400  0.87150900  1
  F  F12  1  0.36537750  0.50409050  0.77598000  1
  F  F13  1  0.13462250  0.99590950  0.22402000  1
  F  F14  1  0.13823500  0.84271400  0.49482800  1
  F  F15  1  0.63465150  0.64787250  0.49247300  1
  F  F16  1  0.63465150  0.35212750  0.99247300  1
  F  F17  1  0.36268250  0.99546450  0.53699900  1
  F  F18  1  0.86268250  0.50453550  0.03699900  1
  F  F19  1  0.36537750  0.49590950  0.27598000  1
  F  F20  1  0.63311950  0.85065250  0.73125000  1
  F  F21  1  0.86176500  0.84271400  0.00517200  1
  F  F22  1  0.36176500  0.65728600  0.50517200  1
  F  F23  1  0.63823500  0.65728600  0.99482800  1
  F  F24  1  0.35864200  0.84508400  0.25942200  1
  F  F25  1  0.13731750  0.50453550  0.46300100  1
  F  F26  1  0.86688050  0.64934750  0.26875000  1
  F  F27  1  0.63731750  0.99546450  0.96300100  1
  F  F28  1  0.13311950  0.64934750  0.23125000  1
  F  F29  1  0.14135800  0.34508400  0.24057800  1
  F  F30  1  0.36688050  0.85065250  0.76875000  1
  F  F31  1  0.14135800  0.65491600  0.74057800  1
  F  F32  1  0.35864200  0.15491600  0.75942200  1
  F  F33  1  0.86534850  0.14787250  0.00752700  1
  F  F34  1  0.13462250  0.00409050  0.72402000  1
  F  F35  1  0.86534850  0.85212750  0.50752700  1
  F  F36  1  0.86537750  0.00409050  0.77598000  1
  F  F37  1  0.63462250  0.49590950  0.22402000  1
  F  F38  1  0.63823500  0.34271400  0.49482800  1
  F  F39  1  0.13465150  0.14787250  0.49247300  1
  F  F40  1  0.13465150  0.85212750  0.99247300  1
  F  F41  1  0.86268250  0.49546450  0.53699900  1
  F  F42  1  0.36268250  0.00453550  0.03699900  1
  F  F43  1  0.86537750  0.99590950  0.27598000  1
  F  F44  1  0.13311950  0.35065250  0.73125000  1
  F  F45  1  0.36176500  0.34271400  0.00517200  1
  F  F46  1  0.86176500  0.15728600  0.50517200  1
  F  F47  1  0.13823500  0.15728600  0.99482800  1
  F  F48  1  0.85864200  0.34508400  0.25942200  1
  F  F49  1  0.63731750  0.00453550  0.46300100  1
  F  F50  1  0.36688050  0.14934750  0.26875000  1
  F  F51  1  0.13731750  0.49546450  0.96300100  1
  F  F52  1  0.63311950  0.14934750  0.23125000  1
  F  F53  1  0.64135800  0.84508400  0.24057800  1
  F  F54  1  0.86688050  0.35065250  0.76875000  1
  F  F55  1  0.64135800  0.15491600  0.74057800  1
  F  F56  1  0.85864200  0.65491600  0.75942200  1
  F  F57  1  0.36534850  0.64787250  0.00752700  1
  F  F58  1  0.63462250  0.50409050  0.72402000  1
  F  F59  1  0.36534850  0.35212750  0.50752700  1
