# generated using pymatgen
data_AlPO4
_symmetry_space_group_name_H-M   'P 1'
_cell_length_a   9.90434400
_cell_length_b   8.59217800
_cell_length_c   14.09458103
_cell_angle_alpha   90.00000000
_cell_angle_beta   110.36347735
_cell_angle_gamma   90.00000000
_symmetry_Int_Tables_number   1
_chemical_formula_structural   AlPO4
_chemical_formula_sum   'Al10 P10 O40'
_cell_volume   1124.48658444
_cell_formula_units_Z   10
loop_
 _symmetry_equiv_pos_site_id
 _symmetry_equiv_pos_as_xyz
  1  'x, y, z'
loop_
 _atom_site_type_symbol
 _atom_site_label
 _atom_site_symmetry_multiplicity
 _atom_site_fract_x
 _atom_site_fract_y
 _atom_site_fract_z
 _atom_site_occupancy
  Al  Al0  1  0.43314600  0.63889400  0.87579100  1
  Al  Al1  1  0.27550800  0.63580600  0.55538700  1
  Al  Al2  1  0.83652500  0.63824700  0.26954500  1
  Al  Al3  1  0.16347500  0.13824700  0.73045500  1
  Al  Al4  1  0.41855400  0.63367200  0.26896800  1
  Al  Al5  1  0.58144600  0.13367200  0.73103200  1
  Al  Al6  1  0.72449200  0.13580600  0.44461300  1
  Al  Al7  1  0.16277300  0.13723400  0.34123100  1
  Al  Al8  1  0.56685400  0.13889400  0.12420900  1
  Al  Al9  1  0.83722700  0.63723400  0.65876900  1
  P  P10  1  0.44493200  0.01655800  0.89228600  1
  P  P11  1  0.29012000  0.00920400  0.56901000  1
  P  P12  1  0.14513600  0.50841100  0.71082700  1
  P  P13  1  0.42883100  0.01249400  0.27990200  1
  P  P14  1  0.85486400  0.00841100  0.28917300  1
  P  P15  1  0.55506800  0.51655800  0.10771400  1
  P  P16  1  0.84893700  0.01082100  0.67793900  1
  P  P17  1  0.15106300  0.51082100  0.32206100  1
  P  P18  1  0.70988000  0.50920400  0.43099000  1
  P  P19  1  0.57116900  0.51249400  0.72009800  1
  O  O20  1  0.48782300  0.55738200  0.99570900  1
  O  O21  1  0.70728400  0.57961200  0.70839500  1
  O  O22  1  0.57913100  0.34047200  0.11914200  1
  O  O23  1  0.44353800  0.07247600  0.62089800  1
  O  O24  1  0.51217700  0.05738200  0.00429100  1
  O  O25  1  0.29898600  0.10135900  0.84763600  1
  O  O26  1  0.83190100  0.83387800  0.30218500  1
  O  O27  1  0.74448600  0.05586200  0.73210800  1
  O  O28  1  0.25551400  0.55586200  0.26789200  1
  O  O29  1  0.84765800  0.09670700  0.38284900  1
  O  O30  1  0.44704200  0.08654600  0.18570400  1
  O  O31  1  0.55646200  0.57247600  0.37910200  1
  O  O32  1  0.70174400  0.33595800  0.45513800  1
  O  O33  1  0.54810000  0.06700300  0.83792500  1
  O  O34  1  0.21101000  0.56255000  0.43312900  1
  O  O35  1  0.41241500  0.83603900  0.26598000  1
  O  O36  1  0.78119000  0.60101300  0.52876200  1
  O  O37  1  0.79979800  0.52631400  0.36186100  1
  O  O38  1  0.16809900  0.33387800  0.69781500  1
  O  O39  1  0.20020200  0.02631400  0.63813900  1
  O  O40  1  0.15234200  0.59670700  0.61715100  1
  O  O41  1  0.26140800  0.56755500  0.80755600  1
  O  O42  1  0.99389900  0.09065700  0.73344000  1
  O  O43  1  0.73859200  0.06755500  0.19244400  1
  O  O44  1  0.55295800  0.58654600  0.81429600  1
  O  O45  1  0.00610100  0.59065700  0.26656000  1
  O  O46  1  0.12832100  0.33453700  0.31724800  1
  O  O47  1  0.21881000  0.10101300  0.47123800  1
  O  O48  1  0.99675700  0.53424300  0.71989300  1
  O  O49  1  0.29271600  0.07961200  0.29160500  1
  O  O50  1  0.00324300  0.03424300  0.28010700  1
  O  O51  1  0.87167900  0.83453700  0.68275200  1
  O  O52  1  0.78899000  0.06255000  0.56687100  1
  O  O53  1  0.45190000  0.56700300  0.16207500  1
  O  O54  1  0.55998200  0.04849600  0.37521800  1
  O  O55  1  0.44001800  0.54849600  0.62478200  1
  O  O56  1  0.58758500  0.33603900  0.73402000  1
  O  O57  1  0.29825600  0.83595800  0.54486200  1
  O  O58  1  0.42086900  0.84047200  0.88085800  1
  O  O59  1  0.70101400  0.60135900  0.15236400  1
