# generated using pymatgen
data_Be(PO3)2
_symmetry_space_group_name_H-M   'P 1'
_cell_length_a   10.12709800
_cell_length_b   10.29154000
_cell_length_c   8.89171800
_cell_angle_alpha   90.00000000
_cell_angle_beta   90.00000000
_cell_angle_gamma   90.00000000
_symmetry_Int_Tables_number   1
_chemical_formula_structural   Be(PO3)2
_chemical_formula_sum   'Be8 P16 O48'
_cell_volume   926.72538546
_cell_formula_units_Z   8
loop_
 _symmetry_equiv_pos_site_id
 _symmetry_equiv_pos_as_xyz
  1  'x, y, z'
loop_
 _atom_site_type_symbol
 _atom_site_label
 _atom_site_symmetry_multiplicity
 _atom_site_fract_x
 _atom_site_fract_y
 _atom_site_fract_z
 _atom_site_occupancy
  Be  Be0  1  0.26842350  0.09625950  0.77789300  1
  Be  Be1  1  0.26842350  0.90374050  0.22210700  1
  Be  Be2  1  0.73157650  0.90374050  0.27789300  1
  Be  Be3  1  0.73157650  0.09625950  0.72210700  1
  Be  Be4  1  0.76842350  0.59625950  0.77789300  1
  Be  Be5  1  0.76842350  0.40374050  0.22210700  1
  Be  Be6  1  0.23157650  0.40374050  0.27789300  1
  Be  Be7  1  0.23157650  0.59625950  0.72210700  1
  P  P8  1  0.93179500  0.00000000  0.50000000  1
  P  P9  1  0.38283050  0.72736850  0.97639400  1
  P  P10  1  0.06820500  0.00000000  0.00000000  1
  P  P11  1  0.61716950  0.72736850  0.52360600  1
  P  P12  1  0.38283050  0.27263150  0.02360600  1
  P  P13  1  0.50000000  0.90942600  0.75000000  1
  P  P14  1  0.50000000  0.09057400  0.25000000  1
  P  P15  1  0.61716950  0.27263150  0.47639400  1
  P  P16  1  0.43179500  0.50000000  0.50000000  1
  P  P17  1  0.88283050  0.22736850  0.97639400  1
  P  P18  1  0.56820500  0.50000000  0.00000000  1
  P  P19  1  0.11716950  0.22736850  0.52360600  1
  P  P20  1  0.88283050  0.77263150  0.02360600  1
  P  P21  1  0.00000000  0.40942600  0.75000000  1
  P  P22  1  0.00000000  0.59057400  0.25000000  1
  P  P23  1  0.11716950  0.77263150  0.47639400  1
  O  O24  1  0.52914400  0.38527500  0.54790800  1
  O  O25  1  0.66448800  0.19629800  0.60722500  1
  O  O26  1  0.62698550  0.01822250  0.23225800  1
  O  O27  1  0.37301450  0.01822250  0.26774200  1
  O  O28  1  0.78146100  0.82568800  0.12895800  1
  O  O29  1  0.62698550  0.98177750  0.76774200  1
  O  O30  1  0.33551200  0.80370200  0.10722500  1
  O  O31  1  0.52914400  0.61472500  0.45209200  1
  O  O32  1  0.47085600  0.61472500  0.04790800  1
  O  O33  1  0.85924350  0.03194550  0.64131400  1
  O  O34  1  0.47085600  0.38527500  0.95209200  1
  O  O35  1  0.50600050  0.81130850  0.60964300  1
  O  O36  1  0.85924350  0.96805450  0.35868600  1
  O  O37  1  0.78146100  0.17431200  0.87104200  1
  O  O38  1  0.33551200  0.19629800  0.89277500  1
  O  O39  1  0.66448800  0.80370200  0.39277500  1
  O  O40  1  0.37301450  0.98177750  0.73225800  1
  O  O41  1  0.21853900  0.82568800  0.37104200  1
  O  O42  1  0.21853900  0.17431200  0.62895800  1
  O  O43  1  0.49399950  0.81130850  0.89035700  1
  O  O44  1  0.14075650  0.03194550  0.85868600  1
  O  O45  1  0.14075650  0.96805450  0.14131400  1
  O  O46  1  0.49399950  0.18869150  0.10964300  1
  O  O47  1  0.50600050  0.18869150  0.39035700  1
  O  O48  1  0.02914400  0.88527500  0.54790800  1
  O  O49  1  0.16448800  0.69629800  0.60722500  1
  O  O50  1  0.12698550  0.51822250  0.23225800  1
  O  O51  1  0.87301450  0.51822250  0.26774200  1
  O  O52  1  0.28146100  0.32568800  0.12895800  1
  O  O53  1  0.12698550  0.48177750  0.76774200  1
  O  O54  1  0.83551200  0.30370200  0.10722500  1
  O  O55  1  0.02914400  0.11472500  0.45209200  1
  O  O56  1  0.97085600  0.11472500  0.04790800  1
  O  O57  1  0.35924350  0.53194550  0.64131400  1
  O  O58  1  0.97085600  0.88527500  0.95209200  1
  O  O59  1  0.00600050  0.31130850  0.60964300  1
  O  O60  1  0.35924350  0.46805450  0.35868600  1
  O  O61  1  0.28146100  0.67431200  0.87104200  1
  O  O62  1  0.83551200  0.69629800  0.89277500  1
  O  O63  1  0.16448800  0.30370200  0.39277500  1
  O  O64  1  0.87301450  0.48177750  0.73225800  1
  O  O65  1  0.71853900  0.32568800  0.37104200  1
  O  O66  1  0.71853900  0.67431200  0.62895800  1
  O  O67  1  0.99399950  0.31130850  0.89035700  1
  O  O68  1  0.64075650  0.53194550  0.85868600  1
  O  O69  1  0.64075650  0.46805450  0.14131400  1
  O  O70  1  0.99399950  0.68869150  0.10964300  1
  O  O71  1  0.00600050  0.68869150  0.39035700  1
