# generated using pymatgen
data_Cu3SbS4
_symmetry_space_group_name_H-M   'P 1'
_cell_length_a   5.41643400
_cell_length_b   5.41643400
_cell_length_c   10.81634800
_cell_angle_alpha   90.00000000
_cell_angle_beta   90.00000000
_cell_angle_gamma   90.00000000
_symmetry_Int_Tables_number   1
_chemical_formula_structural   Cu3SbS4
_chemical_formula_sum   'Cu6 Sb2 S8'
_cell_volume   317.32739224
_cell_formula_units_Z   2
loop_
 _symmetry_equiv_pos_site_id
 _symmetry_equiv_pos_as_xyz
  1  'x, y, z'
loop_
 _atom_site_type_symbol
 _atom_site_label
 _atom_site_symmetry_multiplicity
 _atom_site_fract_x
 _atom_site_fract_y
 _atom_site_fract_z
 _atom_site_occupancy
  Cu  Cu0  1  0.50000000  0.00000000  0.25000000  1
  Cu  Cu1  1  0.00000000  0.50000000  0.25000000  1
  Cu  Cu2  1  0.50000000  0.50000000  0.00000000  1
  Cu  Cu3  1  0.00000000  0.50000000  0.75000000  1
  Cu  Cu4  1  0.50000000  0.00000000  0.75000000  1
  Cu  Cu5  1  0.00000000  0.00000000  0.50000000  1
  Sb  Sb6  1  0.00000000  0.00000000  0.00000000  1
  Sb  Sb7  1  0.50000000  0.50000000  0.50000000  1
  S  S8  1  0.76320350  0.76320350  0.36768650  1
  S  S9  1  0.26320350  0.73679650  0.13231350  1
  S  S10  1  0.73679650  0.26320350  0.13231350  1
  S  S11  1  0.23679650  0.23679650  0.36768650  1
  S  S12  1  0.26320350  0.26320350  0.86768650  1
  S  S13  1  0.76320350  0.23679650  0.63231350  1
  S  S14  1  0.23679650  0.76320350  0.63231350  1
  S  S15  1  0.73679650  0.73679650  0.86768650  1
