# generated using pymatgen
data_Ge3(BiTe3)2
_symmetry_space_group_name_H-M   'P 1'
_cell_length_a   4.31751199
_cell_length_b   4.31751199
_cell_length_c   65.69195206
_cell_angle_alpha   90.00000000
_cell_angle_beta   90.00000000
_cell_angle_gamma   120.00000000
_symmetry_Int_Tables_number   1
_chemical_formula_structural   Ge3(BiTe3)2
_chemical_formula_sum   'Ge9 Bi6 Te18'
_cell_volume   1060.49812298
_cell_formula_units_Z   3
loop_
 _symmetry_equiv_pos_site_id
 _symmetry_equiv_pos_as_xyz
  1  'x, y, z'
loop_
 _atom_site_type_symbol
 _atom_site_label
 _atom_site_symmetry_multiplicity
 _atom_site_fract_x
 _atom_site_fract_y
 _atom_site_fract_z
 _atom_site_occupancy
  Ge  Ge0  1  0.33333333  0.66666667  0.21262467  1
  Ge  Ge1  1  0.33333333  0.66666667  0.12195467  1
  Ge  Ge2  1  0.00000000  0.00000000  0.26976300  1
  Ge  Ge3  1  0.00000000  0.00000000  0.54595800  1
  Ge  Ge4  1  0.00000000  0.00000000  0.45528800  1
  Ge  Ge5  1  0.66666667  0.33333333  0.60309633  1
  Ge  Ge6  1  0.66666667  0.33333333  0.87929133  1
  Ge  Ge7  1  0.66666667  0.33333333  0.78862133  1
  Ge  Ge8  1  0.33333333  0.66666667  0.93642967  1
  Bi  Bi9  1  0.66666667  0.33333333  0.33075033  1
  Bi  Bi10  1  0.66666667  0.33333333  0.06157233  1
  Bi  Bi11  1  0.33333333  0.66666667  0.66408367  1
  Bi  Bi12  1  0.33333333  0.66666667  0.39490567  1
  Bi  Bi13  1  0.00000000  0.00000000  0.99741700  1
  Bi  Bi14  1  0.00000000  0.00000000  0.72823900  1
  Te  Te15  1  0.66666667  0.33333333  0.24878333  1
  Te  Te16  1  0.66666667  0.33333333  0.14271133  1
  Te  Te17  1  0.33333333  0.66666667  0.30334167  1
  Te  Te18  1  0.33333333  0.66666667  0.02919267  1
  Te  Te19  1  0.00000000  0.00000000  0.19165100  1
  Te  Te20  1  0.00000000  0.00000000  0.08865500  1
  Te  Te21  1  0.33333333  0.66666667  0.58211667  1
  Te  Te22  1  0.33333333  0.66666667  0.47604467  1
  Te  Te23  1  0.00000000  0.00000000  0.63667500  1
  Te  Te24  1  0.00000000  0.00000000  0.36252600  1
  Te  Te25  1  0.66666667  0.33333333  0.52498433  1
  Te  Te26  1  0.66666667  0.33333333  0.42198833  1
  Te  Te27  1  0.00000000  0.00000000  0.91545000  1
  Te  Te28  1  0.00000000  0.00000000  0.80937800  1
  Te  Te29  1  0.66666667  0.33333333  0.97000833  1
  Te  Te30  1  0.66666667  0.33333333  0.69585933  1
  Te  Te31  1  0.33333333  0.66666667  0.85831767  1
  Te  Te32  1  0.33333333  0.66666667  0.75532167  1
