# generated using pymatgen
data_RbSn2Br5
_symmetry_space_group_name_H-M   'P 1'
_cell_length_a   8.53904000
_cell_length_b   8.53904000
_cell_length_c   15.27063800
_cell_angle_alpha   90.00000000
_cell_angle_beta   90.00000000
_cell_angle_gamma   90.00000000
_symmetry_Int_Tables_number   1
_chemical_formula_structural   RbSn2Br5
_chemical_formula_sum   'Rb4 Sn8 Br20'
_cell_volume   1113.46168684
_cell_formula_units_Z   4
loop_
 _symmetry_equiv_pos_site_id
 _symmetry_equiv_pos_as_xyz
  1  'x, y, z'
loop_
 _atom_site_type_symbol
 _atom_site_label
 _atom_site_symmetry_multiplicity
 _atom_site_fract_x
 _atom_site_fract_y
 _atom_site_fract_z
 _atom_site_occupancy
  Rb  Rb0  1  0.00000000  0.00000000  0.25000000  1
  Rb  Rb1  1  0.50000000  0.50000000  0.25000000  1
  Rb  Rb2  1  0.50000000  0.50000000  0.75000000  1
  Rb  Rb3  1  0.00000000  0.00000000  0.75000000  1
  Sn  Sn4  1  0.32077600  0.17922400  0.00000000  1
  Sn  Sn5  1  0.82077600  0.32077600  0.00000000  1
  Sn  Sn6  1  0.67922400  0.82077600  0.00000000  1
  Sn  Sn7  1  0.67922400  0.17922400  0.50000000  1
  Sn  Sn8  1  0.82077600  0.67922400  0.50000000  1
  Sn  Sn9  1  0.32077600  0.82077600  0.50000000  1
  Sn  Sn10  1  0.17922400  0.32077600  0.50000000  1
  Sn  Sn11  1  0.17922400  0.67922400  0.00000000  1
  Br  Br12  1  0.16085650  0.33914350  0.13129350  1
  Br  Br13  1  0.66085650  0.16085650  0.13129350  1
  Br  Br14  1  0.33914350  0.16085650  0.36870650  1
  Br  Br15  1  0.83914350  0.66085650  0.13129350  1
  Br  Br16  1  0.33914350  0.83914350  0.13129350  1
  Br  Br17  1  0.83914350  0.33914350  0.36870650  1
  Br  Br18  1  0.66085650  0.83914350  0.36870650  1
  Br  Br19  1  0.00000000  0.00000000  0.00000000  1
  Br  Br20  1  0.16085650  0.66085650  0.36870650  1
  Br  Br21  1  0.50000000  0.50000000  0.00000000  1
  Br  Br22  1  0.66085650  0.83914350  0.63129350  1
  Br  Br23  1  0.16085650  0.66085650  0.63129350  1
  Br  Br24  1  0.83914350  0.66085650  0.86870650  1
  Br  Br25  1  0.33914350  0.16085650  0.63129350  1
  Br  Br26  1  0.83914350  0.33914350  0.63129350  1
  Br  Br27  1  0.33914350  0.83914350  0.86870650  1
  Br  Br28  1  0.16085650  0.33914350  0.86870650  1
  Br  Br29  1  0.50000000  0.50000000  0.50000000  1
  Br  Br30  1  0.66085650  0.16085650  0.86870650  1
  Br  Br31  1  0.00000000  0.00000000  0.50000000  1
