# generated using pymatgen
data_Nb3Se12I
_symmetry_space_group_name_H-M   'P 1'
_cell_length_a   9.78490400
_cell_length_b   9.78490400
_cell_length_c   19.41691400
_cell_angle_alpha   90.00000000
_cell_angle_beta   90.00000000
_cell_angle_gamma   90.00000000
_symmetry_Int_Tables_number   1
_chemical_formula_structural   Nb3Se12I
_chemical_formula_sum   'Nb12 Se48 I4'
_cell_volume   1859.05973788
_cell_formula_units_Z   4
loop_
 _symmetry_equiv_pos_site_id
 _symmetry_equiv_pos_as_xyz
  1  'x, y, z'
loop_
 _atom_site_type_symbol
 _atom_site_label
 _atom_site_symmetry_multiplicity
 _atom_site_fract_x
 _atom_site_fract_y
 _atom_site_fract_z
 _atom_site_occupancy
  Nb  Nb0  1  0.00000000  0.50000000  0.58940500  1
  Nb  Nb1  1  0.00000000  0.50000000  0.08940500  1
  Nb  Nb2  1  0.50000000  0.00000000  0.57210700  1
  Nb  Nb3  1  0.00000000  0.50000000  0.76043700  1
  Nb  Nb4  1  0.50000000  0.00000000  0.73956300  1
  Nb  Nb5  1  0.50000000  0.00000000  0.07210700  1
  Nb  Nb6  1  0.00000000  0.50000000  0.26043700  1
  Nb  Nb7  1  0.00000000  0.50000000  0.42789300  1
  Nb  Nb8  1  0.50000000  0.00000000  0.23956300  1
  Nb  Nb9  1  0.00000000  0.50000000  0.92789300  1
  Nb  Nb10  1  0.50000000  0.00000000  0.91059500  1
  Nb  Nb11  1  0.50000000  0.00000000  0.41059500  1
  Se  Se12  1  0.54522100  0.21020500  0.31872900  1
  Se  Se13  1  0.95074600  0.71111900  0.83773700  1
  Se  Se14  1  0.54925400  0.21111900  0.66226300  1
  Se  Se15  1  0.81868400  0.37422700  0.84826300  1
  Se  Se16  1  0.37422700  0.18131600  0.15173700  1
  Se  Se17  1  0.78096800  0.48242700  0.50897500  1
  Se  Se18  1  0.45074600  0.78888100  0.66226300  1
  Se  Se19  1  0.04522100  0.28979500  0.18127100  1
  Se  Se20  1  0.95477900  0.71020500  0.18127100  1
  Se  Se21  1  0.04925400  0.28888100  0.83773700  1
  Se  Se22  1  0.45477900  0.78979500  0.31872900  1
  Se  Se23  1  0.12577300  0.68131600  0.34826300  1
  Se  Se24  1  0.89502800  0.69552600  0.50910500  1
  Se  Se25  1  0.12285500  0.68317700  0.66918200  1
  Se  Se26  1  0.98242700  0.28096800  0.00897500  1
  Se  Se27  1  0.28096800  0.01757300  0.99102500  1
  Se  Se28  1  0.78979500  0.54522100  0.68127100  1
  Se  Se29  1  0.31682300  0.12285500  0.33081800  1
  Se  Se30  1  0.71903200  0.98242700  0.99102500  1
  Se  Se31  1  0.28979500  0.95477900  0.81872900  1
  Se  Se32  1  0.51757300  0.78096800  0.49102500  1
  Se  Se33  1  0.31868400  0.12577300  0.65173700  1
  Se  Se34  1  0.21903200  0.51757300  0.50897500  1
  Se  Se35  1  0.71020500  0.04522100  0.81872900  1
  Se  Se36  1  0.62285500  0.81682300  0.83081800  1
  Se  Se37  1  0.18131600  0.62577300  0.84826300  1
  Se  Se38  1  0.81682300  0.37714500  0.16918200  1
  Se  Se39  1  0.21020500  0.45477900  0.68127100  1
  Se  Se40  1  0.18317700  0.62285500  0.16918200  1
  Se  Se41  1  0.39502800  0.80447400  0.99089500  1
  Se  Se42  1  0.68131600  0.87422700  0.65173700  1
  Se  Se43  1  0.19552600  0.39502800  0.00910500  1
  Se  Se44  1  0.48242700  0.21903200  0.49102500  1
  Se  Se45  1  0.21111900  0.45074600  0.33773700  1
  Se  Se46  1  0.87714500  0.31682300  0.66918200  1
  Se  Se47  1  0.60497200  0.19552600  0.99089500  1
  Se  Se48  1  0.28888100  0.95074600  0.16226300  1
  Se  Se49  1  0.71111900  0.04925400  0.16226300  1
  Se  Se50  1  0.87422700  0.31868400  0.34826300  1
  Se  Se51  1  0.62577300  0.81868400  0.15173700  1
  Se  Se52  1  0.01757300  0.71903200  0.00897500  1
  Se  Se53  1  0.69552600  0.10497200  0.49089500  1
  Se  Se54  1  0.10497200  0.30447400  0.50910500  1
  Se  Se55  1  0.37714500  0.18317700  0.83081800  1
  Se  Se56  1  0.78888100  0.54925400  0.33773700  1
  Se  Se57  1  0.30447400  0.89502800  0.49089500  1
  Se  Se58  1  0.80447400  0.60497200  0.00910500  1
  Se  Se59  1  0.68317700  0.87714500  0.33081800  1
  I  I60  1  0.50000000  0.50000000  0.86999600  1
  I  I61  1  0.00000000  0.00000000  0.36999600  1
  I  I62  1  0.50000000  0.50000000  0.13000400  1
  I  I63  1  0.00000000  0.00000000  0.63000400  1
