# generated using pymatgen
data_LiB6C
_symmetry_space_group_name_H-M   'P 1'
_cell_length_a   5.65162200
_cell_length_b   9.01494200
_cell_length_c   4.70463500
_cell_angle_alpha   90.00000000
_cell_angle_beta   90.00000000
_cell_angle_gamma   90.00000000
_symmetry_Int_Tables_number   1
_chemical_formula_structural   LiB6C
_chemical_formula_sum   'Li4 B24 C4'
_cell_volume   239.69665814
_cell_formula_units_Z   4
loop_
 _symmetry_equiv_pos_site_id
 _symmetry_equiv_pos_as_xyz
  1  'x, y, z'
loop_
 _atom_site_type_symbol
 _atom_site_label
 _atom_site_symmetry_multiplicity
 _atom_site_fract_x
 _atom_site_fract_y
 _atom_site_fract_z
 _atom_site_occupancy
  Li  Li0  1  0.67962350  0.20760250  0.50000000  1
  Li  Li1  1  0.67962350  0.79239750  0.50000000  1
  Li  Li2  1  0.17962350  0.70760250  0.50000000  1
  Li  Li3  1  0.17962350  0.29239750  0.50000000  1
  B  B4  1  0.74233100  0.00000000  0.81710200  1
  B  B5  1  0.49996500  0.40230400  0.69378800  1
  B  B6  1  0.49996500  0.59769600  0.69378800  1
  B  B7  1  0.25654000  0.00000000  0.18345800  1
  B  B8  1  0.33708350  0.66941750  0.00000000  1
  B  B9  1  0.49996500  0.59769600  0.30621200  1
  B  B10  1  0.66175900  0.66889800  0.00000000  1
  B  B11  1  0.33708350  0.33058250  0.00000000  1
  B  B12  1  0.49996500  0.40230400  0.30621200  1
  B  B13  1  0.74233100  0.00000000  0.18289800  1
  B  B14  1  0.66175900  0.33110200  0.00000000  1
  B  B15  1  0.25654000  0.00000000  0.81654200  1
  B  B16  1  0.24233100  0.50000000  0.81710200  1
  B  B17  1  0.99996500  0.90230400  0.69378800  1
  B  B18  1  0.99996500  0.09769600  0.69378800  1
  B  B19  1  0.75654000  0.50000000  0.18345800  1
  B  B20  1  0.83708350  0.16941750  0.00000000  1
  B  B21  1  0.99996500  0.09769600  0.30621200  1
  B  B22  1  0.16175900  0.16889800  0.00000000  1
  B  B23  1  0.83708350  0.83058250  0.00000000  1
  B  B24  1  0.99996500  0.90230400  0.30621200  1
  B  B25  1  0.24233100  0.50000000  0.18289800  1
  B  B26  1  0.16175900  0.83110200  0.00000000  1
  B  B27  1  0.75654000  0.50000000  0.81654200  1
  C  C28  1  0.49803200  0.00000000  0.64651200  1
  C  C29  1  0.49803200  0.00000000  0.35348800  1
  C  C30  1  0.99803200  0.50000000  0.64651200  1
  C  C31  1  0.99803200  0.50000000  0.35348800  1
