# generated using pymatgen
data_NaLiCO3
_symmetry_space_group_name_H-M   'P 1'
_cell_length_a   14.51381705
_cell_length_b   14.51381705
_cell_length_c   3.36094200
_cell_angle_alpha   90.00000000
_cell_angle_beta   90.00000000
_cell_angle_gamma   120.00000000
_symmetry_Int_Tables_number   1
_chemical_formula_structural   NaLiCO3
_chemical_formula_sum   'Na9 Li9 C9 O27'
_cell_volume   613.13334901
_cell_formula_units_Z   9
loop_
 _symmetry_equiv_pos_site_id
 _symmetry_equiv_pos_as_xyz
  1  'x, y, z'
loop_
 _atom_site_type_symbol
 _atom_site_label
 _atom_site_symmetry_multiplicity
 _atom_site_fract_x
 _atom_site_fract_y
 _atom_site_fract_z
 _atom_site_occupancy
  Na  Na0  1  0.44225800  0.24065600  0.50000000  1
  Na  Na1  1  0.78671700  0.90871800  0.50000000  1
  Na  Na2  1  0.41142700  0.52674800  0.50000000  1
  Na  Na3  1  0.79839800  0.55774200  0.50000000  1
  Na  Na4  1  0.75934400  0.20160200  0.50000000  1
  Na  Na5  1  0.09128200  0.87799900  0.50000000  1
  Na  Na6  1  0.47325200  0.88467900  0.50000000  1
  Na  Na7  1  0.11532100  0.58857300  0.50000000  1
  Na  Na8  1  0.12200100  0.21328300  0.50000000  1
  Li  Li9  1  0.23453100  0.08028900  0.00000000  1
  Li  Li10  1  0.24682000  0.80749900  0.00000000  1
  Li  Li11  1  0.89293000  0.43344800  0.00000000  1
  Li  Li12  1  0.19250100  0.43932100  0.00000000  1
  Li  Li13  1  0.54051800  0.10707000  0.00000000  1
  Li  Li14  1  0.84575800  0.76546900  0.00000000  1
  Li  Li15  1  0.56655200  0.45948200  0.00000000  1
  Li  Li16  1  0.91971100  0.15424200  0.00000000  1
  Li  Li17  1  0.56067900  0.75318000  0.00000000  1
  C  C18  1  0.34693600  0.00108000  0.50000000  1
  C  C19  1  0.32220800  0.32472000  0.00000000  1
  C  C20  1  0.99892000  0.34585600  0.50000000  1
  C  C21  1  0.66666667  0.33333333  0.00000000  1
  C  C22  1  0.65414400  0.65306400  0.50000000  1
  C  C23  1  0.00251200  0.67779200  0.00000000  1
  C  C24  1  0.67528000  0.99748800  0.00000000  1
  C  C25  1  0.33333333  0.66666667  0.00000000  1
  C  C26  1  0.00000000  0.00000000  0.00000000  1
  O  O27  1  0.31555300  0.23187600  0.00000000  1
  O  O28  1  0.42606900  0.75277300  0.00000000  1
  O  O29  1  0.08320400  0.98863500  0.00000000  1
  O  O30  1  0.23590400  0.33114100  0.00000000  1
  O  O31  1  0.41483100  0.41054100  0.00000000  1
  O  O32  1  0.44789200  0.07232900  0.50000000  1
  O  O33  1  0.62443700  0.55210800  0.50000000  1
  O  O34  1  0.09999100  0.41638700  0.50000000  1
  O  O35  1  0.27644900  0.03163300  0.50000000  1
  O  O36  1  0.75518400  0.72355100  0.50000000  1
  O  O37  1  0.91632300  0.68444700  0.00000000  1
  O  O38  1  0.24722700  0.67329600  0.00000000  1
  O  O39  1  0.01136500  0.09456900  0.00000000  1
  O  O40  1  0.58945900  0.00429000  0.00000000  1
  O  O41  1  0.57460400  0.32839300  0.00000000  1
  O  O42  1  0.32670400  0.57393100  0.00000000  1
  O  O43  1  0.92767100  0.37556300  0.50000000  1
  O  O44  1  0.75378900  0.42539600  0.00000000  1
  O  O45  1  0.99571000  0.58516900  0.00000000  1
  O  O46  1  0.76812400  0.08367700  0.00000000  1
  O  O47  1  0.58361300  0.68360400  0.50000000  1
  O  O48  1  0.90543100  0.91679600  0.00000000  1
  O  O49  1  0.31639600  0.90000900  0.50000000  1
  O  O50  1  0.96836700  0.24481600  0.50000000  1
  O  O51  1  0.67160700  0.24621100  0.00000000  1
  O  O52  1  0.09523700  0.76409600  0.00000000  1
  O  O53  1  0.66885900  0.90476300  0.00000000  1
