# generated using pymatgen
data_Cs2Ga3As5O18
_symmetry_space_group_name_H-M   'P 1'
_cell_length_a   27.56841600
_cell_length_b   5.20441400
_cell_length_c   12.72945883
_cell_angle_alpha   90.00000000
_cell_angle_beta   93.98568273
_cell_angle_gamma   90.00000000
_symmetry_Int_Tables_number   1
_chemical_formula_structural   Cs2Ga3As5O18
_chemical_formula_sum   'Cs8 Ga12 As20 O72'
_cell_volume   1821.97307934
_cell_formula_units_Z   4
loop_
 _symmetry_equiv_pos_site_id
 _symmetry_equiv_pos_as_xyz
  1  'x, y, z'
loop_
 _atom_site_type_symbol
 _atom_site_label
 _atom_site_symmetry_multiplicity
 _atom_site_fract_x
 _atom_site_fract_y
 _atom_site_fract_z
 _atom_site_occupancy
  Cs  Cs0  1  0.87136250  0.44550650  0.66057200  1
  Cs  Cs1  1  0.62863750  0.05449350  0.33942800  1
  Cs  Cs2  1  0.62863750  0.94550650  0.83942800  1
  Cs  Cs3  1  0.87136250  0.55449350  0.16057200  1
  Cs  Cs4  1  0.37136250  0.94550650  0.66057200  1
  Cs  Cs5  1  0.12863750  0.55449350  0.33942800  1
  Cs  Cs6  1  0.12863750  0.44550650  0.83942800  1
  Cs  Cs7  1  0.37136250  0.05449350  0.16057200  1
  Ga  Ga8  1  0.69941450  0.56843750  0.11397400  1
  Ga  Ga9  1  0.80058550  0.93156250  0.88602600  1
  Ga  Ga10  1  0.69941450  0.43156250  0.61397400  1
  Ga  Ga11  1  0.00000000  0.50000000  0.50000000  1
  Ga  Ga12  1  0.80058550  0.06843750  0.38602600  1
  Ga  Ga13  1  0.00000000  0.50000000  0.00000000  1
  Ga  Ga14  1  0.19941450  0.06843750  0.11397400  1
  Ga  Ga15  1  0.30058550  0.43156250  0.88602600  1
  Ga  Ga16  1  0.19941450  0.93156250  0.61397400  1
  Ga  Ga17  1  0.50000000  0.00000000  0.50000000  1
  Ga  Ga18  1  0.30058550  0.56843750  0.38602600  1
  Ga  Ga19  1  0.50000000  0.00000000  0.00000000  1
  As  As20  1  0.56928900  0.50214200  0.58442500  1
  As  As21  1  0.77063200  0.06725100  0.12677500  1
  As  As22  1  0.00000000  0.25332300  0.25000000  1
  As  As23  1  0.72936800  0.43274900  0.87322500  1
  As  As24  1  0.72936800  0.56725100  0.37322500  1
  As  As25  1  0.93071100  0.99785800  0.41557500  1
  As  As26  1  0.00000000  0.74667700  0.75000000  1
  As  As27  1  0.77063200  0.93274900  0.62677500  1
  As  As28  1  0.93071100  0.00214200  0.91557500  1
  As  As29  1  0.56928900  0.49785800  0.08442500  1
  As  As30  1  0.06928900  0.00214200  0.58442500  1
  As  As31  1  0.27063200  0.56725100  0.12677500  1
  As  As32  1  0.50000000  0.75332300  0.25000000  1
  As  As33  1  0.22936800  0.93274900  0.87322500  1
  As  As34  1  0.22936800  0.06725100  0.37322500  1
  As  As35  1  0.43071100  0.49785800  0.41557500  1
  As  As36  1  0.50000000  0.24667700  0.75000000  1
  As  As37  1  0.27063200  0.43274900  0.62677500  1
  As  As38  1  0.43071100  0.50214200  0.91557500  1
  As  As39  1  0.06928900  0.99785800  0.08442500  1
  O  O40  1  0.54033950  0.68858350  0.99101900  1
  O  O41  1  0.71405250  0.07442150  0.62022300  1
  O  O42  1  0.62767900  0.41576300  0.61136900  1
  O  O43  1  0.78594750  0.42557850  0.37977700  1
  O  O44  1  0.81080850  0.97331350  0.03614500  1
  O  O45  1  0.76190800  0.39339400  0.11537200  1
  O  O46  1  0.93910750  0.67783650  0.43747000  1
  O  O47  1  0.56089250  0.17783650  0.06253000  1
  O  O48  1  0.62767900  0.58423700  0.11136900  1
  O  O49  1  0.95966050  0.18858350  0.50898100  1
  O  O50  1  0.69363800  0.50723300  0.76105000  1
  O  O51  1  0.80636200  0.99276700  0.23895000  1
  O  O52  1  0.68919150  0.52668650  0.96385500  1
  O  O53  1  0.52256250  0.07802250  0.85522300  1
  O  O54  1  0.54737750  0.54847350  0.21570400  1
  O  O55  1  0.73809200  0.89339400  0.38462800  1
  O  O56  1  0.73809200  0.10660600  0.88462800  1
  O  O57  1  0.71405250  0.92557850  0.12022300  1
  O  O58  1  0.81080850  0.02668650  0.53614500  1
  O  O59  1  0.87232100  0.08423700  0.38863100  1
  O  O60  1  0.69363800  0.49276700  0.26105000  1
  O  O61  1  0.54033950  0.31141650  0.49101900  1
  O  O62  1  0.54737750  0.45152650  0.71570400  1
  O  O63  1  0.80636200  0.00723300  0.73895000  1
  O  O64  1  0.95262250  0.04847350  0.28429600  1
  O  O65  1  0.56089250  0.82216350  0.56253000  1
  O  O66  1  0.95262250  0.95152650  0.78429600  1
  O  O67  1  0.97743750  0.57802250  0.64477700  1
  O  O68  1  0.78594750  0.57442150  0.87977700  1
  O  O69  1  0.97743750  0.42197750  0.14477700  1
  O  O70  1  0.52256250  0.92197750  0.35522300  1
  O  O71  1  0.76190800  0.60660600  0.61537200  1
  O  O72  1  0.68919150  0.47331350  0.46385500  1
  O  O73  1  0.95966050  0.81141650  0.00898100  1
  O  O74  1  0.93910750  0.32216350  0.93747000  1
  O  O75  1  0.87232100  0.91576300  0.88863100  1
  O  O76  1  0.04033950  0.18858350  0.99101900  1
  O  O77  1  0.21405250  0.57442150  0.62022300  1
  O  O78  1  0.12767900  0.91576300  0.61136900  1
  O  O79  1  0.28594750  0.92557850  0.37977700  1
  O  O80  1  0.31080850  0.47331350  0.03614500  1
  O  O81  1  0.26190800  0.89339400  0.11537200  1
  O  O82  1  0.43910750  0.17783650  0.43747000  1
  O  O83  1  0.06089250  0.67783650  0.06253000  1
  O  O84  1  0.12767900  0.08423700  0.11136900  1
  O  O85  1  0.45966050  0.68858350  0.50898100  1
  O  O86  1  0.19363800  0.00723300  0.76105000  1
  O  O87  1  0.30636200  0.49276700  0.23895000  1
  O  O88  1  0.18919150  0.02668650  0.96385500  1
  O  O89  1  0.02256250  0.57802250  0.85522300  1
  O  O90  1  0.04737750  0.04847350  0.21570400  1
  O  O91  1  0.23809200  0.39339400  0.38462800  1
  O  O92  1  0.23809200  0.60660600  0.88462800  1
  O  O93  1  0.21405250  0.42557850  0.12022300  1
  O  O94  1  0.31080850  0.52668650  0.53614500  1
  O  O95  1  0.37232100  0.58423700  0.38863100  1
  O  O96  1  0.19363800  0.99276700  0.26105000  1
  O  O97  1  0.04033950  0.81141650  0.49101900  1
  O  O98  1  0.04737750  0.95152650  0.71570400  1
  O  O99  1  0.30636200  0.50723300  0.73895000  1
  O  O100  1  0.45262250  0.54847350  0.28429600  1
  O  O101  1  0.06089250  0.32216350  0.56253000  1
  O  O102  1  0.45262250  0.45152650  0.78429600  1
  O  O103  1  0.47743750  0.07802250  0.64477700  1
  O  O104  1  0.28594750  0.07442150  0.87977700  1
  O  O105  1  0.47743750  0.92197750  0.14477700  1
  O  O106  1  0.02256250  0.42197750  0.35522300  1
  O  O107  1  0.26190800  0.10660600  0.61537200  1
  O  O108  1  0.18919150  0.97331350  0.46385500  1
  O  O109  1  0.45966050  0.31141650  0.00898100  1
  O  O110  1  0.43910750  0.82216350  0.93747000  1
  O  O111  1  0.37232100  0.41576300  0.88863100  1
