# generated using pymatgen
data_La6S4N3Cl
_symmetry_space_group_name_H-M   'P 1'
_cell_length_a   4.11846600
_cell_length_b   11.91534200
_cell_length_c   27.23135600
_cell_angle_alpha   90.00000000
_cell_angle_beta   90.00000000
_cell_angle_gamma   90.00000000
_symmetry_Int_Tables_number   1
_chemical_formula_structural   La6S4N3Cl
_chemical_formula_sum   'La24 S16 N12 Cl4'
_cell_volume   1336.32245145
_cell_formula_units_Z   4
loop_
 _symmetry_equiv_pos_site_id
 _symmetry_equiv_pos_as_xyz
  1  'x, y, z'
loop_
 _atom_site_type_symbol
 _atom_site_label
 _atom_site_symmetry_multiplicity
 _atom_site_fract_x
 _atom_site_fract_y
 _atom_site_fract_z
 _atom_site_occupancy
  La  La0  1  0.25000000  0.23277700  0.06498900  1
  La  La1  1  0.75000000  0.05810200  0.42604600  1
  La  La2  1  0.25000000  0.90912900  0.04040500  1
  La  La3  1  0.25000000  0.23787500  0.33001000  1
  La  La4  1  0.25000000  0.38464300  0.70580100  1
  La  La5  1  0.25000000  0.44526000  0.18977400  1
  La  La6  1  0.25000000  0.94189800  0.57395400  1
  La  La7  1  0.75000000  0.61535700  0.29419900  1
  La  La8  1  0.75000000  0.55474000  0.81022600  1
  La  La9  1  0.75000000  0.55810200  0.07395400  1
  La  La10  1  0.75000000  0.76212500  0.66999000  1
  La  La11  1  0.75000000  0.09087100  0.95959500  1
  La  La12  1  0.75000000  0.11535700  0.20580100  1
  La  La13  1  0.25000000  0.44189800  0.92604600  1
  La  La14  1  0.75000000  0.26212500  0.83001000  1
  La  La15  1  0.25000000  0.73787500  0.16999000  1
  La  La16  1  0.25000000  0.88464300  0.79419900  1
  La  La17  1  0.25000000  0.73277700  0.43501100  1
  La  La18  1  0.75000000  0.59087100  0.54040500  1
  La  La19  1  0.75000000  0.26722300  0.56498900  1
  La  La20  1  0.25000000  0.40912900  0.45959500  1
  La  La21  1  0.75000000  0.76722300  0.93501100  1
  La  La22  1  0.25000000  0.94526000  0.31022600  1
  La  La23  1  0.75000000  0.05474000  0.68977400  1
  S  S24  1  0.25000000  0.21374400  0.89586200  1
  S  S25  1  0.25000000  0.04456500  0.13607100  1
  S  S26  1  0.25000000  0.64730600  0.99464700  1
  S  S27  1  0.75000000  0.81919300  0.36114700  1
  S  S28  1  0.25000000  0.18080700  0.63885300  1
  S  S29  1  0.75000000  0.28625600  0.39586200  1
  S  S30  1  0.75000000  0.31919300  0.13885300  1
  S  S31  1  0.25000000  0.71374400  0.60413800  1
  S  S32  1  0.25000000  0.68080700  0.86114700  1
  S  S33  1  0.25000000  0.14730600  0.50535300  1
  S  S34  1  0.75000000  0.95543500  0.86392900  1
  S  S35  1  0.25000000  0.54456500  0.36392900  1
  S  S36  1  0.75000000  0.35269400  0.00535300  1
  S  S37  1  0.75000000  0.85269400  0.49464700  1
  S  S38  1  0.75000000  0.45543500  0.63607100  1
  S  S39  1  0.75000000  0.78625600  0.10413800  1
  N  N40  1  0.75000000  0.90347000  0.98937400  1
  N  N41  1  0.75000000  0.43607900  0.87522100  1
  N  N42  1  0.25000000  0.11081700  0.26123500  1
  N  N43  1  0.25000000  0.56392100  0.12477900  1
  N  N44  1  0.25000000  0.61081700  0.23876500  1
  N  N45  1  0.75000000  0.40347000  0.51062600  1
  N  N46  1  0.75000000  0.93607900  0.62477900  1
  N  N47  1  0.25000000  0.09653000  0.01062600  1
  N  N48  1  0.25000000  0.59653000  0.48937400  1
  N  N49  1  0.25000000  0.06392100  0.37522100  1
  N  N50  1  0.75000000  0.88918300  0.73876500  1
  N  N51  1  0.75000000  0.38918300  0.76123500  1
  Cl  Cl52  1  0.25000000  0.13568600  0.76544200  1
  Cl  Cl53  1  0.75000000  0.36431400  0.26544200  1
  Cl  Cl54  1  0.25000000  0.63568600  0.73455800  1
  Cl  Cl55  1  0.75000000  0.86431400  0.23455800  1
