# generated using pymatgen
data_Na3La2(BO3)3
_symmetry_space_group_name_H-M   'P 1'
_cell_length_a   7.35494800
_cell_length_b   11.38649400
_cell_length_c   5.18312500
_cell_angle_alpha   90.00000000
_cell_angle_beta   90.00000000
_cell_angle_gamma   90.00000000
_symmetry_Int_Tables_number   1
_chemical_formula_structural   Na3La2(BO3)3
_chemical_formula_sum   'Na6 La4 B6 O18'
_cell_volume   434.07153879
_cell_formula_units_Z   2
loop_
 _symmetry_equiv_pos_site_id
 _symmetry_equiv_pos_as_xyz
  1  'x, y, z'
loop_
 _atom_site_type_symbol
 _atom_site_label
 _atom_site_symmetry_multiplicity
 _atom_site_fract_x
 _atom_site_fract_y
 _atom_site_fract_z
 _atom_site_occupancy
  Na  Na0  1  0.45756900  0.00000000  0.00000000  1
  Na  Na1  1  0.12908200  0.00000000  0.50000000  1
  Na  Na2  1  0.71145700  0.00000000  0.50000000  1
  Na  Na3  1  0.95756900  0.50000000  0.00000000  1
  Na  Na4  1  0.62908200  0.50000000  0.50000000  1
  Na  Na5  1  0.21145700  0.50000000  0.50000000  1
  La  La6  1  0.33006450  0.71318650  0.00000000  1
  La  La7  1  0.33006450  0.28681350  0.00000000  1
  La  La8  1  0.83006450  0.21318650  0.00000000  1
  La  La9  1  0.83006450  0.78681350  0.00000000  1
  B  B10  1  0.50670900  0.78514800  0.50000000  1
  B  B11  1  0.05800600  0.00000000  0.00000000  1
  B  B12  1  0.50670900  0.21485200  0.50000000  1
  B  B13  1  0.00670900  0.28514800  0.50000000  1
  B  B14  1  0.55800600  0.50000000  0.00000000  1
  B  B15  1  0.00670900  0.71485200  0.50000000  1
  O  O16  1  0.86772600  0.00000000  0.00000000  1
  O  O17  1  0.15028800  0.10513100  0.00000000  1
  O  O18  1  0.42471700  0.32501700  0.50000000  1
  O  O19  1  0.54177600  0.84112700  0.26637600  1
  O  O20  1  0.15028800  0.89486900  0.00000000  1
  O  O21  1  0.42471700  0.67498300  0.50000000  1
  O  O22  1  0.54177600  0.15887300  0.26637600  1
  O  O23  1  0.54177600  0.84112700  0.73362400  1
  O  O24  1  0.54177600  0.15887300  0.73362400  1
  O  O25  1  0.36772600  0.50000000  0.00000000  1
  O  O26  1  0.65028800  0.60513100  0.00000000  1
  O  O27  1  0.92471700  0.82501700  0.50000000  1
  O  O28  1  0.04177600  0.34112700  0.26637600  1
  O  O29  1  0.65028800  0.39486900  0.00000000  1
  O  O30  1  0.92471700  0.17498300  0.50000000  1
  O  O31  1  0.04177600  0.65887300  0.26637600  1
  O  O32  1  0.04177600  0.34112700  0.73362400  1
  O  O33  1  0.04177600  0.65887300  0.73362400  1
