# generated using pymatgen
data_LuSF
_symmetry_space_group_name_H-M   'P 1'
_cell_length_a   3.96922180
_cell_length_b   3.96922180
_cell_length_c   24.74027985
_cell_angle_alpha   90.00000000
_cell_angle_beta   90.00000000
_cell_angle_gamma   120.00000000
_symmetry_Int_Tables_number   1
_chemical_formula_structural   LuSF
_chemical_formula_sum   'Lu6 S6 F6'
_cell_volume   337.55611159
_cell_formula_units_Z   6
loop_
 _symmetry_equiv_pos_site_id
 _symmetry_equiv_pos_as_xyz
  1  'x, y, z'
loop_
 _atom_site_type_symbol
 _atom_site_label
 _atom_site_symmetry_multiplicity
 _atom_site_fract_x
 _atom_site_fract_y
 _atom_site_fract_z
 _atom_site_occupancy
  Lu  Lu0  1  0.00000000  0.00000000  0.00000000  1
  Lu  Lu1  1  0.33333333  0.66666667  0.16666667  1
  Lu  Lu2  1  0.66666667  0.33333333  0.33333333  1
  Lu  Lu3  1  1.00000000  1.00000000  0.50000000  1
  Lu  Lu4  1  0.33333333  0.66666667  0.66666667  1
  Lu  Lu5  1  0.66666667  0.33333333  0.83333333  1
  S  S6  1  0.33333333  0.66666667  0.05745567  1
  S  S7  1  0.33333333  0.66666667  0.27587767  1
  S  S8  1  0.00000000  0.00000000  0.39078900  1
  S  S9  1  0.00000000  0.00000000  0.60921100  1
  S  S10  1  0.66666667  0.33333333  0.72412233  1
  S  S11  1  0.66666667  0.33333333  0.94254433  1
  F  F12  1  0.00000000  0.00000000  0.16736500  1
  F  F13  1  0.66666667  0.33333333  0.16596833  1
  F  F14  1  0.66666667  0.33333333  0.50069833  1
  F  F15  1  0.33333333  0.66666667  0.49930167  1
  F  F16  1  0.33333333  0.66666667  0.83403167  1
  F  F17  1  0.00000000  0.00000000  0.83263500  1
