# generated using pymatgen
data_Eu2SiCl2O3
_symmetry_space_group_name_H-M   'P 1'
_cell_length_a   11.22851200
_cell_length_b   11.22851200
_cell_length_c   9.64606800
_cell_angle_alpha   90.00000000
_cell_angle_beta   90.00000000
_cell_angle_gamma   90.00000000
_symmetry_Int_Tables_number   1
_chemical_formula_structural   Eu2SiCl2O3
_chemical_formula_sum   'Eu16 Si8 Cl16 O24'
_cell_volume   1216.17125421
_cell_formula_units_Z   8
loop_
 _symmetry_equiv_pos_site_id
 _symmetry_equiv_pos_as_xyz
  1  'x, y, z'
loop_
 _atom_site_type_symbol
 _atom_site_label
 _atom_site_symmetry_multiplicity
 _atom_site_fract_x
 _atom_site_fract_y
 _atom_site_fract_z
 _atom_site_occupancy
  Eu  Eu0  1  0.41878550  0.75030250  0.27300250  1
  Eu  Eu1  1  0.91878550  0.25030250  0.22699750  1
  Eu  Eu2  1  0.58121450  0.24969750  0.27300250  1
  Eu  Eu3  1  0.24969750  0.41878550  0.27300250  1
  Eu  Eu4  1  0.75030250  0.58121450  0.27300250  1
  Eu  Eu5  1  0.08121450  0.74969750  0.22699750  1
  Eu  Eu6  1  0.25030250  0.08121450  0.22699750  1
  Eu  Eu7  1  0.74969750  0.91878550  0.22699750  1
  Eu  Eu8  1  0.91878550  0.25030250  0.77300250  1
  Eu  Eu9  1  0.41878550  0.75030250  0.72699750  1
  Eu  Eu10  1  0.08121450  0.74969750  0.77300250  1
  Eu  Eu11  1  0.74969750  0.91878550  0.77300250  1
  Eu  Eu12  1  0.25030250  0.08121450  0.77300250  1
  Eu  Eu13  1  0.58121450  0.24969750  0.72699750  1
  Eu  Eu14  1  0.75030250  0.58121450  0.72699750  1
  Eu  Eu15  1  0.24969750  0.41878550  0.72699750  1
  Si  Si16  1  0.31712700  0.59699000  0.00000000  1
  Si  Si17  1  0.18287300  0.90301000  0.50000000  1
  Si  Si18  1  0.09699000  0.18287300  0.50000000  1
  Si  Si19  1  0.40301000  0.31712700  0.00000000  1
  Si  Si20  1  0.81712700  0.09699000  0.50000000  1
  Si  Si21  1  0.68287300  0.40301000  0.00000000  1
  Si  Si22  1  0.59699000  0.68287300  0.00000000  1
  Si  Si23  1  0.90301000  0.81712700  0.50000000  1
  Cl  Cl24  1  0.00000000  0.00000000  0.79756800  1
  Cl  Cl25  1  0.09579050  0.25195850  0.00000000  1
  Cl  Cl26  1  0.75195850  0.40420950  0.50000000  1
  Cl  Cl27  1  0.40420950  0.24804150  0.50000000  1
  Cl  Cl28  1  0.50000000  0.00000000  0.25000000  1
  Cl  Cl29  1  0.74804150  0.09579050  0.00000000  1
  Cl  Cl30  1  0.00000000  0.50000000  0.25000000  1
  Cl  Cl31  1  0.00000000  0.00000000  0.20243200  1
  Cl  Cl32  1  0.50000000  0.50000000  0.29756800  1
  Cl  Cl33  1  0.59579050  0.75195850  0.50000000  1
  Cl  Cl34  1  0.25195850  0.90420950  0.00000000  1
  Cl  Cl35  1  0.90420950  0.74804150  0.00000000  1
  Cl  Cl36  1  0.00000000  0.50000000  0.75000000  1
  Cl  Cl37  1  0.24804150  0.59579050  0.50000000  1
  Cl  Cl38  1  0.50000000  0.00000000  0.75000000  1
  Cl  Cl39  1  0.50000000  0.50000000  0.70243200  1
  O  O40  1  0.55076350  0.33473850  0.00000000  1
  O  O41  1  0.12978500  0.24549200  0.35349900  1
  O  O42  1  0.94923650  0.16526150  0.50000000  1
  O  O43  1  0.25450800  0.62978500  0.85349900  1
  O  O44  1  0.24549200  0.87021500  0.35349900  1
  O  O45  1  0.24549200  0.87021500  0.64650100  1
  O  O46  1  0.37021500  0.25450800  0.85349900  1
  O  O47  1  0.33473850  0.44923650  0.00000000  1
  O  O48  1  0.25450800  0.62978500  0.14650100  1
  O  O49  1  0.12978500  0.24549200  0.64650100  1
  O  O50  1  0.37021500  0.25450800  0.14650100  1
  O  O51  1  0.16526150  0.05076350  0.50000000  1
  O  O52  1  0.05076350  0.83473850  0.50000000  1
  O  O53  1  0.62978500  0.74549200  0.85349900  1
  O  O54  1  0.44923650  0.66526150  0.00000000  1
  O  O55  1  0.75450800  0.12978500  0.35349900  1
  O  O56  1  0.74549200  0.37021500  0.85349900  1
  O  O57  1  0.74549200  0.37021500  0.14650100  1
  O  O58  1  0.87021500  0.75450800  0.35349900  1
  O  O59  1  0.83473850  0.94923650  0.50000000  1
  O  O60  1  0.75450800  0.12978500  0.64650100  1
  O  O61  1  0.62978500  0.74549200  0.14650100  1
  O  O62  1  0.87021500  0.75450800  0.64650100  1
  O  O63  1  0.66526150  0.55076350  0.00000000  1
