# generated using pymatgen
data_Ge3Pb5O11
_symmetry_space_group_name_H-M   'P 1'
_cell_length_a   10.41003186
_cell_length_b   10.41003186
_cell_length_c   10.86378800
_cell_angle_alpha   90.00000000
_cell_angle_beta   90.00000000
_cell_angle_gamma   120.00000000
_symmetry_Int_Tables_number   1
_chemical_formula_structural   Ge3Pb5O11
_chemical_formula_sum   'Ge9 Pb15 O33'
_cell_volume   1019.56761132
_cell_formula_units_Z   3
loop_
 _symmetry_equiv_pos_site_id
 _symmetry_equiv_pos_as_xyz
  1  'x, y, z'
loop_
 _atom_site_type_symbol
 _atom_site_label
 _atom_site_symmetry_multiplicity
 _atom_site_fract_x
 _atom_site_fract_y
 _atom_site_fract_z
 _atom_site_occupancy
  Ge  Ge0  1  0.98482000  0.37621100  0.15212600  1
  Ge  Ge1  1  0.62378900  0.60860900  0.84787400  1
  Ge  Ge2  1  0.38217700  0.38946700  0.50000000  1
  Ge  Ge3  1  0.39139100  0.01518000  0.15212600  1
  Ge  Ge4  1  0.39139100  0.01518000  0.84787400  1
  Ge  Ge5  1  0.62378900  0.60860900  0.15212600  1
  Ge  Ge6  1  0.98482000  0.37621100  0.84787400  1
  Ge  Ge7  1  0.61053300  0.99271000  0.50000000  1
  Ge  Ge8  1  0.00729000  0.61782300  0.50000000  1
  Pb  Pb9  1  0.25616100  0.99604000  0.50000000  1
  Pb  Pb10  1  0.33333333  0.66666667  0.67574300  1
  Pb  Pb11  1  0.73450400  0.00053600  0.18366700  1
  Pb  Pb12  1  0.26603200  0.26549600  0.81633300  1
  Pb  Pb13  1  0.66666667  0.33333333  0.33864900  1
  Pb  Pb14  1  0.66666667  0.33333333  0.66135100  1
  Pb  Pb15  1  0.73987900  0.74383900  0.50000000  1
  Pb  Pb16  1  0.00396000  0.26012100  0.50000000  1
  Pb  Pb17  1  0.33333333  0.66666667  0.32425700  1
  Pb  Pb18  1  0.26603200  0.26549600  0.18366700  1
  Pb  Pb19  1  0.73450400  0.00053600  0.81633300  1
  Pb  Pb20  1  0.33333333  0.66666667  0.00000000  1
  Pb  Pb21  1  0.66666667  0.33333333  0.00000000  1
  Pb  Pb22  1  0.99946400  0.73396800  0.81633300  1
  Pb  Pb23  1  0.99946400  0.73396800  0.18366700  1
  O  O24  1  0.88873000  0.47836500  0.83803800  1
  O  O25  1  0.48107700  0.29135300  0.50000000  1
  O  O26  1  0.31850900  0.08715300  0.73845500  1
  O  O27  1  0.30922300  0.82208800  0.16386300  1
  O  O28  1  0.08454400  0.74393100  0.62540400  1
  O  O29  1  0.91284700  0.23135600  0.26154500  1
  O  O30  1  0.76864400  0.68149100  0.26154500  1
  O  O31  1  0.17791200  0.48713500  0.16386300  1
  O  O32  1  0.58963500  0.11127000  0.16196200  1
  O  O33  1  0.51286500  0.69077700  0.16386300  1
  O  O34  1  0.76864400  0.68149100  0.73845500  1
  O  O35  1  0.31850900  0.08715300  0.26154500  1
  O  O36  1  0.17791200  0.48713500  0.83613700  1
  O  O37  1  0.71351700  0.64463300  0.00000000  1
  O  O38  1  0.51286500  0.69077700  0.83613700  1
  O  O39  1  0.52163500  0.41036500  0.83803800  1
  O  O40  1  0.25606900  0.34061300  0.62540400  1
  O  O41  1  0.65938700  0.91545600  0.37459600  1
  O  O42  1  0.25606900  0.34061300  0.37459600  1
  O  O43  1  0.49677300  0.58547900  0.50000000  1
  O  O44  1  0.91284700  0.23135600  0.73845500  1
  O  O45  1  0.58963500  0.11127000  0.83803800  1
  O  O46  1  0.93111600  0.28648300  0.00000000  1
  O  O47  1  0.41452100  0.91129400  0.50000000  1
  O  O48  1  0.70864700  0.18972400  0.50000000  1
  O  O49  1  0.08870600  0.50322700  0.50000000  1
  O  O50  1  0.08454400  0.74393100  0.37459600  1
  O  O51  1  0.52163500  0.41036500  0.16196200  1
  O  O52  1  0.88873000  0.47836500  0.16196200  1
  O  O53  1  0.65938700  0.91545600  0.62540400  1
  O  O54  1  0.30922300  0.82208800  0.83613700  1
  O  O55  1  0.35536700  0.06888400  0.00000000  1
  O  O56  1  0.81027600  0.51892300  0.50000000  1
