# generated using pymatgen
data_CsZr6MnI14
_symmetry_space_group_name_H-M   'P 1'
_cell_length_a   15.02321000
_cell_length_b   16.45576600
_cell_length_c   13.41627300
_cell_angle_alpha   90.00000000
_cell_angle_beta   90.00000000
_cell_angle_gamma   90.00000000
_symmetry_Int_Tables_number   1
_chemical_formula_structural   CsZr6MnI14
_chemical_formula_sum   'Cs4 Zr24 Mn4 I56'
_cell_volume   3316.74992509
_cell_formula_units_Z   4
loop_
 _symmetry_equiv_pos_site_id
 _symmetry_equiv_pos_as_xyz
  1  'x, y, z'
loop_
 _atom_site_type_symbol
 _atom_site_label
 _atom_site_symmetry_multiplicity
 _atom_site_fract_x
 _atom_site_fract_y
 _atom_site_fract_z
 _atom_site_occupancy
  Cs  Cs0  1  0.00000000  0.00000000  0.00000000  1
  Cs  Cs1  1  0.50000000  0.00000000  0.50000000  1
  Cs  Cs2  1  0.50000000  0.50000000  0.00000000  1
  Cs  Cs3  1  0.00000000  0.50000000  0.50000000  1
  Zr  Zr4  1  0.86412000  0.00000000  0.60082600  1
  Zr  Zr5  1  0.56562350  0.89112150  0.88944700  1
  Zr  Zr6  1  0.43437650  0.39112150  0.38944700  1
  Zr  Zr7  1  0.56562350  0.10887850  0.88944700  1
  Zr  Zr8  1  0.36412000  0.00000000  0.89917400  1
  Zr  Zr9  1  0.56562350  0.60887850  0.61055300  1
  Zr  Zr10  1  0.63588000  0.00000000  0.10082600  1
  Zr  Zr11  1  0.13588000  0.00000000  0.39917400  1
  Zr  Zr12  1  0.43437650  0.10887850  0.11055300  1
  Zr  Zr13  1  0.43437650  0.89112150  0.11055300  1
  Zr  Zr14  1  0.56562350  0.39112150  0.61055300  1
  Zr  Zr15  1  0.43437650  0.60887850  0.38944700  1
  Zr  Zr16  1  0.36412000  0.50000000  0.60082600  1
  Zr  Zr17  1  0.06562350  0.39112150  0.88944700  1
  Zr  Zr18  1  0.93437650  0.89112150  0.38944700  1
  Zr  Zr19  1  0.06562350  0.60887850  0.88944700  1
  Zr  Zr20  1  0.86412000  0.50000000  0.89917400  1
  Zr  Zr21  1  0.06562350  0.10887850  0.61055300  1
  Zr  Zr22  1  0.13588000  0.50000000  0.10082600  1
  Zr  Zr23  1  0.63588000  0.50000000  0.39917400  1
  Zr  Zr24  1  0.93437650  0.60887850  0.11055300  1
  Zr  Zr25  1  0.93437650  0.39112150  0.11055300  1
  Zr  Zr26  1  0.06562350  0.89112150  0.61055300  1
  Zr  Zr27  1  0.93437650  0.10887850  0.38944700  1
  Mn  Mn28  1  0.50000000  0.00000000  0.00000000  1
  Mn  Mn29  1  0.00000000  0.00000000  0.50000000  1
  Mn  Mn30  1  0.00000000  0.50000000  0.00000000  1
  Mn  Mn31  1  0.50000000  0.50000000  0.50000000  1
  I  I32  1  0.26201350  0.12377750  0.00584600  1
  I  I33  1  0.23798650  0.12377750  0.50584600  1
  I  I34  1  0.58704700  0.37676400  0.25242400  1
  I  I35  1  0.50000000  0.75113500  0.00000000  1
  I  I36  1  0.15664900  0.00000000  0.75653700  1
  I  I37  1  0.73798650  0.12377750  0.99415400  1
  I  I38  1  0.58704700  0.87676400  0.24757600  1
  I  I39  1  0.41295300  0.37676400  0.74757600  1
  I  I40  1  0.35345100  0.75000000  0.25000000  1
  I  I41  1  0.76201350  0.12377750  0.49415400  1
  I  I42  1  0.50000000  0.25113500  0.50000000  1
  I  I43  1  0.76201350  0.87622250  0.49415400  1
  I  I44  1  0.65664900  0.00000000  0.74346300  1
  I  I45  1  0.58704700  0.62323600  0.25242400  1
  I  I46  1  0.84335100  0.00000000  0.24346300  1
  I  I47  1  0.34335100  0.00000000  0.25653700  1
  I  I48  1  0.64654900  0.75000000  0.75000000  1
  I  I49  1  0.26201350  0.87622250  0.00584600  1
  I  I50  1  0.58704700  0.12323600  0.24757600  1
  I  I51  1  0.35345100  0.25000000  0.25000000  1
  I  I52  1  0.50000000  0.24886500  0.00000000  1
  I  I53  1  0.50000000  0.74886500  0.50000000  1
  I  I54  1  0.73798650  0.87622250  0.99415400  1
  I  I55  1  0.41295300  0.87676400  0.75242400  1
  I  I56  1  0.64654900  0.25000000  0.75000000  1
  I  I57  1  0.41295300  0.62323600  0.74757600  1
  I  I58  1  0.41295300  0.12323600  0.75242400  1
  I  I59  1  0.23798650  0.87622250  0.50584600  1
  I  I60  1  0.76201350  0.62377750  0.00584600  1
  I  I61  1  0.73798650  0.62377750  0.50584600  1
  I  I62  1  0.08704700  0.87676400  0.25242400  1
  I  I63  1  0.00000000  0.25113500  0.00000000  1
  I  I64  1  0.65664900  0.50000000  0.75653700  1
  I  I65  1  0.23798650  0.62377750  0.99415400  1
  I  I66  1  0.08704700  0.37676400  0.24757600  1
  I  I67  1  0.91295300  0.87676400  0.74757600  1
  I  I68  1  0.85345100  0.25000000  0.25000000  1
  I  I69  1  0.26201350  0.62377750  0.49415400  1
  I  I70  1  0.00000000  0.75113500  0.50000000  1
  I  I71  1  0.26201350  0.37622250  0.49415400  1
  I  I72  1  0.15664900  0.50000000  0.74346300  1
  I  I73  1  0.08704700  0.12323600  0.25242400  1
  I  I74  1  0.34335100  0.50000000  0.24346300  1
  I  I75  1  0.84335100  0.50000000  0.25653700  1
  I  I76  1  0.14654900  0.25000000  0.75000000  1
  I  I77  1  0.76201350  0.37622250  0.00584600  1
  I  I78  1  0.08704700  0.62323600  0.24757600  1
  I  I79  1  0.85345100  0.75000000  0.25000000  1
  I  I80  1  0.00000000  0.74886500  0.00000000  1
  I  I81  1  0.00000000  0.24886500  0.50000000  1
  I  I82  1  0.23798650  0.37622250  0.99415400  1
  I  I83  1  0.91295300  0.37676400  0.75242400  1
  I  I84  1  0.14654900  0.75000000  0.75000000  1
  I  I85  1  0.91295300  0.12323600  0.74757600  1
  I  I86  1  0.91295300  0.62323600  0.75242400  1
  I  I87  1  0.73798650  0.37622250  0.50584600  1
