# generated using pymatgen
data_K2Pr4Cl9O2
_symmetry_space_group_name_H-M   'P 1'
_cell_length_a   8.47948800
_cell_length_b   11.49678600
_cell_length_c   9.59411548
_cell_angle_alpha   90.00000000
_cell_angle_beta   104.43862825
_cell_angle_gamma   90.00000000
_symmetry_Int_Tables_number   1
_chemical_formula_structural   K2Pr4Cl9O2
_chemical_formula_sum   'K4 Pr8 Cl18 O4'
_cell_volume   905.75898512
_cell_formula_units_Z   2
loop_
 _symmetry_equiv_pos_site_id
 _symmetry_equiv_pos_as_xyz
  1  'x, y, z'
loop_
 _atom_site_type_symbol
 _atom_site_label
 _atom_site_symmetry_multiplicity
 _atom_site_fract_x
 _atom_site_fract_y
 _atom_site_fract_z
 _atom_site_occupancy
  K  K0  1  0.23927700  0.54830800  0.44669600  1
  K  K1  1  0.76072300  0.04830800  0.55330400  1
  K  K2  1  0.76072300  0.45169200  0.55330400  1
  K  K3  1  0.23927700  0.95169200  0.44669600  1
  Pr  Pr4  1  0.38155300  0.25000000  0.16076100  1
  Pr  Pr5  1  0.61844700  0.75000000  0.83923900  1
  Pr  Pr6  1  0.28439400  0.54336600  0.95591700  1
  Pr  Pr7  1  0.71560600  0.04336600  0.04408300  1
  Pr  Pr8  1  0.71560600  0.45663400  0.04408300  1
  Pr  Pr9  1  0.61270700  0.75000000  0.21407200  1
  Pr  Pr10  1  0.38729300  0.25000000  0.78592800  1
  Pr  Pr11  1  0.28439400  0.95663400  0.95591700  1
  Cl  Cl12  1  0.87798100  0.58529400  0.30028800  1
  Cl  Cl13  1  0.89350700  0.90742500  0.87611800  1
  Cl  Cl14  1  0.25155200  0.75000000  0.13442000  1
  Cl  Cl15  1  0.74844800  0.25000000  0.86558000  1
  Cl  Cl16  1  0.48986300  0.49981600  0.27692100  1
  Cl  Cl17  1  0.12201900  0.41470600  0.69971200  1
  Cl  Cl18  1  0.60021700  0.75000000  0.52222600  1
  Cl  Cl19  1  0.39978300  0.25000000  0.47777400  1
  Cl  Cl20  1  0.87798100  0.91470600  0.30028800  1
  Cl  Cl21  1  0.10649300  0.09257500  0.12388200  1
  Cl  Cl22  1  0.51013700  0.99981600  0.72307900  1
  Cl  Cl23  1  0.89350700  0.59257500  0.87611800  1
  Cl  Cl24  1  0.51013700  0.50018400  0.72307900  1
  Cl  Cl25  1  0.10649300  0.40742500  0.12388200  1
  Cl  Cl26  1  0.12201900  0.08529400  0.69971200  1
  Cl  Cl27  1  0.48986300  0.00018400  0.27692100  1
  Cl  Cl28  1  0.25263500  0.75000000  0.75708800  1
  Cl  Cl29  1  0.74736500  0.25000000  0.24291200  1
  O  O30  1  0.54820900  0.87849100  0.01113800  1
  O  O31  1  0.45179100  0.12150900  0.98886200  1
  O  O32  1  0.54820900  0.62150900  0.01113800  1
  O  O33  1  0.45179100  0.37849100  0.98886200  1
