# generated using pymatgen
data_C
_symmetry_space_group_name_H-M   'P 1'
_cell_length_a   2.46915555
_cell_length_b   2.46915555
_cell_length_c   57.26406439
_cell_angle_alpha   90.00000000
_cell_angle_beta   90.00000000
_cell_angle_gamma   120.00000000
_symmetry_Int_Tables_number   1
_chemical_formula_structural   C
_chemical_formula_sum   C24
_cell_volume   302.34981081
_cell_formula_units_Z   24
loop_
 _symmetry_equiv_pos_site_id
 _symmetry_equiv_pos_as_xyz
  1  'x, y, z'
loop_
 _atom_site_type_symbol
 _atom_site_label
 _atom_site_symmetry_multiplicity
 _atom_site_fract_x
 _atom_site_fract_y
 _atom_site_fract_z
 _atom_site_occupancy
  C  C0  1  0.00000000  0.00000000  0.03160900  1
  C  C1  1  0.66666667  0.33333333  0.23874633  1
  C  C2  1  0.66666667  0.33333333  0.09460433  1
  C  C3  1  0.00000000  0.00000000  0.09458700  1
  C  C4  1  0.66666667  0.33333333  0.30172433  1
  C  C5  1  0.33333333  0.66666667  0.03157967  1
  C  C6  1  0.00000000  0.00000000  0.23872900  1
  C  C7  1  0.33333333  0.66666667  0.30175367  1
  C  C8  1  0.66666667  0.33333333  0.36494233  1
  C  C9  1  0.33333333  0.66666667  0.57207967  1
  C  C10  1  0.33333333  0.66666667  0.42793767  1
  C  C11  1  0.66666667  0.33333333  0.42792033  1
  C  C12  1  0.33333333  0.66666667  0.63505767  1
  C  C13  1  0.00000000  0.00000000  0.36491300  1
  C  C14  1  0.66666667  0.33333333  0.57206233  1
  C  C15  1  0.00000000  0.00000000  0.63508700  1
  C  C16  1  0.33333333  0.66666667  0.69827567  1
  C  C17  1  0.00000000  0.00000000  0.90541300  1
  C  C18  1  0.00000000  0.00000000  0.76127100  1
  C  C19  1  0.33333333  0.66666667  0.76125367  1
  C  C20  1  0.00000000  0.00000000  0.96839100  1
  C  C21  1  0.66666667  0.33333333  0.69824633  1
  C  C22  1  0.33333333  0.66666667  0.90539567  1
  C  C23  1  0.66666667  0.33333333  0.96842033  1
