# generated using pymatgen
data_Yb2CdSb2
_symmetry_space_group_name_H-M   'P 1'
_cell_length_a   4.65819400
_cell_length_b   17.52076600
_cell_length_c   7.26054800
_cell_angle_alpha   90.00000000
_cell_angle_beta   90.00000000
_cell_angle_gamma   90.00000000
_symmetry_Int_Tables_number   1
_chemical_formula_structural   Yb2CdSb2
_chemical_formula_sum   'Yb8 Cd4 Sb8'
_cell_volume   592.57054752
_cell_formula_units_Z   4
loop_
 _symmetry_equiv_pos_site_id
 _symmetry_equiv_pos_as_xyz
  1  'x, y, z'
loop_
 _atom_site_type_symbol
 _atom_site_label
 _atom_site_symmetry_multiplicity
 _atom_site_fract_x
 _atom_site_fract_y
 _atom_site_fract_z
 _atom_site_occupancy
  Yb  Yb0  1  0.00000000  0.52098600  0.72104100  1
  Yb  Yb1  1  0.50000000  0.97901400  0.22104100  1
  Yb  Yb2  1  0.50000000  0.80263900  0.53071400  1
  Yb  Yb3  1  0.00000000  0.69736100  0.03071400  1
  Yb  Yb4  1  0.50000000  0.02098600  0.72104100  1
  Yb  Yb5  1  0.00000000  0.47901400  0.22104100  1
  Yb  Yb6  1  0.00000000  0.30263900  0.53071400  1
  Yb  Yb7  1  0.50000000  0.19736100  0.03071400  1
  Cd  Cd8  1  0.50000000  0.59855800  0.39528000  1
  Cd  Cd9  1  0.00000000  0.90144200  0.89528000  1
  Cd  Cd10  1  0.00000000  0.09855800  0.39528000  1
  Cd  Cd11  1  0.50000000  0.40144200  0.89528000  1
  Sb  Sb12  1  0.00000000  0.67930200  0.51194600  1
  Sb  Sb13  1  0.50000000  0.82069800  0.01194600  1
  Sb  Sb14  1  0.00000000  0.93202100  0.49852900  1
  Sb  Sb15  1  0.50000000  0.56797900  0.99852900  1
  Sb  Sb16  1  0.50000000  0.17930200  0.51194600  1
  Sb  Sb17  1  0.00000000  0.32069800  0.01194600  1
  Sb  Sb18  1  0.50000000  0.43202100  0.49852900  1
  Sb  Sb19  1  0.00000000  0.06797900  0.99852900  1
