# generated using pymatgen
data_SbI(OF4)2
_symmetry_space_group_name_H-M   'P 1'
_cell_length_a   5.90337500
_cell_length_b   10.24871200
_cell_length_c   12.95598407
_cell_angle_alpha   90.00000000
_cell_angle_beta   102.54716229
_cell_angle_gamma   90.00000000
_symmetry_Int_Tables_number   1
_chemical_formula_structural   SbI(OF4)2
_chemical_formula_sum   'Sb4 I4 O8 F32'
_cell_volume   765.14223073
_cell_formula_units_Z   4
loop_
 _symmetry_equiv_pos_site_id
 _symmetry_equiv_pos_as_xyz
  1  'x, y, z'
loop_
 _atom_site_type_symbol
 _atom_site_label
 _atom_site_symmetry_multiplicity
 _atom_site_fract_x
 _atom_site_fract_y
 _atom_site_fract_z
 _atom_site_occupancy
  Sb  Sb0  1  0.49773800  0.25152200  0.50936900  1
  Sb  Sb1  1  0.50226200  0.75152200  0.99063100  1
  Sb  Sb2  1  0.49773800  0.24847800  0.00936900  1
  Sb  Sb3  1  0.50226200  0.74847800  0.49063100  1
  I  I4  1  0.22663500  0.00890200  0.31863800  1
  I  I5  1  0.77336500  0.99109800  0.68136200  1
  I  I6  1  0.77336500  0.50890200  0.18136200  1
  I  I7  1  0.22663500  0.49109800  0.81863800  1
  O  O8  1  0.70053200  0.41508400  0.05769100  1
  O  O9  1  0.70053200  0.08491600  0.55769100  1
  O  O10  1  0.59460700  0.84640200  0.63543300  1
  O  O11  1  0.59460700  0.65359800  0.13543300  1
  O  O12  1  0.29946800  0.91508400  0.44230900  1
  O  O13  1  0.29946800  0.58491600  0.94230900  1
  O  O14  1  0.40539300  0.34640200  0.86456700  1
  O  O15  1  0.40539300  0.15359800  0.36456700  1
  F  F16  1  0.38990700  0.82801500  0.85627000  1
  F  F17  1  0.12883600  0.09410300  0.19010600  1
  F  F18  1  0.75250300  0.66770000  0.94661800  1
  F  F19  1  0.31108600  0.39407000  0.45056800  1
  F  F20  1  0.46023200  0.93784500  0.26019400  1
  F  F21  1  0.96281000  0.12549000  0.74752200  1
  F  F22  1  0.31108600  0.10593000  0.95056800  1
  F  F23  1  0.75250300  0.83230000  0.44661800  1
  F  F24  1  0.96281000  0.37451000  0.24752200  1
  F  F25  1  0.96229000  0.42479700  0.85571100  1
  F  F26  1  0.12883600  0.40589700  0.69010600  1
  F  F27  1  0.46023200  0.56215500  0.76019400  1
  F  F28  1  0.24763700  0.69367500  0.54680400  1
  F  F29  1  0.53976800  0.43784500  0.23980600  1
  F  F30  1  0.68891400  0.60593000  0.54943200  1
  F  F31  1  0.75236300  0.30632500  0.45319600  1
  F  F32  1  0.61009300  0.17198500  0.14373000  1
  F  F33  1  0.53976800  0.06215500  0.73980600  1
  F  F34  1  0.24749700  0.33230000  0.05338200  1
  F  F35  1  0.24749700  0.16770000  0.55338200  1
  F  F36  1  0.24763700  0.80632500  0.04680400  1
  F  F37  1  0.75236300  0.19367500  0.95319600  1
  F  F38  1  0.96229000  0.07520300  0.35571100  1
  F  F39  1  0.03771000  0.92479700  0.64428900  1
  F  F40  1  0.87116400  0.90589700  0.80989400  1
  F  F41  1  0.38990700  0.67198500  0.35627000  1
  F  F42  1  0.03771000  0.57520300  0.14428900  1
  F  F43  1  0.87116400  0.59410300  0.30989400  1
  F  F44  1  0.03719000  0.62549000  0.75247800  1
  F  F45  1  0.03719000  0.87451000  0.25247800  1
  F  F46  1  0.61009300  0.32801500  0.64373000  1
  F  F47  1  0.68891400  0.89407000  0.04943200  1
