# generated using pymatgen
data_NbO2
_symmetry_space_group_name_H-M   'P 1'
_cell_length_a   9.80017200
_cell_length_b   9.80017200
_cell_length_c   6.08831200
_cell_angle_alpha   90.00000000
_cell_angle_beta   90.00000000
_cell_angle_gamma   90.00000000
_symmetry_Int_Tables_number   1
_chemical_formula_structural   NbO2
_chemical_formula_sum   'Nb16 O32'
_cell_volume   584.74200958
_cell_formula_units_Z   16
loop_
 _symmetry_equiv_pos_site_id
 _symmetry_equiv_pos_as_xyz
  1  'x, y, z'
loop_
 _atom_site_type_symbol
 _atom_site_label
 _atom_site_symmetry_multiplicity
 _atom_site_fract_x
 _atom_site_fract_y
 _atom_site_fract_z
 _atom_site_occupancy
  Nb  Nb0  1  0.75716050  0.48646850  0.90137850  1
  Nb  Nb1  1  0.01353150  0.25716050  0.59862150  1
  Nb  Nb2  1  0.98646850  0.24283950  0.15137850  1
  Nb  Nb3  1  0.24283950  0.51353150  0.90137850  1
  Nb  Nb4  1  0.01353150  0.75716050  0.15137850  1
  Nb  Nb5  1  0.25716050  0.48646850  0.34862150  1
  Nb  Nb6  1  0.98646850  0.74283950  0.59862150  1
  Nb  Nb7  1  0.74283950  0.51353150  0.34862150  1
  Nb  Nb8  1  0.25716050  0.98646850  0.40137850  1
  Nb  Nb9  1  0.51353150  0.75716050  0.09862150  1
  Nb  Nb10  1  0.48646850  0.74283950  0.65137850  1
  Nb  Nb11  1  0.74283950  0.01353150  0.40137850  1
  Nb  Nb12  1  0.51353150  0.25716050  0.65137850  1
  Nb  Nb13  1  0.75716050  0.98646850  0.84862150  1
  Nb  Nb14  1  0.48646850  0.24283950  0.09862150  1
  Nb  Nb15  1  0.24283950  0.01353150  0.84862150  1
  O  O16  1  0.86493400  0.60688600  0.10970500  1
  O  O17  1  0.36493400  0.60688600  0.14029500  1
  O  O18  1  0.65199250  0.39581450  0.61585150  1
  O  O19  1  0.13506600  0.39311400  0.10970500  1
  O  O20  1  0.89311400  0.86493400  0.35970500  1
  O  O21  1  0.10418550  0.15199250  0.88414850  1
  O  O22  1  0.89581450  0.84800750  0.88414850  1
  O  O23  1  0.63506600  0.39311400  0.14029500  1
  O  O24  1  0.10688600  0.13506600  0.35970500  1
  O  O25  1  0.10688600  0.63506600  0.39029500  1
  O  O26  1  0.10418550  0.65199250  0.86585150  1
  O  O27  1  0.15199250  0.39581450  0.63414850  1
  O  O28  1  0.89311400  0.36493400  0.39029500  1
  O  O29  1  0.84800750  0.60418550  0.63414850  1
  O  O30  1  0.34800750  0.60418550  0.61585150  1
  O  O31  1  0.89581450  0.34800750  0.86585150  1
  O  O32  1  0.36493400  0.10688600  0.60970500  1
  O  O33  1  0.86493400  0.10688600  0.64029500  1
  O  O34  1  0.15199250  0.89581450  0.11585150  1
  O  O35  1  0.63506600  0.89311400  0.60970500  1
  O  O36  1  0.39311400  0.36493400  0.85970500  1
  O  O37  1  0.60418550  0.65199250  0.38414850  1
  O  O38  1  0.39581450  0.34800750  0.38414850  1
  O  O39  1  0.13506600  0.89311400  0.64029500  1
  O  O40  1  0.60688600  0.63506600  0.85970500  1
  O  O41  1  0.60688600  0.13506600  0.89029500  1
  O  O42  1  0.60418550  0.15199250  0.36585150  1
  O  O43  1  0.65199250  0.89581450  0.13414850  1
  O  O44  1  0.39311400  0.86493400  0.89029500  1
  O  O45  1  0.34800750  0.10418550  0.13414850  1
  O  O46  1  0.84800750  0.10418550  0.11585150  1
  O  O47  1  0.39581450  0.84800750  0.36585150  1
