# generated using pymatgen
data_Cs3BiCl6
_symmetry_space_group_name_H-M   'P 1'
_cell_length_a   27.51504600
_cell_length_b   8.40013600
_cell_length_c   13.43931242
_cell_angle_alpha   90.00000000
_cell_angle_beta   99.59372923
_cell_angle_gamma   90.00000000
_symmetry_Int_Tables_number   1
_chemical_formula_structural   Cs3BiCl6
_chemical_formula_sum   'Cs24 Bi8 Cl48'
_cell_volume   3062.78715211
_cell_formula_units_Z   8
loop_
 _symmetry_equiv_pos_site_id
 _symmetry_equiv_pos_as_xyz
  1  'x, y, z'
loop_
 _atom_site_type_symbol
 _atom_site_label
 _atom_site_symmetry_multiplicity
 _atom_site_fract_x
 _atom_site_fract_y
 _atom_site_fract_z
 _atom_site_occupancy
  Cs  Cs0  1  0.66139700  0.31373000  0.29914700  1
  Cs  Cs1  1  0.54964750  0.24569850  0.93222200  1
  Cs  Cs2  1  0.84587350  0.68621150  0.85488400  1
  Cs  Cs3  1  0.83860300  0.18627000  0.70085300  1
  Cs  Cs4  1  0.84587350  0.31378850  0.35488400  1
  Cs  Cs5  1  0.54964750  0.75430150  0.43222200  1
  Cs  Cs6  1  0.66139700  0.68627000  0.79914700  1
  Cs  Cs7  1  0.65412650  0.18621150  0.64511600  1
  Cs  Cs8  1  0.65412650  0.81378850  0.14511600  1
  Cs  Cs9  1  0.95035250  0.74569850  0.56777800  1
  Cs  Cs10  1  0.83860300  0.81373000  0.20085300  1
  Cs  Cs11  1  0.95035250  0.25430150  0.06777800  1
  Cs  Cs12  1  0.16139700  0.81373000  0.29914700  1
  Cs  Cs13  1  0.04964750  0.74569850  0.93222200  1
  Cs  Cs14  1  0.34587350  0.18621150  0.85488400  1
  Cs  Cs15  1  0.33860300  0.68627000  0.70085300  1
  Cs  Cs16  1  0.34587350  0.81378850  0.35488400  1
  Cs  Cs17  1  0.04964750  0.25430150  0.43222200  1
  Cs  Cs18  1  0.16139700  0.18627000  0.79914700  1
  Cs  Cs19  1  0.15412650  0.68621150  0.64511600  1
  Cs  Cs20  1  0.15412650  0.31378850  0.14511600  1
  Cs  Cs21  1  0.45035250  0.24569850  0.56777800  1
  Cs  Cs22  1  0.33860300  0.31373000  0.20085300  1
  Cs  Cs23  1  0.45035250  0.75430150  0.06777800  1
  Bi  Bi24  1  0.00000000  0.21636300  0.75000000  1
  Bi  Bi25  1  0.75000000  0.75000000  0.50000000  1
  Bi  Bi26  1  0.00000000  0.78363700  0.25000000  1
  Bi  Bi27  1  0.75000000  0.25000000  0.00000000  1
  Bi  Bi28  1  0.50000000  0.71636300  0.75000000  1
  Bi  Bi29  1  0.25000000  0.25000000  0.50000000  1
  Bi  Bi30  1  0.50000000  0.28363700  0.25000000  1
  Bi  Bi31  1  0.25000000  0.75000000  0.00000000  1
  Cl  Cl32  1  0.67324550  0.94564350  0.41923800  1
  Cl  Cl33  1  0.74958650  0.11124750  0.18548300  1
  Cl  Cl34  1  0.74958650  0.88875250  0.68548300  1
  Cl  Cl35  1  0.94225400  0.22489700  0.56490600  1
  Cl  Cl36  1  0.94285450  0.55481950  0.31915900  1
  Cl  Cl37  1  0.94285450  0.44518050  0.81915900  1
  Cl  Cl38  1  0.82281550  0.95467350  0.46533000  1
  Cl  Cl39  1  0.82675450  0.44564350  0.08076200  1
  Cl  Cl40  1  0.67324550  0.05435650  0.91923800  1
  Cl  Cl41  1  0.75041350  0.38875250  0.81451700  1
  Cl  Cl42  1  0.94263350  0.97444250  0.80631000  1
  Cl  Cl43  1  0.55736650  0.52555750  0.19369000  1
  Cl  Cl44  1  0.82281550  0.04532650  0.96533000  1
  Cl  Cl45  1  0.94225400  0.77510300  0.06490600  1
  Cl  Cl46  1  0.94263350  0.02555750  0.30631000  1
  Cl  Cl47  1  0.67718450  0.54532650  0.53467000  1
  Cl  Cl48  1  0.55774600  0.27510300  0.43509400  1
  Cl  Cl49  1  0.75041350  0.61124750  0.31451700  1
  Cl  Cl50  1  0.55736650  0.47444250  0.69369000  1
  Cl  Cl51  1  0.55714550  0.05481950  0.18084100  1
  Cl  Cl52  1  0.82675450  0.55435650  0.58076200  1
  Cl  Cl53  1  0.67718450  0.45467350  0.03467000  1
  Cl  Cl54  1  0.55774600  0.72489700  0.93509400  1
  Cl  Cl55  1  0.55714550  0.94518050  0.68084100  1
  Cl  Cl56  1  0.17324550  0.44564350  0.41923800  1
  Cl  Cl57  1  0.24958650  0.61124750  0.18548300  1
  Cl  Cl58  1  0.24958650  0.38875250  0.68548300  1
  Cl  Cl59  1  0.44225400  0.72489700  0.56490600  1
  Cl  Cl60  1  0.44285450  0.05481950  0.31915900  1
  Cl  Cl61  1  0.44285450  0.94518050  0.81915900  1
  Cl  Cl62  1  0.32281550  0.45467350  0.46533000  1
  Cl  Cl63  1  0.32675450  0.94564350  0.08076200  1
  Cl  Cl64  1  0.17324550  0.55435650  0.91923800  1
  Cl  Cl65  1  0.25041350  0.88875250  0.81451700  1
  Cl  Cl66  1  0.44263350  0.47444250  0.80631000  1
  Cl  Cl67  1  0.05736650  0.02555750  0.19369000  1
  Cl  Cl68  1  0.32281550  0.54532650  0.96533000  1
  Cl  Cl69  1  0.44225400  0.27510300  0.06490600  1
  Cl  Cl70  1  0.44263350  0.52555750  0.30631000  1
  Cl  Cl71  1  0.17718450  0.04532650  0.53467000  1
  Cl  Cl72  1  0.05774600  0.77510300  0.43509400  1
  Cl  Cl73  1  0.25041350  0.11124750  0.31451700  1
  Cl  Cl74  1  0.05736650  0.97444250  0.69369000  1
  Cl  Cl75  1  0.05714550  0.55481950  0.18084100  1
  Cl  Cl76  1  0.32675450  0.05435650  0.58076200  1
  Cl  Cl77  1  0.17718450  0.95467350  0.03467000  1
  Cl  Cl78  1  0.05774600  0.22489700  0.93509400  1
  Cl  Cl79  1  0.05714550  0.44518050  0.68084100  1
