# generated using pymatgen
data_SrCd(PO3)4
_symmetry_space_group_name_H-M   'P 1'
_cell_length_a   7.19902200
_cell_length_b   9.20569100
_cell_length_c   16.54909012
_cell_angle_alpha   90.00000000
_cell_angle_beta   114.69993955
_cell_angle_gamma   90.00000000
_symmetry_Int_Tables_number   1
_chemical_formula_structural   SrCd(PO3)4
_chemical_formula_sum   'Sr4 Cd4 P16 O48'
_cell_volume   996.39850309
_cell_formula_units_Z   4
loop_
 _symmetry_equiv_pos_site_id
 _symmetry_equiv_pos_as_xyz
  1  'x, y, z'
loop_
 _atom_site_type_symbol
 _atom_site_label
 _atom_site_symmetry_multiplicity
 _atom_site_fract_x
 _atom_site_fract_y
 _atom_site_fract_z
 _atom_site_occupancy
  Sr  Sr0  1  0.65210900  0.60519700  0.13604600  1
  Sr  Sr1  1  0.34789100  0.10519700  0.36395400  1
  Sr  Sr2  1  0.34789100  0.39480300  0.86395400  1
  Sr  Sr3  1  0.65210900  0.89480300  0.63604600  1
  Cd  Cd4  1  0.84522000  0.24120800  0.84614700  1
  Cd  Cd5  1  0.15478000  0.74120800  0.65385300  1
  Cd  Cd6  1  0.15478000  0.75879200  0.15385300  1
  Cd  Cd7  1  0.84522000  0.25879200  0.34614700  1
  P  P8  1  0.18959200  0.98812000  0.82479100  1
  P  P9  1  0.81040800  0.48812000  0.67520900  1
  P  P10  1  0.81040800  0.01188000  0.17520900  1
  P  P11  1  0.18959200  0.51188000  0.32479100  1
  P  P12  1  0.22251600  0.74308200  0.95396100  1
  P  P13  1  0.77748400  0.24308200  0.54603900  1
  P  P14  1  0.77748400  0.25691800  0.04603900  1
  P  P15  1  0.22251600  0.75691800  0.45396100  1
  P  P16  1  0.80385700  0.66063500  0.93901600  1
  P  P17  1  0.19614300  0.16063500  0.56098400  1
  P  P18  1  0.19614300  0.33936500  0.06098400  1
  P  P19  1  0.80385700  0.83936500  0.43901600  1
  P  P20  1  0.58727100  0.90191500  0.82005300  1
  P  P21  1  0.41272900  0.40191500  0.67994700  1
  P  P22  1  0.41272900  0.09808500  0.17994700  1
  P  P23  1  0.58727100  0.59808500  0.32005300  1
  O  O24  1  0.06346200  0.90572400  0.74107300  1
  O  O25  1  0.93653800  0.40572400  0.75892700  1
  O  O26  1  0.93653800  0.09427600  0.25892700  1
  O  O27  1  0.06346200  0.59427600  0.24107300  1
  O  O28  1  0.13677800  0.14335800  0.83418900  1
  O  O29  1  0.86322200  0.64335800  0.66581100  1
  O  O30  1  0.86322200  0.85664200  0.16581100  1
  O  O31  1  0.13677800  0.35664200  0.33418900  1
  O  O32  1  0.20065800  0.90396900  0.91202400  1
  O  O33  1  0.79934200  0.40396900  0.58797600  1
  O  O34  1  0.79934200  0.09603100  0.08797600  1
  O  O35  1  0.20065800  0.59603100  0.41202400  1
  O  O36  1  0.34720300  0.64501200  0.92398800  1
  O  O37  1  0.65279700  0.14501200  0.57601200  1
  O  O38  1  0.65279700  0.35498800  0.07601200  1
  O  O39  1  0.34720300  0.85498800  0.42398800  1
  O  O40  1  0.30109700  0.76526400  0.05310400  1
  O  O41  1  0.69890300  0.26526400  0.44689600  1
  O  O42  1  0.69890300  0.23473600  0.94689600  1
  O  O43  1  0.30109700  0.73473600  0.55310400  1
  O  O44  1  0.99171800  0.68440900  0.91092900  1
  O  O45  1  0.00828200  0.18440900  0.58907100  1
  O  O46  1  0.00828200  0.31559100  0.08907100  1
  O  O47  1  0.99171800  0.81559100  0.41092900  1
  O  O48  1  0.69428000  0.81872100  0.91349400  1
  O  O49  1  0.30572000  0.31872100  0.58650600  1
  O  O50  1  0.30572000  0.18127900  0.08650600  1
  O  O51  1  0.69428000  0.68127900  0.41349400  1
  O  O52  1  0.87814100  0.65025000  0.03894400  1
  O  O53  1  0.12185900  0.15025000  0.46105600  1
  O  O54  1  0.12185900  0.34975000  0.96105600  1
  O  O55  1  0.87814100  0.84975000  0.53894400  1
  O  O56  1  0.67628400  0.54051600  0.88326000  1
  O  O57  1  0.32371600  0.04051600  0.61674000  1
  O  O58  1  0.32371600  0.45948400  0.11674000  1
  O  O59  1  0.67628400  0.95948400  0.38326000  1
  O  O60  1  0.73697000  0.00261900  0.80647900  1
  O  O61  1  0.26303000  0.50261900  0.69352100  1
  O  O62  1  0.26303000  0.99738100  0.19352100  1
  O  O63  1  0.73697000  0.49738100  0.30647900  1
  O  O64  1  0.42484200  0.99606800  0.83962300  1
  O  O65  1  0.57515800  0.49606800  0.66037700  1
  O  O66  1  0.57515800  0.00393200  0.16037700  1
  O  O67  1  0.42484200  0.50393200  0.33962300  1
  O  O68  1  0.48897000  0.79605500  0.74442600  1
  O  O69  1  0.51103000  0.29605500  0.75557400  1
  O  O70  1  0.51103000  0.20394500  0.25557400  1
  O  O71  1  0.48897000  0.70394500  0.24442600  1
