# generated using pymatgen
data_Te7(OF5)6
_symmetry_space_group_name_H-M   'P 1'
_cell_length_a   9.12431631
_cell_length_b   9.12431631
_cell_length_c   28.18325294
_cell_angle_alpha   90.00000000
_cell_angle_beta   90.00000000
_cell_angle_gamma   120.00000000
_symmetry_Int_Tables_number   1
_chemical_formula_structural   Te7(OF5)6
_chemical_formula_sum   'Te21 O18 F90'
_cell_volume   2031.99397169
_cell_formula_units_Z   3
loop_
 _symmetry_equiv_pos_site_id
 _symmetry_equiv_pos_as_xyz
  1  'x, y, z'
loop_
 _atom_site_type_symbol
 _atom_site_label
 _atom_site_symmetry_multiplicity
 _atom_site_fract_x
 _atom_site_fract_y
 _atom_site_fract_z
 _atom_site_occupancy
  Te  Te0  1  0.66589533  0.02104467  0.25315067  1
  Te  Te1  1  0.68771133  0.68848267  0.08018267  1
  Te  Te2  1  0.97895533  0.64485067  0.25315067  1
  Te  Te3  1  0.31151733  0.99922867  0.08018267  1
  Te  Te4  1  0.00000000  0.00000000  0.00000000  1
  Te  Te5  1  0.00077133  0.31228867  0.08018267  1
  Te  Te6  1  0.35514933  0.33410467  0.25315067  1
  Te  Te7  1  0.33256200  0.35437800  0.58648400  1
  Te  Te8  1  0.35437800  0.02181600  0.41351600  1
  Te  Te9  1  0.64562200  0.97818400  0.58648400  1
  Te  Te10  1  0.97818400  0.33256200  0.41351600  1
  Te  Te11  1  0.66666667  0.33333333  0.33333333  1
  Te  Te12  1  0.66743800  0.64562200  0.41351600  1
  Te  Te13  1  0.02181600  0.66743800  0.58648400  1
  Te  Te14  1  0.99922867  0.68771133  0.91981733  1
  Te  Te15  1  0.02104467  0.35514933  0.74684933  1
  Te  Te16  1  0.31228867  0.31151733  0.91981733  1
  Te  Te17  1  0.64485067  0.66589533  0.74684933  1
  Te  Te18  1  0.33333333  0.66666667  0.66666667  1
  Te  Te19  1  0.33410467  0.97895533  0.74684933  1
  Te  Te20  1  0.68848267  0.00077133  0.91981733  1
  O  O21  1  0.91095133  0.11536967  0.03899867  1
  O  O22  1  0.78203633  0.53775167  0.29433467  1
  O  O23  1  0.20441833  0.08904867  0.03899867  1
  O  O24  1  0.46224833  0.24428467  0.29433467  1
  O  O25  1  0.88463033  0.79558167  0.03899867  1
  O  O26  1  0.75571533  0.21796367  0.29433467  1
  O  O27  1  0.57761800  0.44870300  0.37233200  1
  O  O28  1  0.44870300  0.87108500  0.62766800  1
  O  O29  1  0.87108500  0.42238200  0.37233200  1
  O  O30  1  0.12891500  0.57761800  0.62766800  1
  O  O31  1  0.55129700  0.12891500  0.37233200  1
  O  O32  1  0.42238200  0.55129700  0.62766800  1
  O  O33  1  0.24428467  0.78203633  0.70566533  1
  O  O34  1  0.11536967  0.20441833  0.96100133  1
  O  O35  1  0.53775167  0.75571533  0.70566533  1
  O  O36  1  0.79558167  0.91095133  0.96100133  1
  O  O37  1  0.21796367  0.46224833  0.70566533  1
  O  O38  1  0.08904867  0.88463033  0.96100133  1
  F  F39  1  0.50065733  0.09341067  0.04051967  1
  F  F40  1  0.86955767  0.12895133  0.21966733  1
  F  F41  1  0.59275333  0.49934267  0.04051967  1
  F  F42  1  0.42122567  0.92198133  0.12019033  1
  F  F43  1  0.16600933  0.23992267  0.29281367  1
  F  F44  1  0.25939367  0.13044233  0.21966733  1
  F  F45  1  0.76007733  0.92608667  0.29281367  1
  F  F46  1  0.07801867  0.49924433  0.12019033  1
  F  F47  1  0.09195100  0.55311200  0.28629000  1
  F  F48  1  0.87104867  0.74060633  0.21966733  1
  F  F49  1  0.79710900  0.20438200  0.11366600  1
  F  F50  1  0.07391333  0.83399067  0.29281367  1
  F  F51  1  0.24544100  0.41135200  0.21314300  1
  F  F52  1  0.58864800  0.83408900  0.21314300  1
  F  F53  1  0.16591100  0.75455900  0.21314300  1
  F  F54  1  0.44688800  0.53883900  0.28629000  1
  F  F55  1  0.57471567  0.78022133  0.04704333  1
  F  F56  1  0.20550567  0.42528433  0.04704333  1
  F  F57  1  0.53887733  0.42642467  0.21138767  1
  F  F58  1  0.57357533  0.11245267  0.21138767  1
  F  F59  1  0.77911933  0.87221067  0.12194567  1
  F  F60  1  0.79561800  0.59272700  0.11366600  1
  F  F61  1  0.09309133  0.22088067  0.12194567  1
  F  F62  1  0.50075567  0.57877433  0.12019033  1
  F  F63  1  0.12778933  0.90690867  0.12194567  1
  F  F64  1  0.40727300  0.20289100  0.11366600  1
  F  F65  1  0.90658933  0.40724667  0.04051967  1
  F  F66  1  0.21977867  0.79449433  0.04704333  1
  F  F67  1  0.88754733  0.46112267  0.21138767  1
  F  F68  1  0.46116100  0.90804900  0.28629000  1
  F  F69  1  0.16732400  0.42674400  0.37385300  1
  F  F70  1  0.53622433  0.46228467  0.55300067  1
  F  F71  1  0.25942000  0.83267600  0.37385300  1
  F  F72  1  0.08789233  0.25531467  0.45352367  1
  F  F73  1  0.83267600  0.57325600  0.62614700  1
  F  F74  1  0.92606033  0.46377567  0.55300067  1
  F  F75  1  0.42674400  0.25942000  0.62614700  1
  F  F76  1  0.74468533  0.83257767  0.45352367  1
  F  F77  1  0.75861767  0.88644533  0.61962333  1
  F  F78  1  0.53771533  0.07393967  0.55300067  1
  F  F79  1  0.46377567  0.53771533  0.44699933  1
  F  F80  1  0.74058000  0.16732400  0.62614700  1
  F  F81  1  0.91210767  0.74468533  0.54647633  1
  F  F82  1  0.25531467  0.16742233  0.54647633  1
  F  F83  1  0.83257767  0.08789233  0.54647633  1
  F  F84  1  0.11355467  0.87217233  0.61962333  1
  F  F85  1  0.24138233  0.11355467  0.38037667  1
  F  F86  1  0.87217233  0.75861767  0.38037667  1
  F  F87  1  0.20554400  0.75975800  0.54472100  1
  F  F88  1  0.24024200  0.44578600  0.54472100  1
  F  F89  1  0.44578600  0.20554400  0.45527900  1
  F  F90  1  0.46228467  0.92606033  0.44699933  1
  F  F91  1  0.75975800  0.55421400  0.45527900  1
  F  F92  1  0.16742233  0.91210767  0.45352367  1
  F  F93  1  0.79445600  0.24024200  0.45527900  1
  F  F94  1  0.07393967  0.53622433  0.44699933  1
  F  F95  1  0.57325600  0.74058000  0.37385300  1
  F  F96  1  0.88644533  0.12782767  0.38037667  1
  F  F97  1  0.55421400  0.79445600  0.54472100  1
  F  F98  1  0.12782767  0.24138233  0.61962333  1
  F  F99  1  0.83399067  0.76007733  0.70718633  1
  F  F100  1  0.20289100  0.79561800  0.88633400  1
  F  F101  1  0.92608667  0.16600933  0.70718633  1
  F  F102  1  0.75455900  0.58864800  0.78685700  1
  F  F103  1  0.49934267  0.90658933  0.95948033  1
  F  F104  1  0.59272700  0.79710900  0.88633400  1
  F  F105  1  0.09341067  0.59275333  0.95948033  1
  F  F106  1  0.41135200  0.16591100  0.78685700  1
  F  F107  1  0.42528433  0.21977867  0.95295667  1
  F  F108  1  0.20438200  0.40727300  0.88633400  1
  F  F109  1  0.13044233  0.87104867  0.78033267  1
  F  F110  1  0.40724667  0.50065733  0.95948033  1
  F  F111  1  0.57877433  0.07801867  0.87980967  1
  F  F112  1  0.92198133  0.50075567  0.87980967  1
  F  F113  1  0.49924433  0.42122567  0.87980967  1
  F  F114  1  0.78022133  0.20550567  0.95295667  1
  F  F115  1  0.90804900  0.44688800  0.71371000  1
  F  F116  1  0.53883900  0.09195100  0.71371000  1
  F  F117  1  0.87221067  0.09309133  0.87805433  1
  F  F118  1  0.90690867  0.77911933  0.87805433  1
  F  F119  1  0.11245267  0.53887733  0.78861233  1
  F  F120  1  0.12895133  0.25939367  0.78033267  1
  F  F121  1  0.42642467  0.88754733  0.78861233  1
  F  F122  1  0.83408900  0.24544100  0.78685700  1
  F  F123  1  0.46112267  0.57357533  0.78861233  1
  F  F124  1  0.74060633  0.86955767  0.78033267  1
  F  F125  1  0.23992267  0.07391333  0.70718633  1
  F  F126  1  0.55311200  0.46116100  0.71371000  1
  F  F127  1  0.22088067  0.12778933  0.87805433  1
  F  F128  1  0.79449433  0.57471567  0.95295667  1
