# generated using pymatgen
data_BiAsPbO5
_symmetry_space_group_name_H-M   'P 1'
_cell_length_a   13.40076200
_cell_length_b   5.62470200
_cell_length_c   7.24256962
_cell_angle_alpha   90.00000000
_cell_angle_beta   111.78813679
_cell_angle_gamma   90.00000000
_symmetry_Int_Tables_number   1
_chemical_formula_structural   BiAsPbO5
_chemical_formula_sum   'Bi4 As4 Pb4 O20'
_cell_volume   506.91241179
_cell_formula_units_Z   4
loop_
 _symmetry_equiv_pos_site_id
 _symmetry_equiv_pos_as_xyz
  1  'x, y, z'
loop_
 _atom_site_type_symbol
 _atom_site_label
 _atom_site_symmetry_multiplicity
 _atom_site_fract_x
 _atom_site_fract_y
 _atom_site_fract_z
 _atom_site_occupancy
  Bi  Bi0  1  0.01348800  0.00000000  0.24988200  1
  Bi  Bi1  1  0.48651200  0.50000000  0.75011800  1
  Bi  Bi2  1  0.51348800  0.50000000  0.24988200  1
  Bi  Bi3  1  0.98651200  0.00000000  0.75011800  1
  As  As4  1  0.16485000  0.50000000  0.65170800  1
  As  As5  1  0.33515000  0.00000000  0.34829200  1
  As  As6  1  0.66485000  0.00000000  0.65170800  1
  As  As7  1  0.83515000  0.50000000  0.34829200  1
  Pb  Pb8  1  0.33785200  0.00000000  0.87985700  1
  Pb  Pb9  1  0.16214800  0.50000000  0.12014300  1
  Pb  Pb10  1  0.83785200  0.50000000  0.87985700  1
  Pb  Pb11  1  0.66214800  0.00000000  0.12014300  1
  O  O12  1  0.19830100  0.00000000  0.29509500  1
  O  O13  1  0.14184800  0.25220000  0.77305400  1
  O  O14  1  0.30169900  0.50000000  0.70490500  1
  O  O15  1  0.09104100  0.50000000  0.40144800  1
  O  O16  1  0.35815200  0.75220000  0.22694600  1
  O  O17  1  0.14184800  0.74780000  0.77305400  1
  O  O18  1  0.00000000  0.23610500  0.00000000  1
  O  O19  1  0.00000000  0.76389500  0.00000000  1
  O  O20  1  0.40895900  0.00000000  0.59855200  1
  O  O21  1  0.35815200  0.24780000  0.22694600  1
  O  O22  1  0.69830100  0.50000000  0.29509500  1
  O  O23  1  0.64184800  0.75220000  0.77305400  1
  O  O24  1  0.80169900  0.00000000  0.70490500  1
  O  O25  1  0.59104100  0.00000000  0.40144800  1
  O  O26  1  0.85815200  0.25220000  0.22694600  1
  O  O27  1  0.64184800  0.24780000  0.77305400  1
  O  O28  1  0.50000000  0.73610500  0.00000000  1
  O  O29  1  0.50000000  0.26389500  0.00000000  1
  O  O30  1  0.90895900  0.50000000  0.59855200  1
  O  O31  1  0.85815200  0.74780000  0.22694600  1
