# generated using pymatgen
data_Hg3(SBr)2
_symmetry_space_group_name_H-M   'P 1'
_cell_length_a   18.22553200
_cell_length_b   9.75851400
_cell_length_c   9.72536090
_cell_angle_alpha   90.00000000
_cell_angle_beta   91.02982712
_cell_angle_gamma   90.00000000
_symmetry_Int_Tables_number   1
_chemical_formula_structural   Hg3(SBr)2
_chemical_formula_sum   'Hg24 S16 Br16'
_cell_volume   1729.41600830
_cell_formula_units_Z   8
loop_
 _symmetry_equiv_pos_site_id
 _symmetry_equiv_pos_as_xyz
  1  'x, y, z'
loop_
 _atom_site_type_symbol
 _atom_site_label
 _atom_site_symmetry_multiplicity
 _atom_site_fract_x
 _atom_site_fract_y
 _atom_site_fract_z
 _atom_site_occupancy
  Hg  Hg0  1  0.62074800  0.71267700  0.20312600  1
  Hg  Hg1  1  0.62074800  0.28732300  0.20312600  1
  Hg  Hg2  1  0.00000000  0.23761800  0.50000000  1
  Hg  Hg3  1  0.87925200  0.78732300  0.79687400  1
  Hg  Hg4  1  0.75113700  0.00000000  0.22339200  1
  Hg  Hg5  1  0.98741600  0.50000000  0.23370400  1
  Hg  Hg6  1  0.00000000  0.76238200  0.50000000  1
  Hg  Hg7  1  0.74886300  0.50000000  0.77660800  1
  Hg  Hg8  1  0.51258400  0.00000000  0.76629600  1
  Hg  Hg9  1  0.87925200  0.21267700  0.79687400  1
  Hg  Hg10  1  0.75000000  0.75000000  0.50000000  1
  Hg  Hg11  1  0.75000000  0.25000000  0.50000000  1
  Hg  Hg12  1  0.12074800  0.21267700  0.20312600  1
  Hg  Hg13  1  0.12074800  0.78732300  0.20312600  1
  Hg  Hg14  1  0.50000000  0.73761800  0.50000000  1
  Hg  Hg15  1  0.37925200  0.28732300  0.79687400  1
  Hg  Hg16  1  0.25113700  0.50000000  0.22339200  1
  Hg  Hg17  1  0.48741600  0.00000000  0.23370400  1
  Hg  Hg18  1  0.50000000  0.26238200  0.50000000  1
  Hg  Hg19  1  0.24886300  0.00000000  0.77660800  1
  Hg  Hg20  1  0.01258400  0.50000000  0.76629600  1
  Hg  Hg21  1  0.37925200  0.71267700  0.79687400  1
  Hg  Hg22  1  0.25000000  0.25000000  0.50000000  1
  Hg  Hg23  1  0.25000000  0.75000000  0.50000000  1
  S  S24  1  0.98894300  0.24987500  0.25081500  1
  S  S25  1  0.75403900  0.24746600  0.24949200  1
  S  S26  1  0.75403900  0.75253400  0.24949200  1
  S  S27  1  0.74596100  0.74746600  0.75050800  1
  S  S28  1  0.51105700  0.25012500  0.74918500  1
  S  S29  1  0.51105700  0.74987500  0.74918500  1
  S  S30  1  0.74596100  0.25253400  0.75050800  1
  S  S31  1  0.98894300  0.75012500  0.25081500  1
  S  S32  1  0.48894300  0.74987500  0.25081500  1
  S  S33  1  0.25403900  0.74746600  0.24949200  1
  S  S34  1  0.25403900  0.25253400  0.24949200  1
  S  S35  1  0.24596100  0.24746600  0.75050800  1
  S  S36  1  0.01105700  0.75012500  0.74918500  1
  S  S37  1  0.01105700  0.24987500  0.74918500  1
  S  S38  1  0.24596100  0.75253400  0.75050800  1
  S  S39  1  0.48894300  0.25012500  0.25081500  1
  Br  Br40  1  0.62300900  0.50000000  0.00587600  1
  Br  Br41  1  0.62398400  0.50000000  0.46717800  1
  Br  Br42  1  0.87699100  0.00000000  0.99412400  1
  Br  Br43  1  0.88219400  0.50000000  0.97595800  1
  Br  Br44  1  0.62614600  0.00000000  0.49365100  1
  Br  Br45  1  0.87385400  0.50000000  0.50634900  1
  Br  Br46  1  0.87601600  0.00000000  0.53282200  1
  Br  Br47  1  0.61780600  0.00000000  0.02404200  1
  Br  Br48  1  0.12300900  0.00000000  0.00587600  1
  Br  Br49  1  0.12398400  0.00000000  0.46717800  1
  Br  Br50  1  0.37699100  0.50000000  0.99412400  1
  Br  Br51  1  0.38219400  0.00000000  0.97595800  1
  Br  Br52  1  0.12614600  0.50000000  0.49365100  1
  Br  Br53  1  0.37385400  0.00000000  0.50634900  1
  Br  Br54  1  0.37601600  0.50000000  0.53282200  1
  Br  Br55  1  0.11780600  0.50000000  0.02404200  1
