# generated using pymatgen
data_Nd2Cu(GeO4)2
_symmetry_space_group_name_H-M   'P 1'
_cell_length_a   9.92426600
_cell_length_b   15.44074800
_cell_length_c   5.21112308
_cell_angle_alpha   90.00000000
_cell_angle_beta   120.68914469
_cell_angle_gamma   90.00000000
_symmetry_Int_Tables_number   1
_chemical_formula_structural   Nd2Cu(GeO4)2
_chemical_formula_sum   'Nd8 Cu4 Ge8 O32'
_cell_volume   686.70585447
_cell_formula_units_Z   4
loop_
 _symmetry_equiv_pos_site_id
 _symmetry_equiv_pos_as_xyz
  1  'x, y, z'
loop_
 _atom_site_type_symbol
 _atom_site_label
 _atom_site_symmetry_multiplicity
 _atom_site_fract_x
 _atom_site_fract_y
 _atom_site_fract_z
 _atom_site_occupancy
  Nd  Nd0  1  0.23999200  0.12118400  0.70984600  1
  Nd  Nd1  1  0.24254500  0.37923200  0.20126400  1
  Nd  Nd2  1  0.74254500  0.12076800  0.20126400  1
  Nd  Nd3  1  0.73999200  0.37881600  0.70984600  1
  Nd  Nd4  1  0.73999200  0.62118400  0.70984600  1
  Nd  Nd5  1  0.74254500  0.87923200  0.20126400  1
  Nd  Nd6  1  0.24254500  0.62076800  0.20126400  1
  Nd  Nd7  1  0.23999200  0.87881600  0.70984600  1
  Cu  Cu8  1  0.02959250  0.20685150  0.00844500  1
  Cu  Cu9  1  0.52959250  0.29314850  0.00844500  1
  Cu  Cu10  1  0.52959250  0.70685150  0.00844500  1
  Cu  Cu11  1  0.02959250  0.79314850  0.00844500  1
  Ge  Ge12  1  0.00039900  0.00000000  0.01144200  1
  Ge  Ge13  1  0.98371900  0.28955100  0.46682900  1
  Ge  Ge14  1  0.49563900  0.00000000  0.41095800  1
  Ge  Ge15  1  0.48371900  0.21044900  0.46682900  1
  Ge  Ge16  1  0.50039900  0.50000000  0.01144200  1
  Ge  Ge17  1  0.48371900  0.78955100  0.46682900  1
  Ge  Ge18  1  0.99563900  0.50000000  0.41095800  1
  Ge  Ge19  1  0.98371900  0.71044900  0.46682900  1
  O  O20  1  0.64794250  0.24104950  0.82761000  1
  O  O21  1  0.66472700  0.00000000  0.37712100  1
  O  O22  1  0.33169300  0.00000000  0.04363200  1
  O  O23  1  0.83084000  0.00000000  0.04755100  1
  O  O24  1  0.48865150  0.32642150  0.31300100  1
  O  O25  1  0.49656650  0.09208950  0.62673200  1
  O  O26  1  0.00599750  0.09325550  0.81003300  1
  O  O27  1  0.49435700  0.17240400  0.14725000  1
  O  O28  1  0.16120500  0.00000000  0.38810300  1
  O  O29  1  0.98865150  0.17357850  0.31300100  1
  O  O30  1  0.99656650  0.40791050  0.62673200  1
  O  O31  1  0.80568150  0.26674150  0.45852400  1
  O  O32  1  0.99435700  0.32759600  0.14725000  1
  O  O33  1  0.50599750  0.40674450  0.81003300  1
  O  O34  1  0.30568150  0.23325850  0.45852400  1
  O  O35  1  0.14794250  0.25895050  0.82761000  1
  O  O36  1  0.14794250  0.74104950  0.82761000  1
  O  O37  1  0.16472700  0.50000000  0.37712100  1
  O  O38  1  0.83169300  0.50000000  0.04363200  1
  O  O39  1  0.33084000  0.50000000  0.04755100  1
  O  O40  1  0.98865150  0.82642150  0.31300100  1
  O  O41  1  0.99656650  0.59208950  0.62673200  1
  O  O42  1  0.50599750  0.59325550  0.81003300  1
  O  O43  1  0.99435700  0.67240400  0.14725000  1
  O  O44  1  0.66120500  0.50000000  0.38810300  1
  O  O45  1  0.48865150  0.67357850  0.31300100  1
  O  O46  1  0.49656650  0.90791050  0.62673200  1
  O  O47  1  0.30568150  0.76674150  0.45852400  1
  O  O48  1  0.49435700  0.82759600  0.14725000  1
  O  O49  1  0.00599750  0.90674450  0.81003300  1
  O  O50  1  0.80568150  0.73325850  0.45852400  1
  O  O51  1  0.64794250  0.75895050  0.82761000  1
