# generated using pymatgen
data_LiNbO3
_symmetry_space_group_name_H-M   'P 1'
_cell_length_a   5.26943775
_cell_length_b   5.26943775
_cell_length_c   13.90309840
_cell_angle_alpha   90.00000000
_cell_angle_beta   90.00000000
_cell_angle_gamma   120.00000000
_symmetry_Int_Tables_number   1
_chemical_formula_structural   LiNbO3
_chemical_formula_sum   'Li6 Nb6 O18'
_cell_volume   334.32648670
_cell_formula_units_Z   6
loop_
 _symmetry_equiv_pos_site_id
 _symmetry_equiv_pos_as_xyz
  1  'x, y, z'
loop_
 _atom_site_type_symbol
 _atom_site_label
 _atom_site_symmetry_multiplicity
 _atom_site_fract_x
 _atom_site_fract_y
 _atom_site_fract_z
 _atom_site_occupancy
  Li  Li0  1  0.00000000  0.00000000  0.25000000  1
  Li  Li1  1  0.66666667  0.33333333  0.08333333  1
  Li  Li2  1  0.66666667  0.33333333  0.58333333  1
  Li  Li3  1  0.33333333  0.66666667  0.41666667  1
  Li  Li4  1  0.33333333  0.66666667  0.91666667  1
  Li  Li5  1  0.00000000  0.00000000  0.75000000  1
  Nb  Nb6  1  0.33333333  0.66666667  0.16666667  1
  Nb  Nb7  1  0.00000000  0.00000000  0.00000000  1
  Nb  Nb8  1  1.00000000  0.00000000  0.50000000  1
  Nb  Nb9  1  0.66666667  0.33333333  0.33333333  1
  Nb  Nb10  1  0.66666667  0.33333333  0.83333333  1
  Nb  Nb11  1  0.33333333  0.66666667  0.66666667  1
  O  O12  1  0.04629667  0.33333333  0.08333333  1
  O  O13  1  0.28703667  0.95370333  0.08333333  1
  O  O14  1  0.62037000  0.00000000  0.25000000  1
  O  O15  1  0.00000000  0.62037000  0.25000000  1
  O  O16  1  0.37963000  0.37963000  0.25000000  1
  O  O17  1  0.66666667  0.71296333  0.08333333  1
  O  O18  1  0.71296333  0.66666667  0.41666667  1
  O  O19  1  0.95370333  0.28703667  0.41666667  1
  O  O20  1  0.28703667  0.33333333  0.58333333  1
  O  O21  1  0.66666667  0.95370333  0.58333333  1
  O  O22  1  0.04629667  0.71296333  0.58333333  1
  O  O23  1  0.33333333  0.04629667  0.41666667  1
  O  O24  1  0.37963000  0.00000000  0.75000000  1
  O  O25  1  0.62037000  0.62037000  0.75000000  1
  O  O26  1  0.95370333  0.66666667  0.91666667  1
  O  O27  1  0.33333333  0.28703667  0.91666667  1
  O  O28  1  0.71296333  0.04629667  0.91666667  1
  O  O29  1  0.00000000  0.37963000  0.75000000  1
