# generated using pymatgen
data_CsAs3O8
_symmetry_space_group_name_H-M   'P 1'
_cell_length_a   8.71052200
_cell_length_b   11.95384800
_cell_length_c   7.77673326
_cell_angle_alpha   90.00000000
_cell_angle_beta   112.75287613
_cell_angle_gamma   90.00000000
_symmetry_Int_Tables_number   1
_chemical_formula_structural   CsAs3O8
_chemical_formula_sum   'Cs4 As12 O32'
_cell_volume   746.73334928
_cell_formula_units_Z   4
loop_
 _symmetry_equiv_pos_site_id
 _symmetry_equiv_pos_as_xyz
  1  'x, y, z'
loop_
 _atom_site_type_symbol
 _atom_site_label
 _atom_site_symmetry_multiplicity
 _atom_site_fract_x
 _atom_site_fract_y
 _atom_site_fract_z
 _atom_site_occupancy
  Cs  Cs0  1  0.50000000  0.07577900  0.75000000  1
  Cs  Cs1  1  0.50000000  0.92422100  0.25000000  1
  Cs  Cs2  1  0.00000000  0.57577900  0.75000000  1
  Cs  Cs3  1  0.00000000  0.42422100  0.25000000  1
  As  As4  1  0.37797450  0.67307850  0.57222300  1
  As  As5  1  0.62202550  0.67307850  0.92777700  1
  As  As6  1  0.50000000  0.43155000  0.75000000  1
  As  As7  1  0.37797450  0.32692150  0.07222300  1
  As  As8  1  0.62202550  0.32692150  0.42777700  1
  As  As9  1  0.50000000  0.56845000  0.25000000  1
  As  As10  1  0.87797450  0.17307850  0.57222300  1
  As  As11  1  0.12202550  0.17307850  0.92777700  1
  As  As12  1  0.00000000  0.93155000  0.75000000  1
  As  As13  1  0.87797450  0.82692150  0.07222300  1
  As  As14  1  0.12202550  0.82692150  0.42777700  1
  As  As15  1  0.00000000  0.06845000  0.25000000  1
  O  O16  1  0.64984750  0.82660150  0.97084800  1
  O  O17  1  0.14224150  0.01001450  0.92824700  1
  O  O18  1  0.14224150  0.98998550  0.42824700  1
  O  O19  1  0.38685000  0.34115300  0.82900500  1
  O  O20  1  0.35015250  0.17339850  0.02915200  1
  O  O21  1  0.85775850  0.01001450  0.57175300  1
  O  O22  1  0.38685000  0.65884700  0.32900500  1
  O  O23  1  0.60423400  0.67530200  0.68041000  1
  O  O24  1  0.64984750  0.17339850  0.47084800  1
  O  O25  1  0.61315000  0.65884700  0.17099500  1
  O  O26  1  0.61315000  0.34115300  0.67099500  1
  O  O27  1  0.39576600  0.32469800  0.31959000  1
  O  O28  1  0.85775850  0.98998550  0.07175300  1
  O  O29  1  0.60423400  0.32469800  0.18041000  1
  O  O30  1  0.39576600  0.67530200  0.81959000  1
  O  O31  1  0.35015250  0.82660150  0.52915200  1
  O  O32  1  0.14984750  0.32660150  0.97084800  1
  O  O33  1  0.64224150  0.51001450  0.92824700  1
  O  O34  1  0.64224150  0.48998550  0.42824700  1
  O  O35  1  0.88685000  0.84115300  0.82900500  1
  O  O36  1  0.85015250  0.67339850  0.02915200  1
  O  O37  1  0.35775850  0.51001450  0.57175300  1
  O  O38  1  0.88685000  0.15884700  0.32900500  1
  O  O39  1  0.10423400  0.17530200  0.68041000  1
  O  O40  1  0.14984750  0.67339850  0.47084800  1
  O  O41  1  0.11315000  0.15884700  0.17099500  1
  O  O42  1  0.11315000  0.84115300  0.67099500  1
  O  O43  1  0.89576600  0.82469800  0.31959000  1
  O  O44  1  0.35775850  0.48998550  0.07175300  1
  O  O45  1  0.10423400  0.82469800  0.18041000  1
  O  O46  1  0.89576600  0.17530200  0.81959000  1
  O  O47  1  0.85015250  0.32660150  0.52915200  1
