# generated using pymatgen
data_Dy2CdSe4
_symmetry_space_group_name_H-M   'P 1'
_cell_length_a   11.81733000
_cell_length_b   11.81733000
_cell_length_c   11.81733000
_cell_angle_alpha   90.00000000
_cell_angle_beta   90.00000000
_cell_angle_gamma   90.00000000
_symmetry_Int_Tables_number   1
_chemical_formula_structural   Dy2CdSe4
_chemical_formula_sum   'Dy16 Cd8 Se32'
_cell_volume   1650.28172445
_cell_formula_units_Z   8
loop_
 _symmetry_equiv_pos_site_id
 _symmetry_equiv_pos_as_xyz
  1  'x, y, z'
loop_
 _atom_site_type_symbol
 _atom_site_label
 _atom_site_symmetry_multiplicity
 _atom_site_fract_x
 _atom_site_fract_y
 _atom_site_fract_z
 _atom_site_occupancy
  Dy  Dy0  1  0.12500000  0.87500000  0.37500000  1
  Dy  Dy1  1  0.37500000  0.62500000  0.37500000  1
  Dy  Dy2  1  0.37500000  0.87500000  0.12500000  1
  Dy  Dy3  1  0.12500000  0.62500000  0.12500000  1
  Dy  Dy4  1  0.12500000  0.37500000  0.87500000  1
  Dy  Dy5  1  0.37500000  0.12500000  0.87500000  1
  Dy  Dy6  1  0.37500000  0.37500000  0.62500000  1
  Dy  Dy7  1  0.12500000  0.12500000  0.62500000  1
  Dy  Dy8  1  0.62500000  0.87500000  0.87500000  1
  Dy  Dy9  1  0.87500000  0.62500000  0.87500000  1
  Dy  Dy10  1  0.87500000  0.87500000  0.62500000  1
  Dy  Dy11  1  0.62500000  0.62500000  0.62500000  1
  Dy  Dy12  1  0.62500000  0.37500000  0.37500000  1
  Dy  Dy13  1  0.87500000  0.12500000  0.37500000  1
  Dy  Dy14  1  0.87500000  0.37500000  0.12500000  1
  Dy  Dy15  1  0.62500000  0.12500000  0.12500000  1
  Cd  Cd16  1  0.25000000  0.25000000  0.25000000  1
  Cd  Cd17  1  0.50000000  0.00000000  0.50000000  1
  Cd  Cd18  1  0.25000000  0.75000000  0.75000000  1
  Cd  Cd19  1  0.50000000  0.50000000  0.00000000  1
  Cd  Cd20  1  0.75000000  0.25000000  0.75000000  1
  Cd  Cd21  1  0.00000000  0.00000000  0.00000000  1
  Cd  Cd22  1  0.75000000  0.75000000  0.25000000  1
  Cd  Cd23  1  0.00000000  0.50000000  0.50000000  1
  Se  Se24  1  0.13201933  0.86798067  0.13201933  1
  Se  Se25  1  0.38201933  0.11798067  0.11798067  1
  Se  Se26  1  0.11798067  0.11798067  0.38201933  1
  Se  Se27  1  0.36798067  0.86798067  0.36798067  1
  Se  Se28  1  0.38201933  0.38201933  0.38201933  1
  Se  Se29  1  0.86798067  0.13201933  0.13201933  1
  Se  Se30  1  0.11798067  0.38201933  0.11798067  1
  Se  Se31  1  0.63201933  0.13201933  0.36798067  1
  Se  Se32  1  0.13201933  0.36798067  0.63201933  1
  Se  Se33  1  0.38201933  0.61798067  0.61798067  1
  Se  Se34  1  0.11798067  0.61798067  0.88201933  1
  Se  Se35  1  0.36798067  0.36798067  0.86798067  1
  Se  Se36  1  0.38201933  0.88201933  0.88201933  1
  Se  Se37  1  0.86798067  0.63201933  0.63201933  1
  Se  Se38  1  0.11798067  0.88201933  0.61798067  1
  Se  Se39  1  0.63201933  0.63201933  0.86798067  1
  Se  Se40  1  0.63201933  0.86798067  0.63201933  1
  Se  Se41  1  0.88201933  0.11798067  0.61798067  1
  Se  Se42  1  0.61798067  0.11798067  0.88201933  1
  Se  Se43  1  0.86798067  0.86798067  0.86798067  1
  Se  Se44  1  0.88201933  0.38201933  0.88201933  1
  Se  Se45  1  0.36798067  0.13201933  0.63201933  1
  Se  Se46  1  0.61798067  0.38201933  0.61798067  1
  Se  Se47  1  0.13201933  0.13201933  0.86798067  1
  Se  Se48  1  0.63201933  0.36798067  0.13201933  1
  Se  Se49  1  0.88201933  0.61798067  0.11798067  1
  Se  Se50  1  0.61798067  0.61798067  0.38201933  1
  Se  Se51  1  0.86798067  0.36798067  0.36798067  1
  Se  Se52  1  0.88201933  0.88201933  0.38201933  1
  Se  Se53  1  0.36798067  0.63201933  0.13201933  1
  Se  Se54  1  0.61798067  0.88201933  0.11798067  1
  Se  Se55  1  0.13201933  0.63201933  0.36798067  1
