# generated using pymatgen
data_CsSb2F7
_symmetry_space_group_name_H-M   'P 1'
_cell_length_a   19.84996000
_cell_length_b   6.93126800
_cell_length_c   5.74097141
_cell_angle_alpha   90.00000000
_cell_angle_beta   91.64062220
_cell_angle_gamma   90.00000000
_symmetry_Int_Tables_number   1
_chemical_formula_structural   CsSb2F7
_chemical_formula_sum   'Cs4 Sb8 F28'
_cell_volume   789.55001022
_cell_formula_units_Z   4
loop_
 _symmetry_equiv_pos_site_id
 _symmetry_equiv_pos_as_xyz
  1  'x, y, z'
loop_
 _atom_site_type_symbol
 _atom_site_label
 _atom_site_symmetry_multiplicity
 _atom_site_fract_x
 _atom_site_fract_y
 _atom_site_fract_z
 _atom_site_occupancy
  Cs  Cs0  1  0.75000000  0.75000000  0.50000000  1
  Cs  Cs1  1  0.75000000  0.25000000  0.00000000  1
  Cs  Cs2  1  0.25000000  0.25000000  0.50000000  1
  Cs  Cs3  1  0.25000000  0.75000000  0.00000000  1
  Sb  Sb4  1  0.58300850  0.73128050  0.95950700  1
  Sb  Sb5  1  0.58300850  0.26871950  0.45950700  1
  Sb  Sb6  1  0.91699150  0.23128050  0.54049300  1
  Sb  Sb7  1  0.91699150  0.76871950  0.04049300  1
  Sb  Sb8  1  0.08300850  0.23128050  0.95950700  1
  Sb  Sb9  1  0.08300850  0.76871950  0.45950700  1
  Sb  Sb10  1  0.41699150  0.73128050  0.54049300  1
  Sb  Sb11  1  0.41699150  0.26871950  0.04049300  1
  F  F12  1  0.92026150  0.38721250  0.82992900  1
  F  F13  1  0.86804650  0.01997150  0.70065000  1
  F  F14  1  0.82221000  0.33299400  0.49334200  1
  F  F15  1  0.92026150  0.61278750  0.32992900  1
  F  F16  1  0.82221000  0.66700600  0.99334200  1
  F  F17  1  0.63195350  0.48002850  0.29935000  1
  F  F18  1  0.57973850  0.11278750  0.17007100  1
  F  F19  1  0.67779000  0.16700600  0.50665800  1
  F  F20  1  0.00000000  0.08079800  0.75000000  1
  F  F21  1  0.00000000  0.91920200  0.25000000  1
  F  F22  1  0.67779000  0.83299400  0.00665800  1
  F  F23  1  0.86804650  0.98002850  0.20065000  1
  F  F24  1  0.63195350  0.51997150  0.79935000  1
  F  F25  1  0.57973850  0.88721250  0.67007100  1
  F  F26  1  0.42026150  0.88721250  0.82992900  1
  F  F27  1  0.36804650  0.51997150  0.70065000  1
  F  F28  1  0.32221000  0.83299400  0.49334200  1
  F  F29  1  0.42026150  0.11278750  0.32992900  1
  F  F30  1  0.32221000  0.16700600  0.99334200  1
  F  F31  1  0.13195350  0.98002850  0.29935000  1
  F  F32  1  0.07973850  0.61278750  0.17007100  1
  F  F33  1  0.17779000  0.66700600  0.50665800  1
  F  F34  1  0.50000000  0.58079800  0.75000000  1
  F  F35  1  0.50000000  0.41920200  0.25000000  1
  F  F36  1  0.17779000  0.33299400  0.00665800  1
  F  F37  1  0.36804650  0.48002850  0.20065000  1
  F  F38  1  0.13195350  0.01997150  0.79935000  1
  F  F39  1  0.07973850  0.38721250  0.67007100  1
