# generated using pymatgen
data_Sr3Li4(GeN3)2
_symmetry_space_group_name_H-M   'P 1'
_cell_length_a   6.19832200
_cell_length_b   10.11582400
_cell_length_c   6.36369640
_cell_angle_alpha   90.00000000
_cell_angle_beta   91.29699832
_cell_angle_gamma   90.00000000
_symmetry_Int_Tables_number   1
_chemical_formula_structural   Sr3Li4(GeN3)2
_chemical_formula_sum   'Sr6 Li8 Ge4 N12'
_cell_volume   398.90875563
_cell_formula_units_Z   2
loop_
 _symmetry_equiv_pos_site_id
 _symmetry_equiv_pos_as_xyz
  1  'x, y, z'
loop_
 _atom_site_type_symbol
 _atom_site_label
 _atom_site_symmetry_multiplicity
 _atom_site_fract_x
 _atom_site_fract_y
 _atom_site_fract_z
 _atom_site_occupancy
  Sr  Sr0  1  0.50000000  0.68948600  0.50000000  1
  Sr  Sr1  1  0.50000000  0.31051400  0.50000000  1
  Sr  Sr2  1  0.00000000  0.00000000  0.00000000  1
  Sr  Sr3  1  0.00000000  0.18948600  0.50000000  1
  Sr  Sr4  1  0.00000000  0.81051400  0.50000000  1
  Sr  Sr5  1  0.50000000  0.50000000  0.00000000  1
  Li  Li6  1  0.36273650  0.17927350  0.11825800  1
  Li  Li7  1  0.63726350  0.82072650  0.88174200  1
  Li  Li8  1  0.63726350  0.17927350  0.88174200  1
  Li  Li9  1  0.36273650  0.82072650  0.11825800  1
  Li  Li10  1  0.86273650  0.67927350  0.11825800  1
  Li  Li11  1  0.13726350  0.32072650  0.88174200  1
  Li  Li12  1  0.13726350  0.67927350  0.88174200  1
  Li  Li13  1  0.86273650  0.32072650  0.11825800  1
  Ge  Ge14  1  0.61229100  0.00000000  0.32058700  1
  Ge  Ge15  1  0.38770900  0.00000000  0.67941300  1
  Ge  Ge16  1  0.11229100  0.50000000  0.32058700  1
  Ge  Ge17  1  0.88770900  0.50000000  0.67941300  1
  N  N18  1  0.29495650  0.84444050  0.80111600  1
  N  N19  1  0.70504350  0.15555950  0.19888400  1
  N  N20  1  0.30051800  0.00000000  0.36827200  1
  N  N21  1  0.69948200  0.00000000  0.63172800  1
  N  N22  1  0.29495650  0.15555950  0.80111600  1
  N  N23  1  0.70504350  0.84444050  0.19888400  1
  N  N24  1  0.79495650  0.34444050  0.80111600  1
  N  N25  1  0.20504350  0.65555950  0.19888400  1
  N  N26  1  0.80051800  0.50000000  0.36827200  1
  N  N27  1  0.19948200  0.50000000  0.63172800  1
  N  N28  1  0.79495650  0.65555950  0.80111600  1
  N  N29  1  0.20504350  0.34444050  0.19888400  1
