# generated using pymatgen
data_Sb2Pb2S5
_symmetry_space_group_name_H-M   'P 1'
_cell_length_a   4.00703600
_cell_length_b   11.37815600
_cell_length_c   20.45866700
_cell_angle_alpha   90.00000000
_cell_angle_beta   90.00000000
_cell_angle_gamma   90.00000000
_symmetry_Int_Tables_number   1
_chemical_formula_structural   Sb2Pb2S5
_chemical_formula_sum   'Sb8 Pb8 S20'
_cell_volume   932.76547219
_cell_formula_units_Z   4
loop_
 _symmetry_equiv_pos_site_id
 _symmetry_equiv_pos_as_xyz
  1  'x, y, z'
loop_
 _atom_site_type_symbol
 _atom_site_label
 _atom_site_symmetry_multiplicity
 _atom_site_fract_x
 _atom_site_fract_y
 _atom_site_fract_z
 _atom_site_occupancy
  Sb  Sb0  1  0.25000000  0.37880800  0.36860500  1
  Sb  Sb1  1  0.75000000  0.62119200  0.63139500  1
  Sb  Sb2  1  0.75000000  0.87880800  0.13139500  1
  Sb  Sb3  1  0.25000000  0.12119200  0.86860500  1
  Sb  Sb4  1  0.25000000  0.70290500  0.47316300  1
  Sb  Sb5  1  0.75000000  0.29709500  0.52683700  1
  Sb  Sb6  1  0.75000000  0.20290500  0.02683700  1
  Sb  Sb7  1  0.25000000  0.79709500  0.97316300  1
  Pb  Pb8  1  0.25000000  0.16882600  0.20687800  1
  Pb  Pb9  1  0.75000000  0.83117400  0.79312200  1
  Pb  Pb10  1  0.75000000  0.66882600  0.29312200  1
  Pb  Pb11  1  0.25000000  0.33117400  0.70687800  1
  Pb  Pb12  1  0.25000000  0.49879700  0.09551600  1
  Pb  Pb13  1  0.75000000  0.50120300  0.90448400  1
  Pb  Pb14  1  0.75000000  0.99879700  0.40448400  1
  Pb  Pb15  1  0.25000000  0.00120300  0.59551600  1
  S  S16  1  0.25000000  0.49221600  0.26738300  1
  S  S17  1  0.75000000  0.50778400  0.73261700  1
  S  S18  1  0.75000000  0.99221600  0.23261700  1
  S  S19  1  0.25000000  0.00778400  0.76738300  1
  S  S20  1  0.25000000  0.68522400  0.87030600  1
  S  S21  1  0.75000000  0.31477600  0.12969400  1
  S  S22  1  0.75000000  0.18522400  0.62969400  1
  S  S23  1  0.25000000  0.81477600  0.37030600  1
  S  S24  1  0.25000000  0.74866500  0.16880300  1
  S  S25  1  0.75000000  0.25133500  0.83119700  1
  S  S26  1  0.75000000  0.24866500  0.33119700  1
  S  S27  1  0.25000000  0.75133500  0.66880300  1
  S  S28  1  0.25000000  0.13835700  0.47960300  1
  S  S29  1  0.75000000  0.86164300  0.52039700  1
  S  S30  1  0.75000000  0.63835700  0.02039700  1
  S  S31  1  0.25000000  0.36164300  0.97960300  1
  S  S32  1  0.25000000  0.06806200  0.07642300  1
  S  S33  1  0.75000000  0.93193800  0.92357700  1
  S  S34  1  0.75000000  0.56806200  0.42357700  1
  S  S35  1  0.25000000  0.43193800  0.57642300  1
