# generated using pymatgen
data_PH7CN2O5
_symmetry_space_group_name_H-M   'P 1'
_cell_length_a   7.63273800
_cell_length_b   9.02345400
_cell_length_c   17.74263200
_cell_angle_alpha   90.00000000
_cell_angle_beta   90.00000000
_cell_angle_gamma   90.00000000
_symmetry_Int_Tables_number   1
_chemical_formula_structural   PH7CN2O5
_chemical_formula_sum   'P8 H56 C8 N16 O40'
_cell_volume   1222.00000808
_cell_formula_units_Z   8
loop_
 _symmetry_equiv_pos_site_id
 _symmetry_equiv_pos_as_xyz
  1  'x, y, z'
loop_
 _atom_site_type_symbol
 _atom_site_label
 _atom_site_symmetry_multiplicity
 _atom_site_fract_x
 _atom_site_fract_y
 _atom_site_fract_z
 _atom_site_occupancy
  P  P0  1  0.27929600  0.30828200  0.31171100  1
  P  P1  1  0.77929600  0.19171800  0.68828900  1
  P  P2  1  0.72070400  0.80828200  0.18828900  1
  P  P3  1  0.22070400  0.69171800  0.81171100  1
  P  P4  1  0.72070400  0.69171800  0.68828900  1
  P  P5  1  0.22070400  0.80828200  0.31171100  1
  P  P6  1  0.27929600  0.19171800  0.81171100  1
  P  P7  1  0.77929600  0.30828200  0.18828900  1
  H  H8  1  0.01134600  0.39241300  0.29397100  1
  H  H9  1  0.51134600  0.10758700  0.70602900  1
  H  H10  1  0.98865400  0.89241300  0.20602900  1
  H  H11  1  0.48865400  0.60758700  0.79397100  1
  H  H12  1  0.98865400  0.60758700  0.70602900  1
  H  H13  1  0.48865400  0.89241300  0.29397100  1
  H  H14  1  0.01134600  0.10758700  0.79397100  1
  H  H15  1  0.51134600  0.39241300  0.20602900  1
  H  H16  1  0.80740900  0.41223600  0.54979900  1
  H  H17  1  0.30740900  0.08776400  0.45020100  1
  H  H18  1  0.19259100  0.91223600  0.95020100  1
  H  H19  1  0.69259100  0.58776400  0.04979900  1
  H  H20  1  0.19259100  0.58776400  0.45020100  1
  H  H21  1  0.69259100  0.91223600  0.54979900  1
  H  H22  1  0.80740900  0.08776400  0.04979900  1
  H  H23  1  0.30740900  0.41223600  0.95020100  1
  H  H24  1  0.82256600  0.59281600  0.51210100  1
  H  H25  1  0.32256600  0.90718400  0.48789900  1
  H  H26  1  0.17743400  0.09281600  0.98789900  1
  H  H27  1  0.67743400  0.40718400  0.01210100  1
  H  H28  1  0.17743400  0.40718400  0.48789900  1
  H  H29  1  0.67743400  0.09281600  0.51210100  1
  H  H30  1  0.82256600  0.90718400  0.01210100  1
  H  H31  1  0.32256600  0.59281600  0.98789900  1
  H  H32  1  0.55905400  0.50707800  0.35151800  1
  H  H33  1  0.05905400  0.99292200  0.64848200  1
  H  H34  1  0.44094600  0.00707800  0.14848200  1
  H  H35  1  0.94094600  0.49292200  0.85151800  1
  H  H36  1  0.44094600  0.49292200  0.64848200  1
  H  H37  1  0.94094600  0.00707800  0.35151800  1
  H  H38  1  0.55905400  0.99292200  0.85151800  1
  H  H39  1  0.05905400  0.50707800  0.14848200  1
  H  H40  1  0.67648300  0.64715900  0.39786600  1
  H  H41  1  0.17648300  0.85284100  0.60213400  1
  H  H42  1  0.32351700  0.14715900  0.10213400  1
  H  H43  1  0.82351700  0.35284100  0.89786600  1
  H  H44  1  0.32351700  0.35284100  0.60213400  1
  H  H45  1  0.82351700  0.14715900  0.39786600  1
  H  H46  1  0.67648300  0.85284100  0.89786600  1
  H  H47  1  0.17648300  0.64715900  0.10213400  1
  H  H48  1  0.19815300  0.09152300  0.26135500  1
  H  H49  1  0.69815300  0.40847700  0.73864500  1
  H  H50  1  0.80184700  0.59152300  0.23864500  1
  H  H51  1  0.30184700  0.90847700  0.76135500  1
  H  H52  1  0.80184700  0.90847700  0.73864500  1
  H  H53  1  0.30184700  0.59152300  0.26135500  1
  H  H54  1  0.19815300  0.40847700  0.76135500  1
  H  H55  1  0.69815300  0.09152300  0.23864500  1
  H  H56  1  0.51115200  0.28301900  0.41187400  1
  H  H57  1  0.01115200  0.21698100  0.58812600  1
  H  H58  1  0.48884800  0.78301900  0.08812600  1
  H  H59  1  0.98884800  0.71698100  0.91187400  1
  H  H60  1  0.48884800  0.71698100  0.58812600  1
  H  H61  1  0.98884800  0.78301900  0.41187400  1
  H  H62  1  0.51115200  0.21698100  0.91187400  1
  H  H63  1  0.01115200  0.28301900  0.08812600  1
  C  C64  1  0.68175600  0.44468400  0.44953800  1
  C  C65  1  0.18175600  0.05531600  0.55046200  1
  C  C66  1  0.31824400  0.94468400  0.05046200  1
  C  C67  1  0.81824400  0.55531600  0.94953800  1
  C  C68  1  0.31824400  0.55531600  0.55046200  1
  C  C69  1  0.81824400  0.94468400  0.44953800  1
  C  C70  1  0.68175600  0.05531600  0.94953800  1
  C  C71  1  0.18175600  0.44468400  0.05046200  1
  N  N72  1  0.78408800  0.48550900  0.50664600  1
  N  N73  1  0.28408800  0.01449100  0.49335400  1
  N  N74  1  0.21591200  0.98550900  0.99335400  1
  N  N75  1  0.71591200  0.51449100  0.00664600  1
  N  N76  1  0.21591200  0.51449100  0.49335400  1
  N  N77  1  0.71591200  0.98550900  0.50664600  1
  N  N78  1  0.78408800  0.01449100  0.00664600  1
  N  N79  1  0.28408800  0.48550900  0.99335400  1
  N  N80  1  0.63136100  0.54114200  0.39698000  1
  N  N81  1  0.13136100  0.95885800  0.60302000  1
  N  N82  1  0.36863900  0.04114200  0.10302000  1
  N  N83  1  0.86863900  0.45885800  0.89698000  1
  N  N84  1  0.36863900  0.45885800  0.60302000  1
  N  N85  1  0.86863900  0.04114200  0.39698000  1
  N  N86  1  0.63136100  0.95885800  0.89698000  1
  N  N87  1  0.13136100  0.54114200  0.10302000  1
  O  O88  1  0.09157600  0.36357900  0.33737300  1
  O  O89  1  0.59157600  0.13642100  0.66262700  1
  O  O90  1  0.90842400  0.86357900  0.16262700  1
  O  O91  1  0.40842400  0.63642100  0.83737300  1
  O  O92  1  0.90842400  0.63642100  0.66262700  1
  O  O93  1  0.40842400  0.86357900  0.33737300  1
  O  O94  1  0.09157600  0.13642100  0.83737300  1
  O  O95  1  0.59157600  0.36357900  0.16262700  1
  O  O96  1  0.38745500  0.43496300  0.27717200  1
  O  O97  1  0.88745500  0.06503700  0.72282800  1
  O  O98  1  0.61254500  0.93496300  0.22282800  1
  O  O99  1  0.11254500  0.56503700  0.77717200  1
  O  O100  1  0.61254500  0.56503700  0.72282800  1
  O  O101  1  0.11254500  0.93496300  0.27717200  1
  O  O102  1  0.38745500  0.06503700  0.77717200  1
  O  O103  1  0.88745500  0.43496300  0.22282800  1
  O  O104  1  0.25445800  0.19031000  0.24697400  1
  O  O105  1  0.75445800  0.30969000  0.75302600  1
  O  O106  1  0.74554200  0.69031000  0.25302600  1
  O  O107  1  0.24554200  0.80969000  0.74697400  1
  O  O108  1  0.74554200  0.80969000  0.75302600  1
  O  O109  1  0.24554200  0.69031000  0.24697400  1
  O  O110  1  0.25445800  0.30969000  0.74697400  1
  O  O111  1  0.75445800  0.19031000  0.25302600  1
  O  O112  1  0.36321800  0.24079300  0.38213200  1
  O  O113  1  0.86321800  0.25920700  0.61786800  1
  O  O114  1  0.63678200  0.74079300  0.11786800  1
  O  O115  1  0.13678200  0.75920700  0.88213200  1
  O  O116  1  0.63678200  0.75920700  0.61786800  1
  O  O117  1  0.13678200  0.74079300  0.38213200  1
  O  O118  1  0.36321800  0.25920700  0.88213200  1
  O  O119  1  0.86321800  0.24079300  0.11786800  1
  O  O120  1  0.63242200  0.30566300  0.44640000  1
  O  O121  1  0.13242200  0.19433700  0.55360000  1
  O  O122  1  0.36757800  0.80566300  0.05360000  1
  O  O123  1  0.86757800  0.69433700  0.94640000  1
  O  O124  1  0.36757800  0.69433700  0.55360000  1
  O  O125  1  0.86757800  0.80566300  0.44640000  1
  O  O126  1  0.63242200  0.19433700  0.94640000  1
  O  O127  1  0.13242200  0.30566300  0.05360000  1
