# generated using pymatgen
data_Nd4Ga2O9
_symmetry_space_group_name_H-M   'P 1'
_cell_length_a   7.81794400
_cell_length_b   11.07774200
_cell_length_c   11.65171127
_cell_angle_alpha   90.00000000
_cell_angle_beta   108.99849630
_cell_angle_gamma   90.00000000
_symmetry_Int_Tables_number   1
_chemical_formula_structural   Nd4Ga2O9
_chemical_formula_sum   'Nd16 Ga8 O36'
_cell_volume   954.12989991
_cell_formula_units_Z   4
loop_
 _symmetry_equiv_pos_site_id
 _symmetry_equiv_pos_as_xyz
  1  'x, y, z'
loop_
 _atom_site_type_symbol
 _atom_site_label
 _atom_site_symmetry_multiplicity
 _atom_site_fract_x
 _atom_site_fract_y
 _atom_site_fract_z
 _atom_site_occupancy
  Nd  Nd0  1  0.47767500  0.39410200  0.71667500  1
  Nd  Nd1  1  0.47767500  0.10589800  0.21667500  1
  Nd  Nd2  1  0.33586200  0.87674000  0.43182800  1
  Nd  Nd3  1  0.02339600  0.90890300  0.80612300  1
  Nd  Nd4  1  0.97660400  0.40890300  0.69387700  1
  Nd  Nd5  1  0.66413800  0.12326000  0.56817200  1
  Nd  Nd6  1  0.02339600  0.59109700  0.30612300  1
  Nd  Nd7  1  0.33586200  0.62326000  0.93182800  1
  Nd  Nd8  1  0.83490600  0.62001300  0.91114300  1
  Nd  Nd9  1  0.83490600  0.87998700  0.41114300  1
  Nd  Nd10  1  0.52232500  0.60589800  0.28332500  1
  Nd  Nd11  1  0.66413800  0.37674000  0.06817200  1
  Nd  Nd12  1  0.52232500  0.89410200  0.78332500  1
  Nd  Nd13  1  0.97660400  0.09109700  0.19387700  1
  Nd  Nd14  1  0.16509400  0.37998700  0.08885700  1
  Nd  Nd15  1  0.16509400  0.12001300  0.58885700  1
  Ga  Ga16  1  0.78387100  0.18549300  0.87383000  1
  Ga  Ga17  1  0.65605100  0.68282700  0.61419000  1
  Ga  Ga18  1  0.65605100  0.81717300  0.11419000  1
  Ga  Ga19  1  0.34394900  0.31717300  0.38581000  1
  Ga  Ga20  1  0.34394900  0.18282700  0.88581000  1
  Ga  Ga21  1  0.78387100  0.31450700  0.37383000  1
  Ga  Ga22  1  0.21612900  0.68549300  0.62617000  1
  Ga  Ga23  1  0.21612900  0.81450700  0.12617000  1
  O  O24  1  0.43285200  0.74919500  0.61323900  1
  O  O25  1  0.36100500  0.22978000  0.04015100  1
  O  O26  1  0.78597500  0.77304400  0.74930100  1
  O  O27  1  0.07788300  0.00592200  0.39471600  1
  O  O28  1  0.56636500  0.50956200  0.89594300  1
  O  O29  1  0.29704400  0.02736200  0.82462800  1
  O  O30  1  0.23432900  0.77096000  0.76833900  1
  O  O31  1  0.21618400  0.52425400  0.66246300  1
  O  O32  1  0.29704400  0.47263800  0.32462800  1
  O  O33  1  0.92211700  0.50592200  0.10528400  1
  O  O34  1  0.78597500  0.72695600  0.24930100  1
  O  O35  1  0.76567100  0.27096000  0.73166100  1
  O  O36  1  0.36100500  0.27022000  0.54015100  1
  O  O37  1  0.23432900  0.72904000  0.26833900  1
  O  O38  1  0.56636500  0.99043800  0.39594300  1
  O  O39  1  0.07402200  0.73563500  0.47504000  1
  O  O40  1  0.78381600  0.47574600  0.33753700  1
  O  O41  1  0.07402200  0.76436500  0.97504000  1
  O  O42  1  0.21618400  0.97574600  0.16246300  1
  O  O43  1  0.63899500  0.77022000  0.95984900  1
  O  O44  1  0.43285200  0.75080500  0.11323900  1
  O  O45  1  0.92211700  0.99407800  0.60528400  1
  O  O46  1  0.63899500  0.72978000  0.45984900  1
  O  O47  1  0.43363500  0.00956200  0.60405700  1
  O  O48  1  0.92597800  0.26436500  0.52496000  1
  O  O49  1  0.92597800  0.23563500  0.02496000  1
  O  O50  1  0.70295600  0.97263800  0.17537200  1
  O  O51  1  0.21402500  0.27304400  0.75069900  1
  O  O52  1  0.76567100  0.22904000  0.23166100  1
  O  O53  1  0.78381600  0.02425400  0.83753700  1
  O  O54  1  0.21402500  0.22695600  0.25069900  1
  O  O55  1  0.70295600  0.52736200  0.67537200  1
  O  O56  1  0.07788300  0.49407800  0.89471600  1
  O  O57  1  0.56714800  0.25080500  0.38676100  1
  O  O58  1  0.56714800  0.24919500  0.88676100  1
  O  O59  1  0.43363500  0.49043800  0.10405700  1
