# generated using pymatgen
data_KMg4(PO4)3
_symmetry_space_group_name_H-M   'P 1'
_cell_length_a   6.23398500
_cell_length_b   9.67637100
_cell_length_c   16.56205700
_cell_angle_alpha   90.00000000
_cell_angle_beta   90.00000000
_cell_angle_gamma   90.00000000
_symmetry_Int_Tables_number   1
_chemical_formula_structural   KMg4(PO4)3
_chemical_formula_sum   'K4 Mg16 P12 O48'
_cell_volume   999.06222671
_cell_formula_units_Z   4
loop_
 _symmetry_equiv_pos_site_id
 _symmetry_equiv_pos_as_xyz
  1  'x, y, z'
loop_
 _atom_site_type_symbol
 _atom_site_label
 _atom_site_symmetry_multiplicity
 _atom_site_fract_x
 _atom_site_fract_y
 _atom_site_fract_z
 _atom_site_occupancy
  K  K0  1  0.00000000  0.20080600  0.96518600  1
  K  K1  1  0.50000000  0.29919400  0.46518600  1
  K  K2  1  0.00000000  0.79919400  0.03481400  1
  K  K3  1  0.50000000  0.70080600  0.53481400  1
  Mg  Mg4  1  0.24682100  0.24902900  0.20181200  1
  Mg  Mg5  1  0.00000000  0.51925700  0.64189700  1
  Mg  Mg6  1  0.25317900  0.25097100  0.70181200  1
  Mg  Mg7  1  0.25317900  0.74902900  0.29818800  1
  Mg  Mg8  1  0.74682100  0.74902900  0.29818800  1
  Mg  Mg9  1  0.00000000  0.03649500  0.40812100  1
  Mg  Mg10  1  0.50000000  0.53649500  0.09187900  1
  Mg  Mg11  1  0.00000000  0.48074300  0.35810300  1
  Mg  Mg12  1  0.24682100  0.75097100  0.79818800  1
  Mg  Mg13  1  0.75317900  0.24902900  0.20181200  1
  Mg  Mg14  1  0.50000000  0.46350500  0.90812100  1
  Mg  Mg15  1  0.00000000  0.96350500  0.59187900  1
  Mg  Mg16  1  0.75317900  0.75097100  0.79818800  1
  Mg  Mg17  1  0.50000000  0.98074300  0.14189700  1
  Mg  Mg18  1  0.74682100  0.25097100  0.70181200  1
  Mg  Mg19  1  0.50000000  0.01925700  0.85810300  1
  P  P20  1  0.50000000  0.45617600  0.27879100  1
  P  P21  1  0.00000000  0.70898400  0.46381400  1
  P  P22  1  0.50000000  0.04436700  0.33360300  1
  P  P23  1  0.50000000  0.54382400  0.72120900  1
  P  P24  1  0.00000000  0.04382400  0.77879100  1
  P  P25  1  0.50000000  0.79101600  0.96381400  1
  P  P26  1  0.00000000  0.95617600  0.22120900  1
  P  P27  1  0.50000000  0.20898400  0.03618600  1
  P  P28  1  0.00000000  0.54436700  0.16639700  1
  P  P29  1  0.00000000  0.45563300  0.83360300  1
  P  P30  1  0.50000000  0.95563300  0.66639700  1
  P  P31  1  0.00000000  0.29101600  0.53618600  1
  O  O32  1  0.00000000  0.13258300  0.52056700  1
  O  O33  1  0.79776600  0.41002400  0.87827300  1
  O  O34  1  0.30346100  0.83604400  0.91085600  1
  O  O35  1  0.19653900  0.33604400  0.58914400  1
  O  O36  1  0.70666000  0.60033900  0.68219000  1
  O  O37  1  0.79334000  0.10033900  0.81781000  1
  O  O38  1  0.50000000  0.11558600  0.24579300  1
  O  O39  1  0.70666000  0.39966100  0.31781000  1
  O  O40  1  0.20666000  0.10033900  0.81781000  1
  O  O41  1  0.50000000  0.61650400  0.27330200  1
  O  O42  1  0.50000000  0.36741700  0.02056700  1
  O  O43  1  0.69653900  0.16395600  0.08914400  1
  O  O44  1  0.50000000  0.60748100  0.80952200  1
  O  O45  1  0.20223400  0.58997600  0.12172700  1
  O  O46  1  0.29776600  0.08997600  0.37827300  1
  O  O47  1  0.79334000  0.89966100  0.18219000  1
  O  O48  1  0.80346100  0.66395600  0.41085600  1
  O  O49  1  0.00000000  0.88349600  0.77330200  1
  O  O50  1  0.70223400  0.08997600  0.37827300  1
  O  O51  1  0.20223400  0.41002400  0.87827300  1
  O  O52  1  0.20666000  0.89966100  0.18219000  1
  O  O53  1  0.19653900  0.66395600  0.41085600  1
  O  O54  1  0.00000000  0.10748100  0.69047800  1
  O  O55  1  0.50000000  0.39251900  0.19047800  1
  O  O56  1  0.30346100  0.16395600  0.08914400  1
  O  O57  1  0.29776600  0.91002400  0.62172700  1
  O  O58  1  0.00000000  0.38441400  0.74579300  1
  O  O59  1  0.00000000  0.61616600  0.82000500  1
  O  O60  1  0.50000000  0.88441400  0.75420700  1
  O  O61  1  0.00000000  0.63827500  0.54586100  1
  O  O62  1  0.50000000  0.38349600  0.72669800  1
  O  O63  1  0.50000000  0.11616600  0.67999500  1
  O  O64  1  0.00000000  0.38383400  0.17999500  1
  O  O65  1  0.00000000  0.89251900  0.30952200  1
  O  O66  1  0.69653900  0.83604400  0.91085600  1
  O  O67  1  0.29334000  0.60033900  0.68219000  1
  O  O68  1  0.50000000  0.86172500  0.04586100  1
  O  O69  1  0.50000000  0.13827500  0.95413900  1
  O  O70  1  0.70223400  0.91002400  0.62172700  1
  O  O71  1  0.29334000  0.39966100  0.31781000  1
  O  O72  1  0.80346100  0.33604400  0.58914400  1
  O  O73  1  0.00000000  0.11650400  0.22669800  1
  O  O74  1  0.00000000  0.61558600  0.25420700  1
  O  O75  1  0.00000000  0.86741700  0.47943300  1
  O  O76  1  0.00000000  0.36172500  0.45413900  1
  O  O77  1  0.79776600  0.58997600  0.12172700  1
  O  O78  1  0.50000000  0.63258300  0.97943300  1
  O  O79  1  0.50000000  0.88383400  0.32000500  1
