# generated using pymatgen
data_KNb2PS10
_symmetry_space_group_name_H-M   'P 1'
_cell_length_a   7.88311300
_cell_length_b   13.12532800
_cell_length_c   13.94504000
_cell_angle_alpha   90.00000000
_cell_angle_beta   90.00000000
_cell_angle_gamma   90.00000000
_symmetry_Int_Tables_number   1
_chemical_formula_structural   KNb2PS10
_chemical_formula_sum   'K4 Nb8 P4 S40'
_cell_volume   1442.87158733
_cell_formula_units_Z   4
loop_
 _symmetry_equiv_pos_site_id
 _symmetry_equiv_pos_as_xyz
  1  'x, y, z'
loop_
 _atom_site_type_symbol
 _atom_site_label
 _atom_site_symmetry_multiplicity
 _atom_site_fract_x
 _atom_site_fract_y
 _atom_site_fract_z
 _atom_site_occupancy
  K  K0  1  0.50227900  0.88152200  0.65160200  1
  K  K1  1  0.49772100  0.11847800  0.15160200  1
  K  K2  1  0.49772100  0.38152200  0.65160200  1
  K  K3  1  0.50227900  0.61847800  0.15160200  1
  Nb  Nb4  1  0.06933900  0.81353700  0.38733900  1
  Nb  Nb5  1  0.93066100  0.18646300  0.88733900  1
  Nb  Nb6  1  0.93066100  0.31353700  0.38733900  1
  Nb  Nb7  1  0.06933900  0.68646300  0.88733900  1
  Nb  Nb8  1  0.94869200  0.02399700  0.38650000  1
  Nb  Nb9  1  0.05130800  0.97600300  0.88650000  1
  Nb  Nb10  1  0.05130800  0.52399700  0.38650000  1
  Nb  Nb11  1  0.94869200  0.47600300  0.88650000  1
  P  P12  1  0.38947200  0.66033100  0.45953600  1
  P  P13  1  0.61052800  0.33966900  0.95953600  1
  P  P14  1  0.61052800  0.16033100  0.45953600  1
  P  P15  1  0.38947200  0.83966900  0.95953600  1
  S  S16  1  0.14003700  0.66648800  0.51269800  1
  S  S17  1  0.85996300  0.33351200  0.01269800  1
  S  S18  1  0.85996300  0.16648800  0.51269800  1
  S  S19  1  0.14003700  0.83351200  0.01269800  1
  S  S20  1  0.39663400  0.79274000  0.38016100  1
  S  S21  1  0.60336600  0.20726000  0.88016100  1
  S  S22  1  0.60336600  0.29274000  0.38016100  1
  S  S23  1  0.39663400  0.70726000  0.88016100  1
  S  S24  1  0.89893900  0.89839200  0.25516900  1
  S  S25  1  0.10106100  0.10160800  0.75516900  1
  S  S26  1  0.10106100  0.39839200  0.25516900  1
  S  S27  1  0.89893900  0.60160800  0.75516900  1
  S  S28  1  0.88661800  0.89074300  0.51439800  1
  S  S29  1  0.11338200  0.10925700  0.01439800  1
  S  S30  1  0.11338200  0.39074300  0.51439800  1
  S  S31  1  0.88661800  0.60925700  0.01439800  1
  S  S32  1  0.05024700  0.66891600  0.26223500  1
  S  S33  1  0.94975300  0.33108400  0.76223500  1
  S  S34  1  0.94975300  0.16891600  0.26223500  1
  S  S35  1  0.05024700  0.83108400  0.76223500  1
  S  S36  1  0.12800100  0.94807900  0.51739200  1
  S  S37  1  0.87199900  0.05192100  0.01739200  1
  S  S38  1  0.87199900  0.44807900  0.51739200  1
  S  S39  1  0.12800100  0.55192100  0.01739200  1
  S  S40  1  0.56952000  0.65082700  0.55875400  1
  S  S41  1  0.43048000  0.34917300  0.05875400  1
  S  S42  1  0.43048000  0.15082700  0.55875400  1
  S  S43  1  0.56952000  0.84917300  0.05875400  1
  S  S44  1  0.84655600  0.67376800  0.35389300  1
  S  S45  1  0.15344400  0.32623200  0.85389300  1
  S  S46  1  0.15344400  0.17376800  0.35389300  1
  S  S47  1  0.84655600  0.82623200  0.85389300  1
  S  S48  1  0.37966100  0.53256000  0.37239800  1
  S  S49  1  0.62033900  0.46744000  0.87239800  1
  S  S50  1  0.62033900  0.03256000  0.37239800  1
  S  S51  1  0.37966100  0.96744000  0.87239800  1
  S  S52  1  0.14410400  0.94410900  0.26377600  1
  S  S53  1  0.85589600  0.05589100  0.76377600  1
  S  S54  1  0.85589600  0.44410900  0.26377600  1
  S  S55  1  0.14410400  0.55589100  0.76377600  1
