# generated using pymatgen
data_YAg3(PS4)2
_symmetry_space_group_name_H-M   'P 1'
_cell_length_a   17.22350800
_cell_length_b   9.34325400
_cell_length_c   9.49073951
_cell_angle_alpha   90.00000000
_cell_angle_beta   123.42690954
_cell_angle_gamma   90.00000000
_symmetry_Int_Tables_number   1
_chemical_formula_structural   YAg3(PS4)2
_chemical_formula_sum   'Y4 Ag12 P8 S32'
_cell_volume   1274.65483394
_cell_formula_units_Z   4
loop_
 _symmetry_equiv_pos_site_id
 _symmetry_equiv_pos_as_xyz
  1  'x, y, z'
loop_
 _atom_site_type_symbol
 _atom_site_label
 _atom_site_symmetry_multiplicity
 _atom_site_fract_x
 _atom_site_fract_y
 _atom_site_fract_z
 _atom_site_occupancy
  Y  Y0  1  0.00000000  0.96525800  0.75000000  1
  Y  Y1  1  0.00000000  0.03474200  0.25000000  1
  Y  Y2  1  0.50000000  0.46525800  0.75000000  1
  Y  Y3  1  0.50000000  0.53474200  0.25000000  1
  Ag  Ag4  1  0.15264350  0.38306450  0.77473100  1
  Ag  Ag5  1  0.34735650  0.88306450  0.72526900  1
  Ag  Ag6  1  0.34735650  0.11693550  0.22526900  1
  Ag  Ag7  1  0.15264350  0.61693550  0.27473100  1
  Ag  Ag8  1  0.00000000  0.56996500  0.75000000  1
  Ag  Ag9  1  0.00000000  0.43003500  0.25000000  1
  Ag  Ag10  1  0.65264350  0.88306450  0.77473100  1
  Ag  Ag11  1  0.84735650  0.38306450  0.72526900  1
  Ag  Ag12  1  0.84735650  0.61693550  0.22526900  1
  Ag  Ag13  1  0.65264350  0.11693550  0.27473100  1
  Ag  Ag14  1  0.50000000  0.06996500  0.75000000  1
  Ag  Ag15  1  0.50000000  0.93003500  0.25000000  1
  P  P16  1  0.09773700  0.24209800  0.06781000  1
  P  P17  1  0.40226300  0.74209800  0.43219000  1
  P  P18  1  0.40226300  0.25790200  0.93219000  1
  P  P19  1  0.09773700  0.75790200  0.56781000  1
  P  P20  1  0.59773700  0.74209800  0.06781000  1
  P  P21  1  0.90226300  0.24209800  0.43219000  1
  P  P22  1  0.90226300  0.75790200  0.93219000  1
  P  P23  1  0.59773700  0.25790200  0.56781000  1
  S  S24  1  0.04128200  0.82402500  0.07899900  1
  S  S25  1  0.36547650  0.73603550  0.18693300  1
  S  S26  1  0.37486450  0.05376650  0.97741900  1
  S  S27  1  0.36547650  0.26396450  0.68693300  1
  S  S28  1  0.33271950  0.59374350  0.48094900  1
  S  S29  1  0.45871800  0.67597500  0.92100100  1
  S  S30  1  0.16728050  0.09374350  0.01905100  1
  S  S31  1  0.16728050  0.90625650  0.51905100  1
  S  S32  1  0.33271950  0.40625650  0.98094900  1
  S  S33  1  0.04128200  0.17597500  0.57899900  1
  S  S34  1  0.13452350  0.23603550  0.31306700  1
  S  S35  1  0.13452350  0.76396450  0.81306700  1
  S  S36  1  0.12513550  0.44623350  0.02258100  1
  S  S37  1  0.37486450  0.94623350  0.47741900  1
  S  S38  1  0.45871800  0.32402500  0.42100100  1
  S  S39  1  0.12513550  0.55376650  0.52258100  1
  S  S40  1  0.54128200  0.32402500  0.07899900  1
  S  S41  1  0.86547650  0.23603550  0.18693300  1
  S  S42  1  0.87486450  0.55376650  0.97741900  1
  S  S43  1  0.86547650  0.76396450  0.68693300  1
  S  S44  1  0.83271950  0.09374350  0.48094900  1
  S  S45  1  0.95871800  0.17597500  0.92100100  1
  S  S46  1  0.66728050  0.59374350  0.01905100  1
  S  S47  1  0.66728050  0.40625650  0.51905100  1
  S  S48  1  0.83271950  0.90625650  0.98094900  1
  S  S49  1  0.54128200  0.67597500  0.57899900  1
  S  S50  1  0.63452350  0.73603550  0.31306700  1
  S  S51  1  0.63452350  0.26396450  0.81306700  1
  S  S52  1  0.62513550  0.94623350  0.02258100  1
  S  S53  1  0.87486450  0.44623350  0.47741900  1
  S  S54  1  0.95871800  0.82402500  0.42100100  1
  S  S55  1  0.62513550  0.05376650  0.52258100  1
