# generated using pymatgen
data_Sr2C(NCl)2
_symmetry_space_group_name_H-M   'P 1'
_cell_length_a   9.71645600
_cell_length_b   4.30281000
_cell_length_c   7.34312223
_cell_angle_alpha   90.00000000
_cell_angle_beta   97.81519184
_cell_angle_gamma   90.00000000
_symmetry_Int_Tables_number   1
_chemical_formula_structural   Sr2C(NCl)2
_chemical_formula_sum   'Sr4 C2 N4 Cl4'
_cell_volume   304.15023764
_cell_formula_units_Z   2
loop_
 _symmetry_equiv_pos_site_id
 _symmetry_equiv_pos_as_xyz
  1  'x, y, z'
loop_
 _atom_site_type_symbol
 _atom_site_label
 _atom_site_symmetry_multiplicity
 _atom_site_fract_x
 _atom_site_fract_y
 _atom_site_fract_z
 _atom_site_occupancy
  Sr  Sr0  1  0.81735000  0.50000000  0.72804500  1
  Sr  Sr1  1  0.68265000  0.00000000  0.27195500  1
  Sr  Sr2  1  0.31735000  0.00000000  0.72804500  1
  Sr  Sr3  1  0.18265000  0.50000000  0.27195500  1
  C  C4  1  0.00000000  0.00000000  0.50000000  1
  C  C5  1  0.50000000  0.50000000  0.50000000  1
  N  N6  1  0.88462300  0.00000000  0.55410400  1
  N  N7  1  0.61537700  0.50000000  0.44589600  1
  N  N8  1  0.38462300  0.50000000  0.55410400  1
  N  N9  1  0.11537700  0.00000000  0.44589600  1
  Cl  Cl10  1  0.62997800  0.00000000  0.85245500  1
  Cl  Cl11  1  0.87002200  0.50000000  0.14754500  1
  Cl  Cl12  1  0.12997800  0.50000000  0.85245500  1
  Cl  Cl13  1  0.37002200  0.00000000  0.14754500  1
