# generated using pymatgen
data_TiTlPS5
_symmetry_space_group_name_H-M   'P 1'
_cell_length_a   6.74694400
_cell_length_b   7.11729269
_cell_length_c   9.40704604
_cell_angle_alpha   106.78025896
_cell_angle_beta   99.71960459
_cell_angle_gamma   91.61313930
_symmetry_Int_Tables_number   1
_chemical_formula_structural   TiTlPS5
_chemical_formula_sum   'Ti2 Tl2 P2 S10'
_cell_volume   424.86566906
_cell_formula_units_Z   2
loop_
 _symmetry_equiv_pos_site_id
 _symmetry_equiv_pos_as_xyz
  1  'x, y, z'
loop_
 _atom_site_type_symbol
 _atom_site_label
 _atom_site_symmetry_multiplicity
 _atom_site_fract_x
 _atom_site_fract_y
 _atom_site_fract_z
 _atom_site_occupancy
  Ti  Ti0  1  0.50308400  0.27696500  0.00053800  1
  Ti  Ti1  1  0.49691600  0.72303500  0.99946200  1
  Tl  Tl2  1  0.72725600  0.69233000  0.44196300  1
  Tl  Tl3  1  0.27274400  0.30767000  0.55803700  1
  P  P4  1  0.28380300  0.89414600  0.73281600  1
  P  P5  1  0.71619700  0.10585400  0.26718400  1
  S  S6  1  0.17457600  0.69254000  0.82644400  1
  S  S7  1  0.34529900  0.54268100  0.12537500  1
  S  S8  1  0.41015500  0.06122300  0.16930000  1
  S  S9  1  0.58984500  0.93877700  0.83070000  1
  S  S10  1  0.17738000  0.16174400  0.83032100  1
  S  S11  1  0.77272100  0.19000400  0.49178000  1
  S  S12  1  0.65470100  0.45731900  0.87462500  1
  S  S13  1  0.22727900  0.80999600  0.50822000  1
  S  S14  1  0.82262000  0.83825600  0.16967900  1
  S  S15  1  0.82542400  0.30746000  0.17355600  1
