# generated using pymatgen
data_SrHo2O4
_symmetry_space_group_name_H-M   'P 1'
_cell_length_a   3.41378100
_cell_length_b   10.11533000
_cell_length_c   11.95325600
_cell_angle_alpha   90.00000000
_cell_angle_beta   90.00000000
_cell_angle_gamma   90.00000000
_symmetry_Int_Tables_number   1
_chemical_formula_structural   SrHo2O4
_chemical_formula_sum   'Sr4 Ho8 O16'
_cell_volume   412.76411492
_cell_formula_units_Z   4
loop_
 _symmetry_equiv_pos_site_id
 _symmetry_equiv_pos_as_xyz
  1  'x, y, z'
loop_
 _atom_site_type_symbol
 _atom_site_label
 _atom_site_symmetry_multiplicity
 _atom_site_fract_x
 _atom_site_fract_y
 _atom_site_fract_z
 _atom_site_occupancy
  Sr  Sr0  1  0.25000000  0.74736800  0.85080300  1
  Sr  Sr1  1  0.25000000  0.24736800  0.64919700  1
  Sr  Sr2  1  0.75000000  0.75263200  0.35080300  1
  Sr  Sr3  1  0.75000000  0.25263200  0.14919700  1
  Ho  Ho4  1  0.75000000  0.42325200  0.88938600  1
  Ho  Ho5  1  0.25000000  0.07697200  0.88791300  1
  Ho  Ho6  1  0.75000000  0.42302800  0.38791300  1
  Ho  Ho7  1  0.25000000  0.07674800  0.38938600  1
  Ho  Ho8  1  0.75000000  0.92325200  0.61061400  1
  Ho  Ho9  1  0.75000000  0.92302800  0.11208700  1
  Ho  Ho10  1  0.25000000  0.57674800  0.11061400  1
  Ho  Ho11  1  0.25000000  0.57697200  0.61208700  1
  O  O12  1  0.25000000  0.57398200  0.42278700  1
  O  O13  1  0.75000000  0.12493200  0.51952000  1
  O  O14  1  0.25000000  0.48556800  0.78378900  1
  O  O15  1  0.75000000  0.51443200  0.21621100  1
  O  O16  1  0.75000000  0.01443200  0.28378900  1
  O  O17  1  0.75000000  0.62493200  0.98048000  1
  O  O18  1  0.25000000  0.28832700  0.32594300  1
  O  O19  1  0.75000000  0.92601800  0.92278700  1
  O  O20  1  0.75000000  0.21167300  0.82594300  1
  O  O21  1  0.25000000  0.87506800  0.48048000  1
  O  O22  1  0.75000000  0.71167300  0.67405700  1
  O  O23  1  0.25000000  0.78832700  0.17405700  1
  O  O24  1  0.25000000  0.98556800  0.71621100  1
  O  O25  1  0.75000000  0.42601800  0.57721300  1
  O  O26  1  0.25000000  0.07398200  0.07721300  1
  O  O27  1  0.25000000  0.37506800  0.01952000  1
