# generated using pymatgen
data_MgAl2O4
_symmetry_space_group_name_H-M   'P 1'
_cell_length_a   9.99260400
_cell_length_b   5.75770400
_cell_length_c   19.20826280
_cell_angle_alpha   90.00000000
_cell_angle_beta   100.08321170
_cell_angle_gamma   90.00000000
_symmetry_Int_Tables_number   1
_chemical_formula_structural   MgAl2O4
_chemical_formula_sum   'Mg16 Al32 O64'
_cell_volume   1088.06758287
_cell_formula_units_Z   16
loop_
 _symmetry_equiv_pos_site_id
 _symmetry_equiv_pos_as_xyz
  1  'x, y, z'
loop_
 _atom_site_type_symbol
 _atom_site_label
 _atom_site_symmetry_multiplicity
 _atom_site_fract_x
 _atom_site_fract_y
 _atom_site_fract_z
 _atom_site_occupancy
  Mg  Mg0  1  0.34432700  0.50000000  0.03366600  1
  Mg  Mg1  1  0.59491800  0.00000000  0.28569200  1
  Mg  Mg2  1  0.25093300  0.00000000  0.25260800  1
  Mg  Mg3  1  0.37303600  0.50000000  0.62412800  1
  Mg  Mg4  1  0.59429700  0.50000000  0.77758100  1
  Mg  Mg5  1  0.65405600  0.00000000  0.46676000  1
  Mg  Mg6  1  0.50018700  0.00000000  0.00131500  1
  Mg  Mg7  1  0.40358500  0.00000000  0.72150900  1
  Mg  Mg8  1  0.84432700  0.00000000  0.03366600  1
  Mg  Mg9  1  0.09491800  0.50000000  0.28569200  1
  Mg  Mg10  1  0.75093300  0.50000000  0.25260800  1
  Mg  Mg11  1  0.87303600  0.00000000  0.62412800  1
  Mg  Mg12  1  0.09429700  0.00000000  0.77758100  1
  Mg  Mg13  1  0.15405600  0.50000000  0.46676000  1
  Mg  Mg14  1  0.00018700  0.50000000  0.00131500  1
  Mg  Mg15  1  0.90358500  0.50000000  0.72150900  1
  Al  Al16  1  0.37961500  0.00000000  0.12470100  1
  Al  Al17  1  0.12254900  0.25694400  0.12468900  1
  Al  Al18  1  0.12254900  0.74305600  0.12468900  1
  Al  Al19  1  0.62600700  0.50000000  0.37491300  1
  Al  Al20  1  0.37447200  0.75104400  0.37508700  1
  Al  Al21  1  0.34869800  0.00000000  0.53115600  1
  Al  Al22  1  0.37447200  0.24895600  0.37508700  1
  Al  Al23  1  0.62685950  0.24473850  0.62515800  1
  Al  Al24  1  0.40461800  0.50000000  0.21370200  1
  Al  Al25  1  0.49982500  0.50000000  0.49704700  1
  Al  Al26  1  0.62685950  0.75526150  0.62515800  1
  Al  Al27  1  0.62734400  0.00000000  0.87470400  1
  Al  Al28  1  0.87344150  0.75428150  0.87432300  1
  Al  Al29  1  0.74864700  0.00000000  0.74893100  1
  Al  Al30  1  0.87344150  0.24571850  0.87432300  1
  Al  Al31  1  0.65587500  0.50000000  0.96728500  1
  Al  Al32  1  0.87961500  0.50000000  0.12470100  1
  Al  Al33  1  0.62254900  0.75694400  0.12468900  1
  Al  Al34  1  0.62254900  0.24305600  0.12468900  1
  Al  Al35  1  0.12600700  0.00000000  0.37491300  1
  Al  Al36  1  0.87447200  0.25104400  0.37508700  1
  Al  Al37  1  0.84869800  0.50000000  0.53115600  1
  Al  Al38  1  0.87447200  0.74895600  0.37508700  1
  Al  Al39  1  0.12685950  0.74473850  0.62515800  1
  Al  Al40  1  0.90461800  0.00000000  0.21370200  1
  Al  Al41  1  0.99982500  0.00000000  0.49704700  1
  Al  Al42  1  0.12685950  0.25526150  0.62515800  1
  Al  Al43  1  0.12734400  0.50000000  0.87470400  1
  Al  Al44  1  0.37344150  0.25428150  0.87432300  1
  Al  Al45  1  0.24864700  0.50000000  0.74893100  1
  Al  Al46  1  0.37344150  0.74571850  0.87432300  1
  Al  Al47  1  0.15587500  0.00000000  0.96728500  1
  O  O48  1  0.44700600  0.77033700  0.07081100  1
  O  O49  1  0.56048500  0.00000000  0.18098400  1
  O  O50  1  0.44700600  0.22966300  0.07081100  1
  O  O51  1  0.17654600  0.50000000  0.07076400  1
  O  O52  1  0.19831750  0.77072350  0.32386500  1
  O  O53  1  0.56784800  0.50000000  0.18208400  1
  O  O54  1  0.30721150  0.76083150  0.18199600  1
  O  O55  1  0.18883800  0.00000000  0.06657600  1
  O  O56  1  0.19831750  0.22927650  0.32386500  1
  O  O57  1  0.31209200  0.00000000  0.43606800  1
  O  O58  1  0.42732600  0.00000000  0.32400000  1
  O  O59  1  0.30721150  0.23916850  0.18199600  1
  O  O60  1  0.44810600  0.25867800  0.55896600  1
  O  O61  1  0.33129300  0.50000000  0.43300700  1
  O  O62  1  0.55070500  0.28195900  0.43205300  1
  O  O63  1  0.43695700  0.50000000  0.31196600  1
  O  O64  1  0.44810600  0.74132200  0.55896600  1
  O  O65  1  0.56767400  0.50000000  0.67307800  1
  O  O66  1  0.55070500  0.71804100  0.43205300  1
  O  O67  1  0.68235300  0.50000000  0.56136700  1
  O  O68  1  0.69683750  0.77834250  0.81603100  1
  O  O69  1  0.57432700  0.00000000  0.68423500  1
  O  O70  1  0.68061700  0.00000000  0.57057400  1
  O  O71  1  0.81002100  0.00000000  0.92813000  1
  O  O72  1  0.69683750  0.22165750  0.81603100  1
  O  O73  1  0.79581550  0.76967850  0.68777200  1
  O  O74  1  0.42049500  0.50000000  0.81500000  1
  O  O75  1  0.79581550  0.23032150  0.68777200  1
  O  O76  1  0.81389500  0.50000000  0.93246000  1
  O  O77  1  0.55926000  0.75484200  0.93257000  1
  O  O78  1  0.44210300  0.00000000  0.82736800  1
  O  O79  1  0.55926000  0.24515800  0.93257000  1
  O  O80  1  0.94700600  0.27033700  0.07081100  1
  O  O81  1  0.06048500  0.50000000  0.18098400  1
  O  O82  1  0.94700600  0.72966300  0.07081100  1
  O  O83  1  0.67654600  0.00000000  0.07076400  1
  O  O84  1  0.69831750  0.27072350  0.32386500  1
  O  O85  1  0.06784800  0.00000000  0.18208400  1
  O  O86  1  0.80721150  0.26083150  0.18199600  1
  O  O87  1  0.68883800  0.50000000  0.06657600  1
  O  O88  1  0.69831750  0.72927650  0.32386500  1
  O  O89  1  0.81209200  0.50000000  0.43606800  1
  O  O90  1  0.92732600  0.50000000  0.32400000  1
  O  O91  1  0.80721150  0.73916850  0.18199600  1
  O  O92  1  0.94810600  0.75867800  0.55896600  1
  O  O93  1  0.83129300  0.00000000  0.43300700  1
  O  O94  1  0.05070500  0.78195900  0.43205300  1
  O  O95  1  0.93695700  0.00000000  0.31196600  1
  O  O96  1  0.94810600  0.24132200  0.55896600  1
  O  O97  1  0.06767400  0.00000000  0.67307800  1
  O  O98  1  0.05070500  0.21804100  0.43205300  1
  O  O99  1  0.18235300  0.00000000  0.56136700  1
  O  O100  1  0.19683750  0.27834250  0.81603100  1
  O  O101  1  0.07432700  0.50000000  0.68423500  1
  O  O102  1  0.18061700  0.50000000  0.57057400  1
  O  O103  1  0.31002100  0.50000000  0.92813000  1
  O  O104  1  0.19683750  0.72165750  0.81603100  1
  O  O105  1  0.29581550  0.26967850  0.68777200  1
  O  O106  1  0.92049500  0.00000000  0.81500000  1
  O  O107  1  0.29581550  0.73032150  0.68777200  1
  O  O108  1  0.31389500  0.00000000  0.93246000  1
  O  O109  1  0.05926000  0.25484200  0.93257000  1
  O  O110  1  0.94210300  0.50000000  0.82736800  1
  O  O111  1  0.05926000  0.74515800  0.93257000  1
