# generated using pymatgen
data_K3Sm(AsS4)2
_symmetry_space_group_name_H-M   'P 1'
_cell_length_a   10.57944200
_cell_length_b   19.23773400
_cell_length_c   9.06354011
_cell_angle_alpha   90.00000000
_cell_angle_beta   117.59820816
_cell_angle_gamma   90.00000000
_symmetry_Int_Tables_number   1
_chemical_formula_structural   K3Sm(AsS4)2
_chemical_formula_sum   'K12 Sm4 As8 S32'
_cell_volume   1634.76427442
_cell_formula_units_Z   4
loop_
 _symmetry_equiv_pos_site_id
 _symmetry_equiv_pos_as_xyz
  1  'x, y, z'
loop_
 _atom_site_type_symbol
 _atom_site_label
 _atom_site_symmetry_multiplicity
 _atom_site_fract_x
 _atom_site_fract_y
 _atom_site_fract_z
 _atom_site_occupancy
  K  K0  1  0.50000000  0.49532500  0.25000000  1
  K  K1  1  0.00000000  0.26069000  0.75000000  1
  K  K2  1  0.50000000  0.00000000  0.00000000  1
  K  K3  1  0.50000000  0.23931000  0.25000000  1
  K  K4  1  0.00000000  0.00467500  0.75000000  1
  K  K5  1  0.50000000  0.00000000  0.50000000  1
  K  K6  1  0.00000000  0.99532500  0.25000000  1
  K  K7  1  0.50000000  0.76069000  0.75000000  1
  K  K8  1  0.00000000  0.50000000  0.00000000  1
  K  K9  1  0.00000000  0.73931000  0.25000000  1
  K  K10  1  0.50000000  0.50467500  0.75000000  1
  K  K11  1  0.00000000  0.50000000  0.50000000  1
  Sm  Sm12  1  0.50000000  0.25715900  0.75000000  1
  Sm  Sm13  1  0.00000000  0.24284100  0.25000000  1
  Sm  Sm14  1  0.00000000  0.75715900  0.75000000  1
  Sm  Sm15  1  0.50000000  0.74284100  0.25000000  1
  As  As16  1  0.78149050  0.12432450  0.89718900  1
  As  As17  1  0.28149050  0.37567550  0.39718900  1
  As  As18  1  0.21850950  0.12432450  0.60281100  1
  As  As19  1  0.71850950  0.37567550  0.10281100  1
  As  As20  1  0.28149050  0.62432450  0.89718900  1
  As  As21  1  0.78149050  0.87567550  0.39718900  1
  As  As22  1  0.71850950  0.62432450  0.60281100  1
  As  As23  1  0.21850950  0.87567550  0.10281100  1
  S  S24  1  0.25296450  0.01346650  0.62798200  1
  S  S25  1  0.48786000  0.35493300  0.97916900  1
  S  S26  1  0.31863100  0.17805000  0.84443300  1
  S  S27  1  0.75296450  0.48653350  0.12798200  1
  S  S28  1  0.98786000  0.14506700  0.47916900  1
  S  S29  1  0.81863100  0.32195000  0.34443300  1
  S  S30  1  0.29821000  0.17277600  0.44198100  1
  S  S31  1  0.79821000  0.32722400  0.94198100  1
  S  S32  1  0.18136900  0.32195000  0.15556700  1
  S  S33  1  0.20179000  0.32722400  0.55801900  1
  S  S34  1  0.70179000  0.17277600  0.05801900  1
  S  S35  1  0.68136900  0.17805000  0.65556700  1
  S  S36  1  0.24703550  0.48653350  0.37201800  1
  S  S37  1  0.74703550  0.01346650  0.87201800  1
  S  S38  1  0.51214000  0.35493300  0.52083100  1
  S  S39  1  0.01214000  0.14506700  0.02083100  1
  S  S40  1  0.75296450  0.51346650  0.62798200  1
  S  S41  1  0.98786000  0.85493300  0.97916900  1
  S  S42  1  0.81863100  0.67805000  0.84443300  1
  S  S43  1  0.25296450  0.98653350  0.12798200  1
  S  S44  1  0.48786000  0.64506700  0.47916900  1
  S  S45  1  0.31863100  0.82195000  0.34443300  1
  S  S46  1  0.79821000  0.67277600  0.44198100  1
  S  S47  1  0.29821000  0.82722400  0.94198100  1
  S  S48  1  0.68136900  0.82195000  0.15556700  1
  S  S49  1  0.70179000  0.82722400  0.55801900  1
  S  S50  1  0.20179000  0.67277600  0.05801900  1
  S  S51  1  0.18136900  0.67805000  0.65556700  1
  S  S52  1  0.74703550  0.98653350  0.37201800  1
  S  S53  1  0.24703550  0.51346650  0.87201800  1
  S  S54  1  0.01214000  0.85493300  0.52083100  1
  S  S55  1  0.51214000  0.64506700  0.02083100  1
