# generated using pymatgen
data_LiAsO3
_symmetry_space_group_name_H-M   'P 1'
_cell_length_a   10.44605000
_cell_length_b   9.57167600
_cell_length_c   5.35774690
_cell_angle_alpha   90.00000000
_cell_angle_beta   111.29095381
_cell_angle_gamma   90.00000000
_symmetry_Int_Tables_number   1
_chemical_formula_structural   LiAsO3
_chemical_formula_sum   'Li8 As8 O24'
_cell_volume   499.13843974
_cell_formula_units_Z   8
loop_
 _symmetry_equiv_pos_site_id
 _symmetry_equiv_pos_as_xyz
  1  'x, y, z'
loop_
 _atom_site_type_symbol
 _atom_site_label
 _atom_site_symmetry_multiplicity
 _atom_site_fract_x
 _atom_site_fract_y
 _atom_site_fract_z
 _atom_site_occupancy
  Li  Li0  1  0.00000000  0.21158400  0.25000000  1
  Li  Li1  1  0.00000000  0.88515500  0.25000000  1
  Li  Li2  1  0.00000000  0.78841600  0.75000000  1
  Li  Li3  1  0.00000000  0.11484500  0.75000000  1
  Li  Li4  1  0.50000000  0.71158400  0.25000000  1
  Li  Li5  1  0.50000000  0.38515500  0.25000000  1
  Li  Li6  1  0.50000000  0.28841600  0.75000000  1
  Li  Li7  1  0.50000000  0.61484500  0.75000000  1
  As  As8  1  0.20888100  0.40467000  0.73288000  1
  As  As9  1  0.79111900  0.59533000  0.26712000  1
  As  As10  1  0.79111900  0.40467000  0.76712000  1
  As  As11  1  0.20888100  0.59533000  0.23288000  1
  As  As12  1  0.70888100  0.90467000  0.73288000  1
  As  As13  1  0.29111900  0.09533000  0.26712000  1
  As  As14  1  0.29111900  0.90467000  0.76712000  1
  As  As15  1  0.70888100  0.09533000  0.23288000  1
  O  O16  1  0.13846350  0.53010450  0.46919500  1
  O  O17  1  0.61906600  0.41466700  0.64135700  1
  O  O18  1  0.12701800  0.74669300  0.12733500  1
  O  O19  1  0.86153650  0.46989550  0.53080500  1
  O  O20  1  0.38093400  0.41466700  0.85864300  1
  O  O21  1  0.87298200  0.25330700  0.87266500  1
  O  O22  1  0.61906600  0.58533300  0.14135700  1
  O  O23  1  0.86153650  0.53010450  0.03080500  1
  O  O24  1  0.12701800  0.25330700  0.62733500  1
  O  O25  1  0.13846350  0.46989550  0.96919500  1
  O  O26  1  0.38093400  0.58533300  0.35864300  1
  O  O27  1  0.87298200  0.74669300  0.37266500  1
  O  O28  1  0.63846350  0.03010450  0.46919500  1
  O  O29  1  0.11906600  0.91466700  0.64135700  1
  O  O30  1  0.62701800  0.24669300  0.12733500  1
  O  O31  1  0.36153650  0.96989550  0.53080500  1
  O  O32  1  0.88093400  0.91466700  0.85864300  1
  O  O33  1  0.37298200  0.75330700  0.87266500  1
  O  O34  1  0.11906600  0.08533300  0.14135700  1
  O  O35  1  0.36153650  0.03010450  0.03080500  1
  O  O36  1  0.62701800  0.75330700  0.62733500  1
  O  O37  1  0.63846350  0.96989550  0.96919500  1
  O  O38  1  0.88093400  0.08533300  0.35864300  1
  O  O39  1  0.37298200  0.24669300  0.37266500  1
