# generated using pymatgen
data_Na3ThP3O11
_symmetry_space_group_name_H-M   'P 1'
_cell_length_a   6.53376400
_cell_length_b   8.82073687
_cell_length_c   9.02145465
_cell_angle_alpha   109.80606255
_cell_angle_beta   93.27810831
_cell_angle_gamma   103.66345182
_symmetry_Int_Tables_number   1
_chemical_formula_structural   Na3ThP3O11
_chemical_formula_sum   'Na6 Th2 P6 O22'
_cell_volume   469.94495818
_cell_formula_units_Z   2
loop_
 _symmetry_equiv_pos_site_id
 _symmetry_equiv_pos_as_xyz
  1  'x, y, z'
loop_
 _atom_site_type_symbol
 _atom_site_label
 _atom_site_symmetry_multiplicity
 _atom_site_fract_x
 _atom_site_fract_y
 _atom_site_fract_z
 _atom_site_occupancy
  Na  Na0  1  0.40028800  0.17769200  0.56215800  1
  Na  Na1  1  0.36202900  0.99067600  0.13552300  1
  Na  Na2  1  0.63797100  0.00932400  0.86447700  1
  Na  Na3  1  0.59971200  0.82230800  0.43784200  1
  Na  Na4  1  0.29547100  0.58551800  0.03503600  1
  Na  Na5  1  0.70452900  0.41448200  0.96496400  1
  Th  Th6  1  0.92564200  0.66655100  0.70933500  1
  Th  Th7  1  0.07435800  0.33344900  0.29066500  1
  P  P8  1  0.90782700  0.22682900  0.64127700  1
  P  P9  1  0.59224100  0.37960300  0.29868900  1
  P  P10  1  0.40775900  0.62039700  0.70131100  1
  P  P11  1  0.85253800  0.86076300  0.12685900  1
  P  P12  1  0.09217300  0.77317100  0.35872300  1
  P  P13  1  0.14746200  0.13923700  0.87314100  1
  O  O14  1  0.23007700  0.53207400  0.55217900  1
  O  O15  1  0.59640100  0.74266100  0.66499100  1
  O  O16  1  0.29182100  0.72307200  0.82983600  1
  O  O17  1  0.99340600  0.96612100  0.83768700  1
  O  O18  1  0.08286700  0.27697600  0.00588700  1
  O  O19  1  0.38095400  0.14777300  0.89664100  1
  O  O20  1  0.29663300  0.89421700  0.35259400  1
  O  O21  1  0.00659400  0.03387900  0.16231300  1
  O  O22  1  0.61904600  0.85222700  0.10335900  1
  O  O23  1  0.04724900  0.79278600  0.52764900  1
  O  O24  1  0.95275100  0.20721400  0.47235100  1
  O  O25  1  0.91713300  0.72302400  0.99411300  1
  O  O26  1  0.40359900  0.25733900  0.33500900  1
  O  O27  1  0.92056600  0.40879300  0.74840400  1
  O  O28  1  0.11316000  0.18380100  0.71269600  1
  O  O29  1  0.70336700  0.10578300  0.64740600  1
  O  O30  1  0.70817900  0.27692800  0.17016400  1
  O  O31  1  0.50551700  0.50101800  0.75404400  1
  O  O32  1  0.88684000  0.81619900  0.28730400  1
  O  O33  1  0.49448300  0.49898200  0.24595600  1
  O  O34  1  0.07943400  0.59120700  0.25159600  1
  O  O35  1  0.76992300  0.46792600  0.44782100  1
