# generated using pymatgen
data_NaSiBO4
_symmetry_space_group_name_H-M   'P 1'
_cell_length_a   8.13476008
_cell_length_b   8.13476008
_cell_length_c   7.78641900
_cell_angle_alpha   90.00000000
_cell_angle_beta   90.00000000
_cell_angle_gamma   120.00000000
_symmetry_Int_Tables_number   1
_chemical_formula_structural   NaSiBO4
_chemical_formula_sum   'Na6 Si6 B6 O24'
_cell_volume   446.22911106
_cell_formula_units_Z   6
loop_
 _symmetry_equiv_pos_site_id
 _symmetry_equiv_pos_as_xyz
  1  'x, y, z'
loop_
 _atom_site_type_symbol
 _atom_site_label
 _atom_site_symmetry_multiplicity
 _atom_site_fract_x
 _atom_site_fract_y
 _atom_site_fract_z
 _atom_site_occupancy
  Na  Na0  1  0.00000000  0.00000000  0.73134600  1
  Na  Na1  1  0.66666667  0.33333333  0.76850000  1
  Na  Na2  1  0.33333333  0.66666667  0.26850000  1
  Na  Na3  1  0.33333333  0.66666667  0.70105300  1
  Na  Na4  1  0.00000000  0.00000000  0.23134600  1
  Na  Na5  1  0.66666667  0.33333333  0.20105300  1
  Si  Si6  1  0.66058400  0.97836900  0.01254200  1
  Si  Si7  1  0.02163100  0.68221500  0.01254200  1
  Si  Si8  1  0.33941600  0.02163100  0.51254200  1
  Si  Si9  1  0.68221500  0.66058400  0.51254200  1
  Si  Si10  1  0.31778500  0.33941600  0.01254200  1
  Si  Si11  1  0.97836900  0.31778500  0.51254200  1
  B  B12  1  0.67977000  0.66190500  0.89245900  1
  B  B13  1  0.01786500  0.67977000  0.39245900  1
  B  B14  1  0.33809500  0.01786500  0.89245900  1
  B  B15  1  0.66190500  0.98213500  0.39245900  1
  B  B16  1  0.32023000  0.33809500  0.39245900  1
  B  B17  1  0.98213500  0.32023000  0.89245900  1
  O  O18  1  0.39861200  0.20913600  0.39273700  1
  O  O19  1  0.72313600  0.63224100  0.71279200  1
  O  O20  1  0.25423500  0.11431900  0.98961200  1
  O  O21  1  0.09089500  0.72313600  0.21279200  1
  O  O22  1  0.13991600  0.25423500  0.48961200  1
  O  O23  1  0.90910500  0.27686400  0.71279200  1
  O  O24  1  0.20913600  0.81052400  0.89273700  1
  O  O25  1  0.86008400  0.74576500  0.98961200  1
  O  O26  1  0.92860900  0.45653900  0.96669200  1
  O  O27  1  0.81052400  0.60138800  0.39273700  1
  O  O28  1  0.54346100  0.47207000  0.96669200  1
  O  O29  1  0.11431900  0.86008400  0.48961200  1
  O  O30  1  0.45653900  0.52793000  0.46669200  1
  O  O31  1  0.27686400  0.36775900  0.21279200  1
  O  O32  1  0.36775900  0.09089500  0.71279200  1
  O  O33  1  0.74576500  0.88568100  0.48961200  1
  O  O34  1  0.52793000  0.07139100  0.96669200  1
  O  O35  1  0.47207000  0.92860900  0.46669200  1
  O  O36  1  0.60138800  0.79086400  0.89273700  1
  O  O37  1  0.63224100  0.90910500  0.21279200  1
  O  O38  1  0.88568100  0.13991600  0.98961200  1
  O  O39  1  0.07139100  0.54346100  0.46669200  1
  O  O40  1  0.79086400  0.18947600  0.39273700  1
  O  O41  1  0.18947600  0.39861200  0.89273700  1
