# generated using pymatgen
data_Ba3Zr6BeCl18
_symmetry_space_group_name_H-M   'P 1'
_cell_length_a   9.85623141
_cell_length_b   9.85623141
_cell_length_c   53.51423285
_cell_angle_alpha   90.00000000
_cell_angle_beta   90.00000000
_cell_angle_gamma   120.00000000
_symmetry_Int_Tables_number   1
_chemical_formula_structural   Ba3Zr6BeCl18
_chemical_formula_sum   'Ba18 Zr36 Be6 Cl108'
_cell_volume   4502.16822420
_cell_formula_units_Z   6
loop_
 _symmetry_equiv_pos_site_id
 _symmetry_equiv_pos_as_xyz
  1  'x, y, z'
loop_
 _atom_site_type_symbol
 _atom_site_label
 _atom_site_symmetry_multiplicity
 _atom_site_fract_x
 _atom_site_fract_y
 _atom_site_fract_z
 _atom_site_occupancy
  Ba  Ba0  1  0.00000000  0.00000000  0.11139300  1
  Ba  Ba1  1  0.33333333  0.66666667  0.27805967  1
  Ba  Ba2  1  0.66666667  0.33333333  0.22194033  1
  Ba  Ba3  1  0.00000000  0.00000000  0.25000000  1
  Ba  Ba4  1  0.33333333  0.66666667  0.05527367  1
  Ba  Ba5  1  0.66666667  0.33333333  0.08333333  1
  Ba  Ba6  1  0.66666667  0.33333333  0.44472633  1
  Ba  Ba7  1  0.00000000  0.00000000  0.61139300  1
  Ba  Ba8  1  0.33333333  0.66666667  0.55527367  1
  Ba  Ba9  1  0.66666667  0.33333333  0.58333333  1
  Ba  Ba10  1  0.00000000  0.00000000  0.38860700  1
  Ba  Ba11  1  0.33333333  0.66666667  0.41666667  1
  Ba  Ba12  1  0.33333333  0.66666667  0.77805967  1
  Ba  Ba13  1  0.66666667  0.33333333  0.94472633  1
  Ba  Ba14  1  0.00000000  0.00000000  0.88860700  1
  Ba  Ba15  1  0.33333333  0.66666667  0.91666667  1
  Ba  Ba16  1  0.66666667  0.33333333  0.72194033  1
  Ba  Ba17  1  0.00000000  0.00000000  0.75000000  1
  Zr  Zr18  1  0.46317133  0.14648067  0.30825867  1
  Zr  Zr19  1  0.68330933  0.53682867  0.30825867  1
  Zr  Zr20  1  0.34997600  0.47981400  0.14159200  1
  Zr  Zr21  1  0.20349533  0.18685267  0.02507467  1
  Zr  Zr22  1  0.12983800  0.65002400  0.14159200  1
  Zr  Zr23  1  0.85351933  0.31669067  0.30825867  1
  Zr  Zr24  1  0.98335733  0.79650467  0.02507467  1
  Zr  Zr25  1  0.14648067  0.46317133  0.19174133  1
  Zr  Zr26  1  0.81314733  0.01664267  0.02507467  1
  Zr  Zr27  1  0.52018600  0.87016200  0.14159200  1
  Zr  Zr28  1  0.53682867  0.68330933  0.19174133  1
  Zr  Zr29  1  0.31669067  0.85351933  0.19174133  1
  Zr  Zr30  1  0.12983800  0.47981400  0.64159200  1
  Zr  Zr31  1  0.34997600  0.87016200  0.64159200  1
  Zr  Zr32  1  0.01664267  0.81314733  0.47492533  1
  Zr  Zr33  1  0.87016200  0.52018600  0.35840800  1
  Zr  Zr34  1  0.79650467  0.98335733  0.47492533  1
  Zr  Zr35  1  0.52018600  0.65002400  0.64159200  1
  Zr  Zr36  1  0.65002400  0.12983800  0.35840800  1
  Zr  Zr37  1  0.81314733  0.79650467  0.52507467  1
  Zr  Zr38  1  0.47981400  0.34997600  0.35840800  1
  Zr  Zr39  1  0.18685267  0.20349533  0.47492533  1
  Zr  Zr40  1  0.20349533  0.01664267  0.52507467  1
  Zr  Zr41  1  0.98335733  0.18685267  0.52507467  1
  Zr  Zr42  1  0.79650467  0.81314733  0.97492533  1
  Zr  Zr43  1  0.01664267  0.20349533  0.97492533  1
  Zr  Zr44  1  0.68330933  0.14648067  0.80825867  1
  Zr  Zr45  1  0.53682867  0.85351933  0.69174133  1
  Zr  Zr46  1  0.46317133  0.31669067  0.80825867  1
  Zr  Zr47  1  0.18685267  0.98335733  0.97492533  1
  Zr  Zr48  1  0.31669067  0.46317133  0.69174133  1
  Zr  Zr49  1  0.47981400  0.12983800  0.85840800  1
  Zr  Zr50  1  0.14648067  0.68330933  0.69174133  1
  Zr  Zr51  1  0.85351933  0.53682867  0.80825867  1
  Zr  Zr52  1  0.87016200  0.34997600  0.85840800  1
  Zr  Zr53  1  0.65002400  0.52018600  0.85840800  1
  Be  Be54  1  0.33333333  0.66666667  0.16666667  1
  Be  Be55  1  0.00000000  0.00000000  0.00000000  1
  Be  Be56  1  1.00000000  0.00000000  0.50000000  1
  Be  Be57  1  0.66666667  0.33333333  0.33333333  1
  Be  Be58  1  0.66666667  0.33333333  0.83333333  1
  Be  Be59  1  0.33333333  0.66666667  0.66666667  1
  Cl  Cl60  1  0.31555033  0.86422967  0.10982467  1
  Cl  Cl61  1  0.35803067  0.24986933  0.11410833  1
  Cl  Cl62  1  0.54867933  0.68444967  0.10982467  1
  Cl  Cl63  1  0.08346400  0.30863600  0.28077500  1
  Cl  Cl64  1  0.56800133  0.47510067  0.16770267  1
  Cl  Cl65  1  0.89183867  0.64196933  0.11410833  1
  Cl  Cl66  1  0.19156600  0.76533200  0.00103600  1
  Cl  Cl67  1  0.46910367  0.35111633  0.27649133  1
  Cl  Cl68  1  0.14176733  0.24043267  0.16563067  1
  Cl  Cl69  1  0.77482800  0.69136400  0.21922500  1
  Cl  Cl70  1  0.75013067  0.10816133  0.11410833  1
  Cl  Cl71  1  0.44149467  0.41679733  0.05255833  1
  Cl  Cl72  1  0.57376600  0.80843400  0.00103600  1
  Cl  Cl73  1  0.90709933  0.43199867  0.16770267  1
  Cl  Cl74  1  0.78465400  0.80243700  0.05684200  1
  Cl  Cl75  1  0.88201267  0.53089633  0.27649133  1
  Cl  Cl76  1  0.09866533  0.85823267  0.16563067  1
  Cl  Cl77  1  0.11798733  0.64888367  0.22350867  1
  Cl  Cl78  1  0.19756300  0.98221700  0.05684200  1
  Cl  Cl79  1  0.35111633  0.46910367  0.22350867  1
  Cl  Cl80  1  0.01778300  0.21534600  0.05684200  1
  Cl  Cl81  1  0.47510067  0.56800133  0.33229733  1
  Cl  Cl82  1  0.64888367  0.11798733  0.27649133  1
  Cl  Cl83  1  0.43199867  0.90709933  0.33229733  1
  Cl  Cl84  1  0.97530267  0.55850533  0.05255833  1
  Cl  Cl85  1  0.09290067  0.52489933  0.33229733  1
  Cl  Cl86  1  0.30863600  0.08346400  0.21922500  1
  Cl  Cl87  1  0.69136400  0.77482800  0.28077500  1
  Cl  Cl88  1  0.53089633  0.88201267  0.22350867  1
  Cl  Cl89  1  0.75956733  0.90133467  0.16563067  1
  Cl  Cl90  1  0.52489933  0.09290067  0.16770267  1
  Cl  Cl91  1  0.23466800  0.42623400  0.00103600  1
  Cl  Cl92  1  0.58320267  0.02469733  0.05255833  1
  Cl  Cl93  1  0.13577033  0.45132067  0.10982467  1
  Cl  Cl94  1  0.91653600  0.22517200  0.21922500  1
  Cl  Cl95  1  0.22517200  0.91653600  0.28077500  1
  Cl  Cl96  1  0.98221700  0.19756300  0.44315800  1
  Cl  Cl97  1  0.02469733  0.58320267  0.44744167  1
  Cl  Cl98  1  0.21534600  0.01778300  0.44315800  1
  Cl  Cl99  1  0.75013067  0.64196933  0.61410833  1
  Cl  Cl100  1  0.23466800  0.80843400  0.50103600  1
  Cl  Cl101  1  0.55850533  0.97530267  0.44744167  1
  Cl  Cl102  1  0.85823267  0.09866533  0.33436933  1
  Cl  Cl103  1  0.13577033  0.68444967  0.60982467  1
  Cl  Cl104  1  0.80843400  0.57376600  0.49896400  1
  Cl  Cl105  1  0.44149467  0.02469733  0.55255833  1
  Cl  Cl106  1  0.41679733  0.44149467  0.44744167  1
  Cl  Cl107  1  0.10816133  0.75013067  0.38589167  1
  Cl  Cl108  1  0.24043267  0.14176733  0.33436933  1
  Cl  Cl109  1  0.57376600  0.76533200  0.50103600  1
  Cl  Cl110  1  0.45132067  0.13577033  0.39017533  1
  Cl  Cl111  1  0.54867933  0.86422967  0.60982467  1
  Cl  Cl112  1  0.76533200  0.19156600  0.49896400  1
  Cl  Cl113  1  0.78465400  0.98221700  0.55684200  1
  Cl  Cl114  1  0.86422967  0.31555033  0.39017533  1
  Cl  Cl115  1  0.01778300  0.80243700  0.55684200  1
  Cl  Cl116  1  0.68444967  0.54867933  0.39017533  1
  Cl  Cl117  1  0.14176733  0.90133467  0.66563067  1
  Cl  Cl118  1  0.31555033  0.45132067  0.60982467  1
  Cl  Cl119  1  0.09866533  0.24043267  0.66563067  1
  Cl  Cl120  1  0.64196933  0.89183867  0.38589167  1
  Cl  Cl121  1  0.75956733  0.85823267  0.66563067  1
  Cl  Cl122  1  0.97530267  0.41679733  0.55255833  1
  Cl  Cl123  1  0.35803067  0.10816133  0.61410833  1
  Cl  Cl124  1  0.19756300  0.21534600  0.55684200  1
  Cl  Cl125  1  0.42623400  0.23466800  0.49896400  1
  Cl  Cl126  1  0.19156600  0.42623400  0.50103600  1
  Cl  Cl127  1  0.90133467  0.75956733  0.33436933  1
  Cl  Cl128  1  0.24986933  0.35803067  0.38589167  1
  Cl  Cl129  1  0.80243700  0.78465400  0.44315800  1
  Cl  Cl130  1  0.58320267  0.55850533  0.55255833  1
  Cl  Cl131  1  0.89183867  0.24986933  0.61410833  1
  Cl  Cl132  1  0.64888367  0.53089633  0.77649133  1
  Cl  Cl133  1  0.69136400  0.91653600  0.78077500  1
  Cl  Cl134  1  0.88201267  0.35111633  0.77649133  1
  Cl  Cl135  1  0.41679733  0.97530267  0.94744167  1
  Cl  Cl136  1  0.90133467  0.14176733  0.83436933  1
  Cl  Cl137  1  0.22517200  0.30863600  0.78077500  1
  Cl  Cl138  1  0.52489933  0.43199867  0.66770267  1
  Cl  Cl139  1  0.80243700  0.01778300  0.94315800  1
  Cl  Cl140  1  0.47510067  0.90709933  0.83229733  1
  Cl  Cl141  1  0.10816133  0.35803067  0.88589167  1
  Cl  Cl142  1  0.08346400  0.77482800  0.78077500  1
  Cl  Cl143  1  0.77482800  0.08346400  0.71922500  1
  Cl  Cl144  1  0.90709933  0.47510067  0.66770267  1
  Cl  Cl145  1  0.24043267  0.09866533  0.83436933  1
  Cl  Cl146  1  0.11798733  0.46910367  0.72350867  1
  Cl  Cl147  1  0.21534600  0.19756300  0.94315800  1
  Cl  Cl148  1  0.43199867  0.52489933  0.83229733  1
  Cl  Cl149  1  0.45132067  0.31555033  0.89017533  1
  Cl  Cl150  1  0.53089633  0.64888367  0.72350867  1
  Cl  Cl151  1  0.68444967  0.13577033  0.89017533  1
  Cl  Cl152  1  0.35111633  0.88201267  0.72350867  1
  Cl  Cl153  1  0.80843400  0.23466800  0.99896400  1
  Cl  Cl154  1  0.98221700  0.78465400  0.94315800  1
  Cl  Cl155  1  0.76533200  0.57376600  0.99896400  1
  Cl  Cl156  1  0.30863600  0.22517200  0.71922500  1
  Cl  Cl157  1  0.42623400  0.19156600  0.99896400  1
  Cl  Cl158  1  0.64196933  0.75013067  0.88589167  1
  Cl  Cl159  1  0.02469733  0.44149467  0.94744167  1
  Cl  Cl160  1  0.86422967  0.54867933  0.89017533  1
  Cl  Cl161  1  0.09290067  0.56800133  0.83229733  1
  Cl  Cl162  1  0.85823267  0.75956733  0.83436933  1
  Cl  Cl163  1  0.56800133  0.09290067  0.66770267  1
  Cl  Cl164  1  0.91653600  0.69136400  0.71922500  1
  Cl  Cl165  1  0.46910367  0.11798733  0.77649133  1
  Cl  Cl166  1  0.24986933  0.89183867  0.88589167  1
  Cl  Cl167  1  0.55850533  0.58320267  0.94744167  1
