# generated using pymatgen
data_ScBiO3
_symmetry_space_group_name_H-M   'P 1'
_cell_length_a   9.98096200
_cell_length_b   5.89419600
_cell_length_c   10.14954145
_cell_angle_alpha   90.00000000
_cell_angle_beta   108.91917105
_cell_angle_gamma   90.00000000
_symmetry_Int_Tables_number   1
_chemical_formula_structural   ScBiO3
_chemical_formula_sum   'Sc8 Bi8 O24'
_cell_volume   564.83804269
_cell_formula_units_Z   8
loop_
 _symmetry_equiv_pos_site_id
 _symmetry_equiv_pos_as_xyz
  1  'x, y, z'
loop_
 _atom_site_type_symbol
 _atom_site_label
 _atom_site_symmetry_multiplicity
 _atom_site_fract_x
 _atom_site_fract_y
 _atom_site_fract_z
 _atom_site_occupancy
  Sc  Sc0  1  0.75937550  0.25465450  0.49901400  1
  Sc  Sc1  1  0.00800900  0.75145400  0.74936700  1
  Sc  Sc2  1  0.75937550  0.74534550  0.99901400  1
  Sc  Sc3  1  0.00800900  0.24854600  0.24936700  1
  Sc  Sc4  1  0.25937550  0.75465450  0.49901400  1
  Sc  Sc5  1  0.50800900  0.25145400  0.74936700  1
  Sc  Sc6  1  0.25937550  0.24534550  0.99901400  1
  Sc  Sc7  1  0.50800900  0.74854600  0.24936700  1
  Bi  Bi8  1  0.14003750  0.18059450  0.63326300  1
  Bi  Bi9  1  0.14003750  0.81940550  0.13326300  1
  Bi  Bi10  1  0.87057450  0.81619150  0.36718700  1
  Bi  Bi11  1  0.87057450  0.18380850  0.86718700  1
  Bi  Bi12  1  0.64003750  0.68059450  0.63326300  1
  Bi  Bi13  1  0.64003750  0.31940550  0.13326300  1
  Bi  Bi14  1  0.37057450  0.31619150  0.36718700  1
  Bi  Bi15  1  0.37057450  0.68380850  0.86718700  1
  O  O16  1  0.84755850  0.54052150  0.62982700  1
  O  O17  1  0.66259100  0.48099400  0.33557900  1
  O  O18  1  0.92960700  0.18578000  0.41812400  1
  O  O19  1  0.08836050  0.81392850  0.57884900  1
  O  O20  1  0.36678300  0.46144900  0.16489500  1
  O  O21  1  0.16570400  0.52462000  0.86189500  1
  O  O22  1  0.66259100  0.51900600  0.83557900  1
  O  O23  1  0.16570400  0.47538000  0.36189500  1
  O  O24  1  0.08836050  0.18607150  0.07884900  1
  O  O25  1  0.84755850  0.45947850  0.12982700  1
  O  O26  1  0.36678300  0.53855100  0.66489500  1
  O  O27  1  0.92960700  0.81422000  0.91812400  1
  O  O28  1  0.34755850  0.04052150  0.62982700  1
  O  O29  1  0.16259100  0.98099400  0.33557900  1
  O  O30  1  0.42960700  0.68578000  0.41812400  1
  O  O31  1  0.58836050  0.31392850  0.57884900  1
  O  O32  1  0.86678300  0.96144900  0.16489500  1
  O  O33  1  0.66570400  0.02462000  0.86189500  1
  O  O34  1  0.16259100  0.01900600  0.83557900  1
  O  O35  1  0.66570400  0.97538000  0.36189500  1
  O  O36  1  0.58836050  0.68607150  0.07884900  1
  O  O37  1  0.34755850  0.95947850  0.12982700  1
  O  O38  1  0.86678300  0.03855100  0.66489500  1
  O  O39  1  0.42960700  0.31422000  0.91812400  1
