# generated using pymatgen
data_Na5Ca2Al(PO4)4
_symmetry_space_group_name_H-M   'P 1'
_cell_length_a   11.21554000
_cell_length_b   14.09939600
_cell_length_c   10.62144965
_cell_angle_alpha   90.00000000
_cell_angle_beta   119.33560440
_cell_angle_gamma   90.00000000
_symmetry_Int_Tables_number   1
_chemical_formula_structural   Na5Ca2Al(PO4)4
_chemical_formula_sum   'Na20 Ca8 Al4 P16 O64'
_cell_volume   1464.21185233
_cell_formula_units_Z   4
loop_
 _symmetry_equiv_pos_site_id
 _symmetry_equiv_pos_as_xyz
  1  'x, y, z'
loop_
 _atom_site_type_symbol
 _atom_site_label
 _atom_site_symmetry_multiplicity
 _atom_site_fract_x
 _atom_site_fract_y
 _atom_site_fract_z
 _atom_site_occupancy
  Na  Na0  1  0.55004850  0.87066750  0.55729400  1
  Na  Na1  1  0.24191350  0.98580850  0.38216900  1
  Na  Na2  1  0.55004850  0.12933250  0.05729400  1
  Na  Na3  1  0.43513050  0.67765250  0.72487300  1
  Na  Na4  1  0.55539300  0.62897500  0.51320300  1
  Na  Na5  1  0.55539300  0.37102500  0.01320300  1
  Na  Na6  1  0.72504550  0.99382750  0.37064400  1
  Na  Na7  1  0.24191350  0.01419150  0.88216900  1
  Na  Na8  1  0.72504550  0.00617250  0.87064400  1
  Na  Na9  1  0.43513050  0.32234750  0.22487300  1
  Na  Na10  1  0.05004850  0.37066750  0.55729400  1
  Na  Na11  1  0.74191350  0.48580850  0.38216900  1
  Na  Na12  1  0.05004850  0.62933250  0.05729400  1
  Na  Na13  1  0.93513050  0.17765250  0.72487300  1
  Na  Na14  1  0.05539300  0.12897500  0.51320300  1
  Na  Na15  1  0.05539300  0.87102500  0.01320300  1
  Na  Na16  1  0.22504550  0.49382750  0.37064400  1
  Na  Na17  1  0.74191350  0.51419150  0.88216900  1
  Na  Na18  1  0.22504550  0.50617250  0.87064400  1
  Na  Na19  1  0.93513050  0.82234750  0.22487300  1
  Ca  Ca20  1  0.59277300  0.39279700  0.57118200  1
  Ca  Ca21  1  0.59277300  0.60720300  0.07118200  1
  Ca  Ca22  1  0.55857600  0.89001800  0.03003100  1
  Ca  Ca23  1  0.55857600  0.10998200  0.53003100  1
  Ca  Ca24  1  0.09277300  0.89279700  0.57118200  1
  Ca  Ca25  1  0.09277300  0.10720300  0.07118200  1
  Ca  Ca26  1  0.05857600  0.39001800  0.03003100  1
  Ca  Ca27  1  0.05857600  0.60998200  0.53003100  1
  Al  Al28  1  0.33280650  0.25906250  0.66695200  1
  Al  Al29  1  0.33280650  0.74093750  0.16695200  1
  Al  Al30  1  0.83280650  0.75906250  0.66695200  1
  Al  Al31  1  0.83280650  0.24093750  0.16695200  1
  P  P32  1  0.27989200  0.24797900  0.36895000  1
  P  P33  1  0.74141700  0.24412800  0.39519200  1
  P  P34  1  0.90128650  0.03056050  0.21580300  1
  P  P35  1  0.40118500  0.04437500  0.70963100  1
  P  P36  1  0.40118500  0.95562500  0.20963100  1
  P  P37  1  0.27989200  0.75202100  0.86895000  1
  P  P38  1  0.90128650  0.96943950  0.71580300  1
  P  P39  1  0.74141700  0.75587200  0.89519200  1
  P  P40  1  0.77989200  0.74797900  0.36895000  1
  P  P41  1  0.24141700  0.74412800  0.39519200  1
  P  P42  1  0.40128650  0.53056050  0.21580300  1
  P  P43  1  0.90118500  0.54437500  0.70963100  1
  P  P44  1  0.90118500  0.45562500  0.20963100  1
  P  P45  1  0.77989200  0.25202100  0.86895000  1
  P  P46  1  0.40128650  0.46943950  0.71580300  1
  P  P47  1  0.24141700  0.25587200  0.89519200  1
  O  O48  1  0.67223450  0.84713550  0.90646300  1
  O  O49  1  0.43928550  0.35903550  0.73847100  1
  O  O50  1  0.74612000  0.97956400  0.61411400  1
  O  O51  1  0.24736650  0.14522550  0.31393800  1
  O  O52  1  0.67223450  0.15286450  0.40646300  1
  O  O53  1  0.71395100  0.24825600  0.23139500  1
  O  O54  1  0.45056500  0.98222300  0.36773700  1
  O  O55  1  0.72192100  0.23219800  0.97695900  1
  O  O56  1  0.72064950  0.82014450  0.24474600  1
  O  O57  1  0.48860800  0.00153900  0.15079000  1
  O  O58  1  0.17266500  0.16624000  0.91499600  1
  O  O59  1  0.24647050  0.02342750  0.61265600  1
  O  O60  1  0.74612000  0.02043600  0.11411400  1
  O  O61  1  0.42668100  0.84537400  0.20504600  1
  O  O62  1  0.48845300  0.51256100  0.65368800  1
  O  O63  1  0.45056500  0.01777700  0.86773700  1
  O  O64  1  0.48845300  0.48743900  0.15368800  1
  O  O65  1  0.24647050  0.97657250  0.11265600  1
  O  O66  1  0.72192100  0.76780200  0.47695900  1
  O  O67  1  0.43869350  0.26142250  0.45884100  1
  O  O68  1  0.94481350  0.98849450  0.36630100  1
  O  O69  1  0.24736650  0.85477450  0.81393800  1
  O  O70  1  0.43869350  0.73857750  0.95884100  1
  O  O71  1  0.17266500  0.83376000  0.41499600  1
  O  O72  1  0.43928550  0.64096450  0.23847100  1
  O  O73  1  0.42668100  0.15462600  0.70504600  1
  O  O74  1  0.39696300  0.25698500  0.99917400  1
  O  O75  1  0.94481350  0.01150550  0.86630100  1
  O  O76  1  0.39696300  0.74301500  0.49917400  1
  O  O77  1  0.72064950  0.17985550  0.74474600  1
  O  O78  1  0.71395100  0.75174400  0.73139500  1
  O  O79  1  0.48860800  0.99846100  0.65079000  1
  O  O80  1  0.17223450  0.34713550  0.90646300  1
  O  O81  1  0.93928550  0.85903550  0.73847100  1
  O  O82  1  0.24612000  0.47956400  0.61411400  1
  O  O83  1  0.74736650  0.64522550  0.31393800  1
  O  O84  1  0.17223450  0.65286450  0.40646300  1
  O  O85  1  0.21395100  0.74825600  0.23139500  1
  O  O86  1  0.95056500  0.48222300  0.36773700  1
  O  O87  1  0.22192100  0.73219800  0.97695900  1
  O  O88  1  0.22064950  0.32014450  0.24474600  1
  O  O89  1  0.98860800  0.50153900  0.15079000  1
  O  O90  1  0.67266500  0.66624000  0.91499600  1
  O  O91  1  0.74647050  0.52342750  0.61265600  1
  O  O92  1  0.24612000  0.52043600  0.11411400  1
  O  O93  1  0.92668100  0.34537400  0.20504600  1
  O  O94  1  0.98845300  0.01256100  0.65368800  1
  O  O95  1  0.95056500  0.51777700  0.86773700  1
  O  O96  1  0.98845300  0.98743900  0.15368800  1
  O  O97  1  0.74647050  0.47657250  0.11265600  1
  O  O98  1  0.22192100  0.26780200  0.47695900  1
  O  O99  1  0.93869350  0.76142250  0.45884100  1
  O  O100  1  0.44481350  0.48849450  0.36630100  1
  O  O101  1  0.74736650  0.35477450  0.81393800  1
  O  O102  1  0.93869350  0.23857750  0.95884100  1
  O  O103  1  0.67266500  0.33376000  0.41499600  1
  O  O104  1  0.93928550  0.14096450  0.23847100  1
  O  O105  1  0.92668100  0.65462600  0.70504600  1
  O  O106  1  0.89696300  0.75698500  0.99917400  1
  O  O107  1  0.44481350  0.51150550  0.86630100  1
  O  O108  1  0.89696300  0.24301500  0.49917400  1
  O  O109  1  0.22064950  0.67985550  0.74474600  1
  O  O110  1  0.21395100  0.25174400  0.73139500  1
  O  O111  1  0.98860800  0.49846100  0.65079000  1
