# generated using pymatgen
data_RbLaSi(CN2)4
_symmetry_space_group_name_H-M   'P 1'
_cell_length_a   8.62181800
_cell_length_b   8.62181800
_cell_length_c   6.94807600
_cell_angle_alpha   90.00000000
_cell_angle_beta   90.00000000
_cell_angle_gamma   90.00000000
_symmetry_Int_Tables_number   1
_chemical_formula_structural   RbLaSi(CN2)4
_chemical_formula_sum   'Rb2 La2 Si2 C8 N16'
_cell_volume   516.49041012
_cell_formula_units_Z   2
loop_
 _symmetry_equiv_pos_site_id
 _symmetry_equiv_pos_as_xyz
  1  'x, y, z'
loop_
 _atom_site_type_symbol
 _atom_site_label
 _atom_site_symmetry_multiplicity
 _atom_site_fract_x
 _atom_site_fract_y
 _atom_site_fract_z
 _atom_site_occupancy
  Rb  Rb0  1  0.00000000  0.00000000  0.50000000  1
  Rb  Rb1  1  0.50000000  0.50000000  0.00000000  1
  La  La2  1  0.50000000  0.00000000  0.25000000  1
  La  La3  1  0.00000000  0.50000000  0.75000000  1
  Si  Si4  1  0.50000000  0.00000000  0.75000000  1
  Si  Si5  1  0.00000000  0.50000000  0.25000000  1
  C  C6  1  0.30867300  0.77838200  0.63246600  1
  C  C7  1  0.72161800  0.80867300  0.86753400  1
  C  C8  1  0.27838200  0.19132700  0.86753400  1
  C  C9  1  0.69132700  0.22161800  0.63246600  1
  C  C10  1  0.80867300  0.27838200  0.13246600  1
  C  C11  1  0.22161800  0.30867300  0.36753400  1
  C  C12  1  0.77838200  0.69132700  0.36753400  1
  C  C13  1  0.19132700  0.72161800  0.13246600  1
  N  N14  1  0.66313800  0.76293800  0.33229400  1
  N  N15  1  0.59772600  0.88174600  0.90963000  1
  N  N16  1  0.61825400  0.09772600  0.59037000  1
  N  N17  1  0.38174600  0.90227400  0.59037000  1
  N  N18  1  0.26293800  0.83686200  0.16770600  1
  N  N19  1  0.73706200  0.16313800  0.16770600  1
  N  N20  1  0.40227400  0.11825400  0.90963000  1
  N  N21  1  0.33686200  0.23706200  0.33229400  1
  N  N22  1  0.16313800  0.26293800  0.83229400  1
  N  N23  1  0.09772600  0.38174600  0.40963000  1
  N  N24  1  0.11825400  0.59772600  0.09037000  1
  N  N25  1  0.88174600  0.40227400  0.09037000  1
  N  N26  1  0.76293800  0.33686200  0.66770600  1
  N  N27  1  0.23706200  0.66313800  0.66770600  1
  N  N28  1  0.90227400  0.61825400  0.40963000  1
  N  N29  1  0.83686200  0.73706200  0.83229400  1
