# generated using pymatgen
data_CsK(ClO4)2
_symmetry_space_group_name_H-M   'P 1'
_cell_length_a   5.90294022
_cell_length_b   5.90294022
_cell_length_c   22.08972678
_cell_angle_alpha   90.00000000
_cell_angle_beta   90.00000000
_cell_angle_gamma   120.00000000
_symmetry_Int_Tables_number   1
_chemical_formula_structural   CsK(ClO4)2
_chemical_formula_sum   'Cs3 K3 Cl6 O24'
_cell_volume   666.58839096
_cell_formula_units_Z   3
loop_
 _symmetry_equiv_pos_site_id
 _symmetry_equiv_pos_as_xyz
  1  'x, y, z'
loop_
 _atom_site_type_symbol
 _atom_site_label
 _atom_site_symmetry_multiplicity
 _atom_site_fract_x
 _atom_site_fract_y
 _atom_site_fract_z
 _atom_site_occupancy
  Cs  Cs0  1  0.33333333  0.66666667  0.16666667  1
  Cs  Cs1  1  1.00000000  1.00000000  0.50000000  1
  Cs  Cs2  1  0.66666667  0.33333333  0.83333333  1
  K  K3  1  0.00000000  0.00000000  0.00000000  1
  K  K4  1  0.66666667  0.33333333  0.33333333  1
  K  K5  1  0.33333333  0.66666667  0.66666667  1
  Cl  Cl6  1  0.66666667  0.33333333  0.06737433  1
  Cl  Cl7  1  0.00000000  0.00000000  0.26595900  1
  Cl  Cl8  1  0.33333333  0.66666667  0.40070767  1
  Cl  Cl9  1  0.66666667  0.33333333  0.59929233  1
  Cl  Cl10  1  0.00000000  0.00000000  0.73404100  1
  Cl  Cl11  1  0.33333333  0.66666667  0.93262567  1
  O  O12  1  0.26968867  0.13484433  0.24332233  1
  O  O13  1  0.00000000  0.00000000  0.33193500  1
  O  O14  1  0.39697800  0.19848900  0.09001100  1
  O  O15  1  0.86515567  0.73031133  0.24332233  1
  O  O16  1  0.80151100  0.60302200  0.09001100  1
  O  O17  1  0.80151100  0.19848900  0.09001100  1
  O  O18  1  0.66666667  0.33333333  0.00139833  1
  O  O19  1  0.86515567  0.13484433  0.24332233  1
  O  O20  1  0.93635533  0.46817767  0.57665567  1
  O  O21  1  0.66666667  0.33333333  0.66526833  1
  O  O22  1  0.06364467  0.53182233  0.42334433  1
  O  O23  1  0.53182233  0.06364467  0.57665567  1
  O  O24  1  0.46817767  0.93635533  0.42334433  1
  O  O25  1  0.46817767  0.53182233  0.42334433  1
  O  O26  1  0.33333333  0.66666667  0.33473167  1
  O  O27  1  0.53182233  0.46817767  0.57665567  1
  O  O28  1  0.60302200  0.80151100  0.90998900  1
  O  O29  1  0.33333333  0.66666667  0.99860167  1
  O  O30  1  0.73031133  0.86515567  0.75667767  1
  O  O31  1  0.19848900  0.39697800  0.90998900  1
  O  O32  1  0.13484433  0.26968867  0.75667767  1
  O  O33  1  0.13484433  0.86515567  0.75667767  1
  O  O34  1  0.00000000  0.00000000  0.66806500  1
  O  O35  1  0.19848900  0.80151100  0.90998900  1
