# generated using pymatgen
data_Na5Li3(TiS4)2
_symmetry_space_group_name_H-M   'P 1'
_cell_length_a   17.70694400
_cell_length_b   9.70968400
_cell_length_c   12.17683231
_cell_angle_alpha   90.00000000
_cell_angle_beta   133.39710267
_cell_angle_gamma   90.00000000
_symmetry_Int_Tables_number   1
_chemical_formula_structural   Na5Li3(TiS4)2
_chemical_formula_sum   'Na20 Li12 Ti8 S32'
_cell_volume   1521.19208149
_cell_formula_units_Z   4
loop_
 _symmetry_equiv_pos_site_id
 _symmetry_equiv_pos_as_xyz
  1  'x, y, z'
loop_
 _atom_site_type_symbol
 _atom_site_label
 _atom_site_symmetry_multiplicity
 _atom_site_fract_x
 _atom_site_fract_y
 _atom_site_fract_z
 _atom_site_occupancy
  Na  Na0  1  0.59974500  0.98647300  0.73445800  1
  Na  Na1  1  0.50000000  0.49185500  0.25000000  1
  Na  Na2  1  0.35355950  0.25405350  0.48402500  1
  Na  Na3  1  0.64644050  0.74594650  0.51597500  1
  Na  Na4  1  0.40025500  0.01352700  0.26554200  1
  Na  Na5  1  0.50000000  0.50814500  0.75000000  1
  Na  Na6  1  0.85355950  0.24594650  0.98402500  1
  Na  Na7  1  0.14644050  0.75405350  0.01597500  1
  Na  Na8  1  0.59974500  0.01352700  0.23445800  1
  Na  Na9  1  0.40025500  0.98647300  0.76554200  1
  Na  Na10  1  0.09974500  0.48647300  0.73445800  1
  Na  Na11  1  0.00000000  0.99185500  0.25000000  1
  Na  Na12  1  0.85355950  0.75405350  0.48402500  1
  Na  Na13  1  0.14644050  0.24594650  0.51597500  1
  Na  Na14  1  0.90025500  0.51352700  0.26554200  1
  Na  Na15  1  0.00000000  0.00814500  0.75000000  1
  Na  Na16  1  0.35355950  0.74594650  0.98402500  1
  Na  Na17  1  0.64644050  0.25405350  0.01597500  1
  Na  Na18  1  0.09974500  0.51352700  0.23445800  1
  Na  Na19  1  0.90025500  0.48647300  0.76554200  1
  Li  Li20  1  0.69269550  0.50121450  0.75815800  1
  Li  Li21  1  0.80730450  0.00121450  0.74184200  1
  Li  Li22  1  0.19269550  0.99878550  0.25815800  1
  Li  Li23  1  0.75000000  0.75000000  0.00000000  1
  Li  Li24  1  0.75000000  0.25000000  0.50000000  1
  Li  Li25  1  0.30730450  0.49878550  0.24184200  1
  Li  Li26  1  0.19269550  0.00121450  0.75815800  1
  Li  Li27  1  0.30730450  0.50121450  0.74184200  1
  Li  Li28  1  0.69269550  0.49878550  0.25815800  1
  Li  Li29  1  0.25000000  0.25000000  0.00000000  1
  Li  Li30  1  0.25000000  0.75000000  0.50000000  1
  Li  Li31  1  0.80730450  0.99878550  0.24184200  1
  Ti  Ti32  1  0.41631100  0.73515400  0.46774500  1
  Ti  Ti33  1  0.58368900  0.26484600  0.53225500  1
  Ti  Ti34  1  0.91631100  0.76484600  0.96774500  1
  Ti  Ti35  1  0.08368900  0.23515400  0.03225500  1
  Ti  Ti36  1  0.91631100  0.23515400  0.46774500  1
  Ti  Ti37  1  0.08368900  0.76484600  0.53225500  1
  Ti  Ti38  1  0.41631100  0.26484600  0.96774500  1
  Ti  Ti39  1  0.58368900  0.73515400  0.03225500  1
  S  S40  1  0.12909000  0.44563200  0.00812700  1
  S  S41  1  0.58579650  0.29613250  0.17667500  1
  S  S42  1  0.87091000  0.55436800  0.99187300  1
  S  S43  1  0.17868700  0.06313500  0.04967500  1
  S  S44  1  0.61426850  0.28065050  0.74781600  1
  S  S45  1  0.37091000  0.94563200  0.49187300  1
  S  S46  1  0.82131300  0.93686500  0.95032500  1
  S  S47  1  0.41420350  0.29613250  0.32332500  1
  S  S48  1  0.38573150  0.28065050  0.75218400  1
  S  S49  1  0.61426850  0.71934950  0.24781600  1
  S  S50  1  0.67868700  0.43686500  0.54967500  1
  S  S51  1  0.32131300  0.56313500  0.45032500  1
  S  S52  1  0.41420350  0.70386750  0.82332500  1
  S  S53  1  0.58579650  0.70386750  0.67667500  1
  S  S54  1  0.62909000  0.05436800  0.50812700  1
  S  S55  1  0.38573150  0.71934950  0.25218400  1
  S  S56  1  0.62909000  0.94563200  0.00812700  1
  S  S57  1  0.08579650  0.79613250  0.17667500  1
  S  S58  1  0.37091000  0.05436800  0.99187300  1
  S  S59  1  0.67868700  0.56313500  0.04967500  1
  S  S60  1  0.11426850  0.78065050  0.74781600  1
  S  S61  1  0.87091000  0.44563200  0.49187300  1
  S  S62  1  0.32131300  0.43686500  0.95032500  1
  S  S63  1  0.91420350  0.79613250  0.32332500  1
  S  S64  1  0.88573150  0.78065050  0.75218400  1
  S  S65  1  0.11426850  0.21934950  0.24781600  1
  S  S66  1  0.17868700  0.93686500  0.54967500  1
  S  S67  1  0.82131300  0.06313500  0.45032500  1
  S  S68  1  0.91420350  0.20386750  0.82332500  1
  S  S69  1  0.08579650  0.20386750  0.67667500  1
  S  S70  1  0.12909000  0.55436800  0.50812700  1
  S  S71  1  0.88573150  0.21934950  0.25218400  1
