# generated using pymatgen
data_InH8C4NO10
_symmetry_space_group_name_H-M   'P 1'
_cell_length_a   9.10228984
_cell_length_b   9.10228984
_cell_length_c   11.65331000
_cell_angle_alpha   90.00000000
_cell_angle_beta   90.00000000
_cell_angle_gamma   120.00000000
_symmetry_Int_Tables_number   1
_chemical_formula_structural   InH8C4NO10
_chemical_formula_sum   'In3 H24 C12 N3 O30'
_cell_volume   836.14433574
_cell_formula_units_Z   3
loop_
 _symmetry_equiv_pos_site_id
 _symmetry_equiv_pos_as_xyz
  1  'x, y, z'
loop_
 _atom_site_type_symbol
 _atom_site_label
 _atom_site_symmetry_multiplicity
 _atom_site_fract_x
 _atom_site_fract_y
 _atom_site_fract_z
 _atom_site_occupancy
  In  In0  1  0.00000000  0.50000000  0.66666667  1
  In  In1  1  0.50000000  0.50000000  0.33333333  1
  In  In2  1  0.50000000  0.00000000  0.00000000  1
  H  H3  1  0.64315700  0.74230500  0.84505667  1
  H  H4  1  0.92245000  0.02526900  0.61479967  1
  H  H5  1  0.90085200  0.64315700  0.17839000  1
  H  H6  1  0.25769500  0.35684300  0.82161000  1
  H  H7  1  0.35684300  0.09914800  0.48827667  1
  H  H8  1  0.10281900  0.07755000  0.94813300  1
  H  H9  1  0.07755000  0.10281900  0.71853367  1
  H  H10  1  0.92245000  0.89718100  0.71853367  1
  H  H11  1  0.74230500  0.64315700  0.82161000  1
  H  H12  1  0.89718100  0.97473100  0.38520033  1
  H  H13  1  0.35684300  0.25769500  0.84505667  1
  H  H14  1  0.02526900  0.10281900  0.28146633  1
  H  H15  1  0.74230500  0.09914800  0.51172333  1
  H  H16  1  0.64315700  0.90085200  0.48827667  1
  H  H17  1  0.89718100  0.92245000  0.94813300  1
  H  H18  1  0.25769500  0.90085200  0.51172333  1
  H  H19  1  0.09914800  0.74230500  0.15494333  1
  H  H20  1  0.10281900  0.02526900  0.38520033  1
  H  H21  1  0.09914800  0.35684300  0.17839000  1
  H  H22  1  0.07755000  0.97473100  0.61479967  1
  H  H23  1  0.97473100  0.89718100  0.28146633  1
  H  H24  1  0.97473100  0.07755000  0.05186700  1
  H  H25  1  0.02526900  0.92245000  0.05186700  1
  H  H26  1  0.90085200  0.25769500  0.15494333  1
  C  C27  1  0.78673700  0.57347400  0.50000000  1
  C  C28  1  0.62304200  0.31152100  0.16666667  1
  C  C29  1  0.68847900  0.31152100  0.83333333  1
  C  C30  1  0.57347400  0.78673700  0.16666667  1
  C  C31  1  0.21326300  0.42652600  0.50000000  1
  C  C32  1  0.42652600  0.21326300  0.16666667  1
  C  C33  1  0.68847900  0.37695800  0.50000000  1
  C  C34  1  0.37695800  0.68847900  0.16666667  1
  C  C35  1  0.31152100  0.62304200  0.50000000  1
  C  C36  1  0.78673700  0.21326300  0.83333333  1
  C  C37  1  0.31152100  0.68847900  0.83333333  1
  C  C38  1  0.21326300  0.78673700  0.83333333  1
  N  N39  1  0.00000000  0.00000000  0.33333333  1
  N  N40  1  0.00000000  0.00000000  0.00000000  1
  N  N41  1  0.00000000  0.00000000  0.66666667  1
  O  O42  1  0.69488500  0.45004400  0.22168367  1
  O  O43  1  0.73113800  0.64949400  0.43842067  1
  O  O44  1  0.30511500  0.75515900  0.11164967  1
  O  O45  1  0.26886200  0.91835600  0.89491267  1
  O  O46  1  0.00000000  0.75691600  0.16666667  1
  O  O47  1  0.24484100  0.69488500  0.55501700  1
  O  O48  1  0.54995600  0.30511500  0.44498300  1
  O  O49  1  0.64949400  0.91835600  0.10508733  1
  O  O50  1  0.24308400  0.24308400  0.83333333  1
  O  O51  1  0.75515900  0.30511500  0.55501700  1
  O  O52  1  0.75691600  0.00000000  0.50000000  1
  O  O53  1  0.08164400  0.35050600  0.56157933  1
  O  O54  1  0.24308400  0.00000000  0.50000000  1
  O  O55  1  0.24484100  0.54995600  0.77831633  1
  O  O56  1  0.64949400  0.73113800  0.22824600  1
  O  O57  1  0.35050600  0.26886200  0.22824600  1
  O  O58  1  0.35050600  0.08164400  0.10508733  1
  O  O59  1  0.91835600  0.26886200  0.77175400  1
  O  O60  1  0.91835600  0.64949400  0.56157933  1
  O  O61  1  0.69488500  0.24484100  0.11164967  1
  O  O62  1  0.45004400  0.75515900  0.88835033  1
  O  O63  1  0.00000000  0.24308400  0.16666667  1
  O  O64  1  0.75691600  0.75691600  0.83333333  1
  O  O65  1  0.30511500  0.54995600  0.22168367  1
  O  O66  1  0.26886200  0.35050600  0.43842067  1
  O  O67  1  0.08164400  0.73113800  0.77175400  1
  O  O68  1  0.75515900  0.45004400  0.77831633  1
  O  O69  1  0.45004400  0.69488500  0.44498300  1
  O  O70  1  0.73113800  0.08164400  0.89491267  1
  O  O71  1  0.54995600  0.24484100  0.88835033  1
