# generated using pymatgen
data_TiSCl6O
_symmetry_space_group_name_H-M   'P 1'
_cell_length_a   6.63209562
_cell_length_b   8.18878032
_cell_length_c   11.22515059
_cell_angle_alpha   108.50382994
_cell_angle_beta   91.38155619
_cell_angle_gamma   113.71642751
_symmetry_Int_Tables_number   1
_chemical_formula_structural   TiSCl6O
_chemical_formula_sum   'Ti2 S2 Cl12 O2'
_cell_volume   521.13695456
_cell_formula_units_Z   2
loop_
 _symmetry_equiv_pos_site_id
 _symmetry_equiv_pos_as_xyz
  1  'x, y, z'
loop_
 _atom_site_type_symbol
 _atom_site_label
 _atom_site_symmetry_multiplicity
 _atom_site_fract_x
 _atom_site_fract_y
 _atom_site_fract_z
 _atom_site_occupancy
  Ti  Ti0  1  0.07283269  0.90957826  0.85758681  1
  Ti  Ti1  1  0.92716731  0.09042174  0.14241319  1
  S  S2  1  0.05459621  0.72362473  0.29993330  1
  S  S3  1  0.94540379  0.27637527  0.70006670  1
  Cl  Cl4  1  0.80463026  0.69368318  0.80763074  1
  Cl  Cl5  1  0.73389246  0.49930837  0.32686646  1
  Cl  Cl6  1  0.96980438  0.74561926  0.48341496  1
  Cl  Cl7  1  0.74518655  0.83085669  0.06008309  1
  Cl  Cl8  1  0.03019562  0.25438074  0.51658504  1
  Cl  Cl9  1  0.63267069  0.93229679  0.33315260  1
  Cl  Cl10  1  0.19536974  0.30631682  0.19236926  1
  Cl  Cl11  1  0.36732931  0.06770321  0.66684740  1
  Cl  Cl12  1  0.25481345  0.16914331  0.93991691  1
  Cl  Cl13  1  0.78113761  0.25824810  0.06109646  1
  Cl  Cl14  1  0.26610754  0.50069163  0.67313354  1
  Cl  Cl15  1  0.21886239  0.74175190  0.93890354  1
  O  O16  1  0.91683189  0.10802232  0.78677118  1
  O  O17  1  0.08316811  0.89197768  0.21322882  1
