# generated using pymatgen
data_V2Cu3O8
_symmetry_space_group_name_H-M   'P 1'
_cell_length_a   6.29153100
_cell_length_b   8.03949000
_cell_length_c   6.65809536
_cell_angle_alpha   90.00000000
_cell_angle_beta   108.91539032
_cell_angle_gamma   90.00000000
_symmetry_Int_Tables_number   1
_chemical_formula_structural   V2Cu3O8
_chemical_formula_sum   'V4 Cu6 O16'
_cell_volume   318.58491976
_cell_formula_units_Z   2
loop_
 _symmetry_equiv_pos_site_id
 _symmetry_equiv_pos_as_xyz
  1  'x, y, z'
loop_
 _atom_site_type_symbol
 _atom_site_label
 _atom_site_symmetry_multiplicity
 _atom_site_fract_x
 _atom_site_fract_y
 _atom_site_fract_z
 _atom_site_occupancy
  V  V0  1  0.74881700  0.61603300  0.85233200  1
  V  V1  1  0.74881700  0.88396700  0.35233200  1
  V  V2  1  0.25118300  0.11603300  0.64766800  1
  V  V3  1  0.25118300  0.38396700  0.14766800  1
  Cu  Cu4  1  0.26444900  0.75852000  0.39257000  1
  Cu  Cu5  1  0.00000000  0.00000000  0.00000000  1
  Cu  Cu6  1  0.26444900  0.74148000  0.89257000  1
  Cu  Cu7  1  0.73555100  0.25852000  0.10743000  1
  Cu  Cu8  1  0.73555100  0.24148000  0.60743000  1
  Cu  Cu9  1  0.00000000  0.50000000  0.50000000  1
  O  O10  1  0.77191500  0.01341700  0.14202400  1
  O  O11  1  0.24735800  0.50655900  0.93701800  1
  O  O12  1  0.50364600  0.27667300  0.23389400  1
  O  O13  1  0.22808500  0.51341700  0.35797600  1
  O  O14  1  0.97679200  0.76436700  0.94947300  1
  O  O15  1  0.75264200  0.00655900  0.56298200  1
  O  O16  1  0.49635400  0.72332700  0.76610600  1
  O  O17  1  0.24735800  0.99344100  0.43701800  1
  O  O18  1  0.22808500  0.98658300  0.85797600  1
  O  O19  1  0.49635400  0.77667300  0.26610600  1
  O  O20  1  0.77191500  0.48658300  0.64202400  1
  O  O21  1  0.75264200  0.49344100  0.06298200  1
  O  O22  1  0.50364600  0.22332700  0.73389400  1
  O  O23  1  0.97679200  0.73563300  0.44947300  1
  O  O24  1  0.02320800  0.26436700  0.55052700  1
  O  O25  1  0.02320800  0.23563300  0.05052700  1
