# generated using pymatgen
data_MgB4(H9O8)2
_symmetry_space_group_name_H-M   'P 1'
_cell_length_a   7.87413300
_cell_length_b   8.85661653
_cell_length_c   10.66171159
_cell_angle_alpha   97.65603491
_cell_angle_beta   102.89997051
_cell_angle_gamma   108.64297857
_symmetry_Int_Tables_number   1
_chemical_formula_structural   MgB4(H9O8)2
_chemical_formula_sum   'Mg2 B8 H36 O32'
_cell_volume   669.67341595
_cell_formula_units_Z   2
loop_
 _symmetry_equiv_pos_site_id
 _symmetry_equiv_pos_as_xyz
  1  'x, y, z'
loop_
 _atom_site_type_symbol
 _atom_site_label
 _atom_site_symmetry_multiplicity
 _atom_site_fract_x
 _atom_site_fract_y
 _atom_site_fract_z
 _atom_site_occupancy
  Mg  Mg0  1  0.12973100  0.82696000  0.22558600  1
  Mg  Mg1  1  0.87026900  0.17304000  0.77441400  1
  B  B2  1  0.48370200  0.18269100  0.30345200  1
  B  B3  1  0.51629800  0.81730900  0.69654800  1
  B  B4  1  0.52780200  0.22635900  0.08201100  1
  B  B5  1  0.47219800  0.77364100  0.91798900  1
  B  B6  1  0.79712500  0.28130100  0.27646900  1
  B  B7  1  0.20287500  0.71869900  0.72353100  1
  B  B8  1  0.69182100  0.46680100  0.41227800  1
  B  B9  1  0.30817900  0.53319900  0.58772200  1
  H  H10  1  0.34427300  0.07457400  0.42773700  1
  H  H11  1  0.65572700  0.92542600  0.57226300  1
  H  H12  1  0.53233800  0.23465700  0.89460700  1
  H  H13  1  0.46766200  0.76534300  0.10539300  1
  H  H14  1  0.06501000  0.30136000  0.37631300  1
  H  H15  1  0.93499000  0.69864000  0.62368700  1
  H  H16  1  0.63376100  0.62757200  0.53334100  1
  H  H17  1  0.36623900  0.37242800  0.46665900  1
  H  H18  1  0.85592500  0.50268100  0.12533900  1
  H  H19  1  0.14407500  0.49731900  0.87466100  1
  H  H20  1  0.87676200  0.60574100  0.01388500  1
  H  H21  1  0.12323800  0.39425900  0.98611500  1
  H  H22  1  0.18924800  0.83363800  0.98198100  1
  H  H23  1  0.81075200  0.16636200  0.01801900  1
  H  H24  1  0.22477700  0.00793500  0.06768800  1
  H  H25  1  0.77522300  0.99206500  0.93231200  1
  H  H26  1  0.29864600  0.60071500  0.20105100  1
  H  H27  1  0.70135400  0.39928500  0.79894900  1
  H  H28  1  0.45368700  0.77159000  0.29575200  1
  H  H29  1  0.54631300  0.22841000  0.70424800  1
  H  H30  1  0.18989500  0.77392900  0.48544400  1
  H  H31  1  0.81010500  0.22607100  0.51455600  1
  H  H32  1  0.01014500  0.62911200  0.38617000  1
  H  H33  1  0.98985500  0.37088800  0.61383000  1
  H  H34  1  0.94575900  0.04606300  0.24891800  1
  H  H35  1  0.05424100  0.95393700  0.75108200  1
  H  H36  1  0.80017500  0.87557800  0.16083200  1
  H  H37  1  0.19982500  0.12442200  0.83916800  1
  H  H38  1  0.28458300  0.33044300  0.15462400  1
  H  H39  1  0.71541700  0.66955700  0.84537600  1
  H  H40  1  0.11011200  0.34777800  0.19472100  1
  H  H41  1  0.88988800  0.65222200  0.80527900  1
  H  H42  1  0.67084400  0.99352900  0.37060000  1
  H  H43  1  0.32915600  0.00647100  0.62940000  1
  H  H44  1  0.75666200  0.85596300  0.39726400  1
  H  H45  1  0.24333800  0.14403700  0.60273600  1
  O  O46  1  0.41040500  0.19265200  0.16194000  1
  O  O47  1  0.58959500  0.80734800  0.83806000  1
  O  O48  1  0.71928000  0.27524900  0.13179800  1
  O  O49  1  0.28072000  0.72475100  0.86820200  1
  O  O50  1  0.82650100  0.44673500  0.35537200  1
  O  O51  1  0.17349900  0.55326500  0.64462800  1
  O  O52  1  0.52102600  0.34431100  0.39121100  1
  O  O53  1  0.47897400  0.65568900  0.60878900  1
  O  O54  1  0.66285600  0.15722900  0.32045600  1
  O  O55  1  0.33714400  0.84277100  0.67954400  1
  O  O56  1  0.33951400  0.05265800  0.33257000  1
  O  O57  1  0.66048600  0.94734200  0.66743000  1
  O  O58  1  0.44401300  0.20807000  0.95023700  1
  O  O59  1  0.55598700  0.79193000  0.04976300  1
  O  O60  1  0.97350800  0.25621200  0.28728400  1
  O  O61  1  0.02649200  0.74378800  0.71271600  1
  O  O62  1  0.73466500  0.61725600  0.49315600  1
  O  O63  1  0.26533500  0.38274400  0.50684400  1
  O  O64  1  0.92174500  0.61004000  0.11015900  1
  O  O65  1  0.07825500  0.38996000  0.88984100  1
  O  O66  1  0.14438300  0.89103000  0.04582300  1
  O  O67  1  0.85561700  0.10897000  0.95417700  1
  O  O68  1  0.34377700  0.72328200  0.21479000  1
  O  O69  1  0.65622300  0.27671800  0.78521000  1
  O  O70  1  0.10829600  0.73730800  0.39439900  1
  O  O71  1  0.89170400  0.26269200  0.60560100  1
  O  O72  1  0.91994800  0.92631300  0.23115300  1
  O  O73  1  0.08005200  0.07368700  0.76884700  1
  O  O74  1  0.20615600  0.39887900  0.14964000  1
  O  O75  1  0.79384400  0.60112100  0.85036000  1
  O  O76  1  0.65572800  0.89311800  0.40900800  1
  O  O77  1  0.34427200  0.10688200  0.59099200  1
