# generated using pymatgen
data_Na2Ti3Cl8
_symmetry_space_group_name_H-M   'P 1'
_cell_length_a   6.96285809
_cell_length_b   6.96285809
_cell_length_c   20.52943786
_cell_angle_alpha   90.00000000
_cell_angle_beta   90.00000000
_cell_angle_gamma   120.00000000
_symmetry_Int_Tables_number   1
_chemical_formula_structural   Na2Ti3Cl8
_chemical_formula_sum   'Na6 Ti9 Cl24'
_cell_volume   861.95139556
_cell_formula_units_Z   3
loop_
 _symmetry_equiv_pos_site_id
 _symmetry_equiv_pos_as_xyz
  1  'x, y, z'
loop_
 _atom_site_type_symbol
 _atom_site_label
 _atom_site_symmetry_multiplicity
 _atom_site_fract_x
 _atom_site_fract_y
 _atom_site_fract_z
 _atom_site_occupancy
  Na  Na0  1  0.00000000  0.00000000  0.17105500  1
  Na  Na1  1  0.66666667  0.33333333  0.17520233  1
  Na  Na2  1  0.66666667  0.33333333  0.50438833  1
  Na  Na3  1  0.33333333  0.66666667  0.50853567  1
  Na  Na4  1  0.33333333  0.66666667  0.83772167  1
  Na  Na5  1  0.00000000  0.00000000  0.84186900  1
  Ti  Ti6  1  0.19680267  0.80319733  0.33260433  1
  Ti  Ti7  1  0.60639467  0.80319733  0.33260433  1
  Ti  Ti8  1  0.19680267  0.39360533  0.33260433  1
  Ti  Ti9  1  0.86346933  0.13653067  0.66593767  1
  Ti  Ti10  1  0.27306133  0.13653067  0.66593767  1
  Ti  Ti11  1  0.86346933  0.72693867  0.66593767  1
  Ti  Ti12  1  0.53013600  0.46986400  0.99927100  1
  Ti  Ti13  1  0.93972800  0.46986400  0.99927100  1
  Ti  Ti14  1  0.53013600  0.06027200  0.99927100  1
  Cl  Cl15  1  0.32914133  0.16457067  0.26558567  1
  Cl  Cl16  1  0.83542933  0.67085867  0.26558567  1
  Cl  Cl17  1  0.83085567  0.16914433  0.07569033  1
  Cl  Cl18  1  0.83542933  0.16457067  0.26558567  1
  Cl  Cl19  1  0.33333333  0.66666667  0.24801767  1
  Cl  Cl20  1  0.83085567  0.66171133  0.07569033  1
  Cl  Cl21  1  0.33333333  0.66666667  0.06131567  1
  Cl  Cl22  1  0.33828867  0.16914433  0.07569033  1
  Cl  Cl23  1  0.99580800  0.49790400  0.59891900  1
  Cl  Cl24  1  0.50209600  0.00419200  0.59891900  1
  Cl  Cl25  1  0.49752233  0.50247767  0.40902367  1
  Cl  Cl26  1  0.50209600  0.49790400  0.59891900  1
  Cl  Cl27  1  0.00000000  0.00000000  0.58135100  1
  Cl  Cl28  1  0.49752233  0.99504467  0.40902367  1
  Cl  Cl29  1  0.00000000  0.00000000  0.39464900  1
  Cl  Cl30  1  0.00495533  0.50247767  0.40902367  1
  Cl  Cl31  1  0.66247467  0.83123733  0.93225233  1
  Cl  Cl32  1  0.16876267  0.33752533  0.93225233  1
  Cl  Cl33  1  0.16418900  0.83581100  0.74235700  1
  Cl  Cl34  1  0.16876267  0.83123733  0.93225233  1
  Cl  Cl35  1  0.66666667  0.33333333  0.91468433  1
  Cl  Cl36  1  0.16418900  0.32837800  0.74235700  1
  Cl  Cl37  1  0.66666667  0.33333333  0.72798233  1
  Cl  Cl38  1  0.67162200  0.83581100  0.74235700  1
