# generated using pymatgen
data_Er2SiO5
_symmetry_space_group_name_H-M   'P 1'
_cell_length_a   14.44881200
_cell_length_b   6.73472000
_cell_length_c   10.38985403
_cell_angle_alpha   90.00000000
_cell_angle_beta   122.20041888
_cell_angle_gamma   90.00000000
_symmetry_Int_Tables_number   1
_chemical_formula_structural   Er2SiO5
_chemical_formula_sum   'Er16 Si8 O40'
_cell_volume   855.51700213
_cell_formula_units_Z   8
loop_
 _symmetry_equiv_pos_site_id
 _symmetry_equiv_pos_as_xyz
  1  'x, y, z'
loop_
 _atom_site_type_symbol
 _atom_site_label
 _atom_site_symmetry_multiplicity
 _atom_site_fract_x
 _atom_site_fract_y
 _atom_site_fract_z
 _atom_site_occupancy
  Er  Er0  1  0.14091550  0.37715650  0.33587300  1
  Er  Er1  1  0.03654950  0.74363950  0.46626200  1
  Er  Er2  1  0.85908450  0.62284350  0.66412700  1
  Er  Er3  1  0.14091550  0.62284350  0.83587300  1
  Er  Er4  1  0.85908450  0.37715650  0.16412700  1
  Er  Er5  1  0.96345050  0.25636050  0.53373800  1
  Er  Er6  1  0.03654950  0.25636050  0.96626200  1
  Er  Er7  1  0.96345050  0.74363950  0.03373800  1
  Er  Er8  1  0.64091550  0.87715650  0.33587300  1
  Er  Er9  1  0.53654950  0.24363950  0.46626200  1
  Er  Er10  1  0.35908450  0.12284350  0.66412700  1
  Er  Er11  1  0.64091550  0.12284350  0.83587300  1
  Er  Er12  1  0.35908450  0.87715650  0.16412700  1
  Er  Er13  1  0.46345050  0.75636050  0.53373800  1
  Er  Er14  1  0.53654950  0.75636050  0.96626200  1
  Er  Er15  1  0.46345050  0.24363950  0.03373800  1
  Si  Si16  1  0.18179400  0.09044800  0.80726600  1
  Si  Si17  1  0.81820600  0.90955200  0.19273400  1
  Si  Si18  1  0.31820600  0.59044800  0.69273400  1
  Si  Si19  1  0.68179400  0.40955200  0.30726600  1
  Si  Si20  1  0.68179400  0.59044800  0.80726600  1
  Si  Si21  1  0.31820600  0.40955200  0.19273400  1
  Si  Si22  1  0.81820600  0.09044800  0.69273400  1
  Si  Si23  1  0.18179400  0.90955200  0.30726600  1
  O  O24  1  0.70232950  0.85313350  0.17567600  1
  O  O25  1  0.88082750  0.28831750  0.67844100  1
  O  O26  1  0.58847400  0.49713900  0.13936000  1
  O  O27  1  0.79859100  0.92941200  0.56188500  1
  O  O28  1  0.29767050  0.14686650  0.82432400  1
  O  O29  1  0.01783850  0.59607050  0.89764800  1
  O  O30  1  0.20232950  0.64686650  0.67567600  1
  O  O31  1  0.88082750  0.71168250  0.17844100  1
  O  O32  1  0.20140900  0.07058800  0.43811500  1
  O  O33  1  0.01783850  0.40392950  0.39764800  1
  O  O34  1  0.98216150  0.59607050  0.60235200  1
  O  O35  1  0.91152600  0.99713900  0.36064000  1
  O  O36  1  0.11917250  0.71168250  0.32155900  1
  O  O37  1  0.20140900  0.92941200  0.93811500  1
  O  O38  1  0.08847400  0.00286100  0.63936000  1
  O  O39  1  0.79767050  0.35313350  0.32432400  1
  O  O40  1  0.41152600  0.50286100  0.86064000  1
  O  O41  1  0.98216150  0.40392950  0.10235200  1
  O  O42  1  0.11917250  0.28831750  0.82155900  1
  O  O43  1  0.79859100  0.07058800  0.06188500  1
  O  O44  1  0.20232950  0.35313350  0.17567600  1
  O  O45  1  0.38082750  0.78831750  0.67844100  1
  O  O46  1  0.08847400  0.99713900  0.13936000  1
  O  O47  1  0.29859100  0.42941200  0.56188500  1
  O  O48  1  0.79767050  0.64686650  0.82432400  1
  O  O49  1  0.51783850  0.09607050  0.89764800  1
  O  O50  1  0.70232950  0.14686650  0.67567600  1
  O  O51  1  0.38082750  0.21168250  0.17844100  1
  O  O52  1  0.70140900  0.57058800  0.43811500  1
  O  O53  1  0.51783850  0.90392950  0.39764800  1
  O  O54  1  0.48216150  0.09607050  0.60235200  1
  O  O55  1  0.41152600  0.49713900  0.36064000  1
  O  O56  1  0.61917250  0.21168250  0.32155900  1
  O  O57  1  0.70140900  0.42941200  0.93811500  1
  O  O58  1  0.58847400  0.50286100  0.63936000  1
  O  O59  1  0.29767050  0.85313350  0.32432400  1
  O  O60  1  0.91152600  0.00286100  0.86064000  1
  O  O61  1  0.48216150  0.90392950  0.10235200  1
  O  O62  1  0.61917250  0.78831750  0.82155900  1
  O  O63  1  0.29859100  0.57058800  0.06188500  1
