# generated using pymatgen
data_P3S3N6F5
_symmetry_space_group_name_H-M   'P 1'
_cell_length_a   10.00561500
_cell_length_b   15.13817300
_cell_length_c   16.39257000
_cell_angle_alpha   90.00000000
_cell_angle_beta   90.00000000
_cell_angle_gamma   90.00000000
_symmetry_Int_Tables_number   1
_chemical_formula_structural   P3S3N6F5
_chemical_formula_sum   'P24 S24 N48 F40'
_cell_volume   2482.92898799
_cell_formula_units_Z   8
loop_
 _symmetry_equiv_pos_site_id
 _symmetry_equiv_pos_as_xyz
  1  'x, y, z'
loop_
 _atom_site_type_symbol
 _atom_site_label
 _atom_site_symmetry_multiplicity
 _atom_site_fract_x
 _atom_site_fract_y
 _atom_site_fract_z
 _atom_site_occupancy
  P  P0  1  0.79332500  0.91649100  0.25704500  1
  P  P1  1  0.54609200  0.28620600  0.68206300  1
  P  P2  1  0.45390800  0.21379400  0.18206300  1
  P  P3  1  0.20667500  0.08350900  0.74295500  1
  P  P4  1  0.20199400  0.11525600  0.57633200  1
  P  P5  1  0.29332500  0.08350900  0.24295500  1
  P  P6  1  0.79800600  0.88474400  0.42366800  1
  P  P7  1  0.29332500  0.58350900  0.25704500  1
  P  P8  1  0.70667500  0.41649100  0.74295500  1
  P  P9  1  0.29800600  0.11525600  0.07633200  1
  P  P10  1  0.29800600  0.61525600  0.42366800  1
  P  P11  1  0.54609200  0.78620600  0.81793700  1
  P  P12  1  0.95390800  0.28620600  0.18206300  1
  P  P13  1  0.04609200  0.21379400  0.68206300  1
  P  P14  1  0.79800600  0.38474400  0.07633200  1
  P  P15  1  0.70667500  0.91649100  0.75704500  1
  P  P16  1  0.04609200  0.71379400  0.81793700  1
  P  P17  1  0.70199400  0.38474400  0.57633200  1
  P  P18  1  0.70199400  0.88474400  0.92366800  1
  P  P19  1  0.95390800  0.78620600  0.31793700  1
  P  P20  1  0.20667500  0.58350900  0.75704500  1
  P  P21  1  0.45390800  0.71379400  0.31793700  1
  P  P22  1  0.20199400  0.61525600  0.92366800  1
  P  P23  1  0.79332500  0.41649100  0.24295500  1
  S  S24  1  0.18280400  0.95620500  0.47711000  1
  S  S25  1  0.12763300  0.85805700  0.58148700  1
  S  S26  1  0.62763300  0.14194300  0.91851300  1
  S  S27  1  0.62763300  0.64194300  0.58148700  1
  S  S28  1  0.10193700  0.88484600  0.06752800  1
  S  S29  1  0.12763300  0.35805700  0.91851300  1
  S  S30  1  0.87236700  0.14194300  0.41851300  1
  S  S31  1  0.68280400  0.04379500  0.02289000  1
  S  S32  1  0.81719600  0.54379500  0.97711000  1
  S  S33  1  0.39806300  0.88484600  0.56752800  1
  S  S34  1  0.31719600  0.45620500  0.52289000  1
  S  S35  1  0.87236700  0.64194300  0.08148700  1
  S  S36  1  0.89806300  0.61515400  0.56752800  1
  S  S37  1  0.37236700  0.35805700  0.41851300  1
  S  S38  1  0.18280400  0.45620500  0.02289000  1
  S  S39  1  0.10193700  0.38484600  0.43247200  1
  S  S40  1  0.89806300  0.11515400  0.93247200  1
  S  S41  1  0.60193700  0.11515400  0.43247200  1
  S  S42  1  0.39806300  0.38484600  0.93247200  1
  S  S43  1  0.81719600  0.04379500  0.52289000  1
  S  S44  1  0.60193700  0.61515400  0.06752800  1
  S  S45  1  0.68280400  0.54379500  0.47711000  1
  S  S46  1  0.37236700  0.85805700  0.08148700  1
  S  S47  1  0.31719600  0.95620500  0.97711000  1
  N  N48  1  0.27693700  0.84517200  0.61634200  1
  N  N49  1  0.40039100  0.65898000  0.24221000  1
  N  N50  1  0.22306300  0.84517200  0.11634200  1
  N  N51  1  0.22306300  0.34517200  0.38365800  1
  N  N52  1  0.59960900  0.34102000  0.75779000  1
  N  N53  1  0.40437400  0.69211000  0.40668000  1
  N  N54  1  0.90039100  0.34102000  0.25779000  1
  N  N55  1  0.35262900  0.55331400  0.49762500  1
  N  N56  1  0.90437400  0.80789000  0.40668000  1
  N  N57  1  0.64737100  0.44668600  0.50237500  1
  N  N58  1  0.09960900  0.65898000  0.74221000  1
  N  N59  1  0.72306300  0.65482800  0.11634200  1
  N  N60  1  0.35262900  0.05331400  0.00237500  1
  N  N61  1  0.77693700  0.65482800  0.61634200  1
  N  N62  1  0.65794300  0.06776400  0.51232800  1
  N  N63  1  0.59960900  0.84102000  0.74221000  1
  N  N64  1  0.34205700  0.93223600  0.48767200  1
  N  N65  1  0.59562600  0.80789000  0.90668000  1
  N  N66  1  0.59562600  0.30789000  0.59332000  1
  N  N67  1  0.65794300  0.56776400  0.98767200  1
  N  N68  1  0.24441900  0.06141200  0.15407600  1
  N  N69  1  0.74441900  0.93858800  0.34592400  1
  N  N70  1  0.09562600  0.69211000  0.90668000  1
  N  N71  1  0.14737100  0.55331400  0.99762500  1
  N  N72  1  0.84205700  0.56776400  0.48767200  1
  N  N73  1  0.90437400  0.30789000  0.09332000  1
  N  N74  1  0.27693700  0.34517200  0.88365800  1
  N  N75  1  0.72306300  0.15482800  0.38365800  1
  N  N76  1  0.09960900  0.15898000  0.75779000  1
  N  N77  1  0.25558100  0.56141200  0.84592400  1
  N  N78  1  0.75558100  0.93858800  0.84592400  1
  N  N79  1  0.40039100  0.15898000  0.25779000  1
  N  N80  1  0.74441900  0.43858800  0.15407600  1
  N  N81  1  0.85262900  0.44668600  0.00237500  1
  N  N82  1  0.85262900  0.94668600  0.49762500  1
  N  N83  1  0.25558100  0.06141200  0.65407600  1
  N  N84  1  0.75558100  0.43858800  0.65407600  1
  N  N85  1  0.84205700  0.06776400  0.01232800  1
  N  N86  1  0.90039100  0.84102000  0.24221000  1
  N  N87  1  0.77693700  0.15482800  0.88365800  1
  N  N88  1  0.34205700  0.43223600  0.01232800  1
  N  N89  1  0.09562600  0.19211000  0.59332000  1
  N  N90  1  0.15794300  0.93223600  0.98767200  1
  N  N91  1  0.64737100  0.94668600  0.99762500  1
  N  N92  1  0.14737100  0.05331400  0.50237500  1
  N  N93  1  0.40437400  0.19211000  0.09332000  1
  N  N94  1  0.15794300  0.43223600  0.51232800  1
  N  N95  1  0.24441900  0.56141200  0.34592400  1
  F  F96  1  0.82850300  0.83804100  0.96247000  1
  F  F97  1  0.88952400  0.71140900  0.81578800  1
  F  F98  1  0.56412400  0.18579700  0.70019200  1
  F  F99  1  0.93587600  0.68579700  0.29980800  1
  F  F100  1  0.43587600  0.81420300  0.29980800  1
  F  F101  1  0.43587600  0.31420300  0.20019200  1
  F  F102  1  0.17031100  0.10060000  0.29970300  1
  F  F103  1  0.84411500  0.50275100  0.28514200  1
  F  F104  1  0.67031100  0.89940000  0.20029700  1
  F  F105  1  0.82968900  0.39940000  0.79970300  1
  F  F106  1  0.67149700  0.83804100  0.46247000  1
  F  F107  1  0.56412400  0.68579700  0.79980800  1
  F  F108  1  0.34411500  0.49724900  0.21485800  1
  F  F109  1  0.11047600  0.78859100  0.31578800  1
  F  F110  1  0.11047600  0.28859100  0.18421200  1
  F  F111  1  0.32968900  0.60060000  0.70029700  1
  F  F112  1  0.38952400  0.78859100  0.81578800  1
  F  F113  1  0.32850300  0.16195900  0.53753000  1
  F  F114  1  0.17031100  0.60060000  0.20029700  1
  F  F115  1  0.93587600  0.18579700  0.20019200  1
  F  F116  1  0.34411500  0.99724900  0.28514200  1
  F  F117  1  0.32850300  0.66195900  0.96247000  1
  F  F118  1  0.65588500  0.00275100  0.71485800  1
  F  F119  1  0.17149700  0.66195900  0.46247000  1
  F  F120  1  0.15588500  0.99724900  0.78514200  1
  F  F121  1  0.67031100  0.39940000  0.29970300  1
  F  F122  1  0.32968900  0.10060000  0.79970300  1
  F  F123  1  0.15588500  0.49724900  0.71485800  1
  F  F124  1  0.84411500  0.00275100  0.21485800  1
  F  F125  1  0.06412400  0.31420300  0.70019200  1
  F  F126  1  0.61047600  0.21140900  0.18421200  1
  F  F127  1  0.38952400  0.28859100  0.68421200  1
  F  F128  1  0.67149700  0.33804100  0.03753000  1
  F  F129  1  0.65588500  0.50275100  0.78514200  1
  F  F130  1  0.61047600  0.71140900  0.31578800  1
  F  F131  1  0.06412400  0.81420300  0.79980800  1
  F  F132  1  0.82968900  0.89940000  0.70029700  1
  F  F133  1  0.17149700  0.16195900  0.03753000  1
  F  F134  1  0.82850300  0.33804100  0.53753000  1
  F  F135  1  0.88952400  0.21140900  0.68421200  1
