# generated using pymatgen
data_SiO2
_symmetry_space_group_name_H-M   'P 1'
_cell_length_a   14.08268200
_cell_length_b   17.91819000
_cell_length_c   5.28467900
_cell_angle_alpha   90.00000000
_cell_angle_beta   90.00000000
_cell_angle_gamma   90.00000000
_symmetry_Int_Tables_number   1
_chemical_formula_structural   SiO2
_chemical_formula_sum   'Si24 O48'
_cell_volume   1333.51566798
_cell_formula_units_Z   24
loop_
 _symmetry_equiv_pos_site_id
 _symmetry_equiv_pos_as_xyz
  1  'x, y, z'
loop_
 _atom_site_type_symbol
 _atom_site_label
 _atom_site_symmetry_multiplicity
 _atom_site_fract_x
 _atom_site_fract_y
 _atom_site_fract_z
 _atom_site_occupancy
  Si  Si0  1  0.29306750  0.04776250  0.75000000  1
  Si  Si1  1  0.29306750  0.95223750  0.25000000  1
  Si  Si2  1  0.29415750  0.71143350  0.75000000  1
  Si  Si3  1  0.50000000  0.77668000  0.75000000  1
  Si  Si4  1  0.50000000  0.11857800  0.75000000  1
  Si  Si5  1  0.50000000  0.22332000  0.25000000  1
  Si  Si6  1  0.70584250  0.28856650  0.25000000  1
  Si  Si7  1  0.50000000  0.88142200  0.25000000  1
  Si  Si8  1  0.70693250  0.95223750  0.25000000  1
  Si  Si9  1  0.29415750  0.28856650  0.25000000  1
  Si  Si10  1  0.70584250  0.71143350  0.75000000  1
  Si  Si11  1  0.70693250  0.04776250  0.75000000  1
  Si  Si12  1  0.79306750  0.54776250  0.75000000  1
  Si  Si13  1  0.79306750  0.45223750  0.25000000  1
  Si  Si14  1  0.79415750  0.21143350  0.75000000  1
  Si  Si15  1  0.00000000  0.27668000  0.75000000  1
  Si  Si16  1  0.00000000  0.61857800  0.75000000  1
  Si  Si17  1  0.00000000  0.72332000  0.25000000  1
  Si  Si18  1  0.20584250  0.78856650  0.25000000  1
  Si  Si19  1  0.00000000  0.38142200  0.25000000  1
  Si  Si20  1  0.20693250  0.45223750  0.25000000  1
  Si  Si21  1  0.79415750  0.78856650  0.25000000  1
  Si  Si22  1  0.20584250  0.21143350  0.75000000  1
  Si  Si23  1  0.20693250  0.54776250  0.75000000  1
  O  O24  1  0.73398300  0.00000000  0.00000000  1
  O  O25  1  0.50000000  0.17060900  0.49922600  1
  O  O26  1  0.26601700  0.00000000  0.00000000  1
  O  O27  1  0.40646350  0.93426750  0.25000000  1
  O  O28  1  0.77023650  0.12321850  0.75000000  1
  O  O29  1  0.22976350  0.87678150  0.25000000  1
  O  O30  1  0.59172850  0.27776350  0.25000000  1
  O  O31  1  0.59353650  0.93426750  0.25000000  1
  O  O32  1  0.22976350  0.12321850  0.75000000  1
  O  O33  1  0.50000000  0.17060900  0.00077400  1
  O  O34  1  0.50000000  0.82939100  0.50077400  1
  O  O35  1  0.25000000  0.25000000  0.50000000  1
  O  O36  1  0.26601700  0.00000000  0.50000000  1
  O  O37  1  0.40646350  0.06573250  0.75000000  1
  O  O38  1  0.77023650  0.87678150  0.25000000  1
  O  O39  1  0.25000000  0.25000000  0.00000000  1
  O  O40  1  0.59353650  0.06573250  0.75000000  1
  O  O41  1  0.40827150  0.72223650  0.75000000  1
  O  O42  1  0.73398300  0.00000000  0.50000000  1
  O  O43  1  0.25000000  0.75000000  0.00000000  1
  O  O44  1  0.50000000  0.82939100  0.99922600  1
  O  O45  1  0.59172850  0.72223650  0.75000000  1
  O  O46  1  0.40827150  0.27776350  0.25000000  1
  O  O47  1  0.25000000  0.75000000  0.50000000  1
  O  O48  1  0.23398300  0.50000000  0.00000000  1
  O  O49  1  0.00000000  0.67060900  0.49922600  1
  O  O50  1  0.76601700  0.50000000  0.00000000  1
  O  O51  1  0.90646350  0.43426750  0.25000000  1
  O  O52  1  0.27023650  0.62321850  0.75000000  1
  O  O53  1  0.72976350  0.37678150  0.25000000  1
  O  O54  1  0.09172850  0.77776350  0.25000000  1
  O  O55  1  0.09353650  0.43426750  0.25000000  1
  O  O56  1  0.72976350  0.62321850  0.75000000  1
  O  O57  1  0.00000000  0.67060900  0.00077400  1
  O  O58  1  0.00000000  0.32939100  0.50077400  1
  O  O59  1  0.75000000  0.75000000  0.50000000  1
  O  O60  1  0.76601700  0.50000000  0.50000000  1
  O  O61  1  0.90646350  0.56573250  0.75000000  1
  O  O62  1  0.27023650  0.37678150  0.25000000  1
  O  O63  1  0.75000000  0.75000000  0.00000000  1
  O  O64  1  0.09353650  0.56573250  0.75000000  1
  O  O65  1  0.90827150  0.22223650  0.75000000  1
  O  O66  1  0.23398300  0.50000000  0.50000000  1
  O  O67  1  0.75000000  0.25000000  0.00000000  1
  O  O68  1  0.00000000  0.32939100  0.99922600  1
  O  O69  1  0.09172850  0.22223650  0.75000000  1
  O  O70  1  0.90827150  0.77776350  0.25000000  1
  O  O71  1  0.75000000  0.25000000  0.50000000  1
