# generated using pymatgen
data_Sn4(PO4)3
_symmetry_space_group_name_H-M   'P 1'
_cell_length_a   9.71223427
_cell_length_b   9.71223427
_cell_length_c   6.95696800
_cell_angle_alpha   90.00000000
_cell_angle_beta   90.00000000
_cell_angle_gamma   120.00000000
_symmetry_Int_Tables_number   1
_chemical_formula_structural   Sn4(PO4)3
_chemical_formula_sum   'Sn8 P6 O24'
_cell_volume   568.31476157
_cell_formula_units_Z   2
loop_
 _symmetry_equiv_pos_site_id
 _symmetry_equiv_pos_as_xyz
  1  'x, y, z'
loop_
 _atom_site_type_symbol
 _atom_site_label
 _atom_site_symmetry_multiplicity
 _atom_site_fract_x
 _atom_site_fract_y
 _atom_site_fract_z
 _atom_site_occupancy
  Sn  Sn0  1  0.02013800  0.25820800  0.24498100  1
  Sn  Sn1  1  0.33333333  0.66666667  0.93662900  1
  Sn  Sn2  1  0.76193000  0.02013800  0.74498100  1
  Sn  Sn3  1  0.97986200  0.74179200  0.74498100  1
  Sn  Sn4  1  0.66666667  0.33333333  0.43662900  1
  Sn  Sn5  1  0.74179200  0.76193000  0.24498100  1
  Sn  Sn6  1  0.25820800  0.23807000  0.74498100  1
  Sn  Sn7  1  0.23807000  0.97986200  0.24498100  1
  P  P8  1  0.40822500  0.02208000  0.75611200  1
  P  P9  1  0.02208000  0.61385500  0.25611200  1
  P  P10  1  0.61385500  0.59177500  0.75611200  1
  P  P11  1  0.59177500  0.97792000  0.25611200  1
  P  P12  1  0.38614500  0.40822500  0.25611200  1
  P  P13  1  0.97792000  0.38614500  0.75611200  1
  O  O14  1  0.91590800  0.27630200  0.57392300  1
  O  O15  1  0.50733800  0.40812200  0.75237900  1
  O  O16  1  0.48960300  0.32659300  0.25308400  1
  O  O17  1  0.36039400  0.08409200  0.57392300  1
  O  O18  1  0.27630200  0.36039400  0.07392300  1
  O  O19  1  0.16301000  0.48960300  0.75308400  1
  O  O20  1  0.40812200  0.90078400  0.25237900  1
  O  O21  1  0.32659300  0.83699000  0.75308400  1
  O  O22  1  0.67340700  0.16301000  0.25308400  1
  O  O23  1  0.34584700  0.07672700  0.92852200  1
  O  O24  1  0.09921600  0.50733800  0.25237900  1
  O  O25  1  0.90078400  0.49266200  0.75237900  1
  O  O26  1  0.72369800  0.63960600  0.57392300  1
  O  O27  1  0.63960600  0.91590800  0.07392300  1
  O  O28  1  0.92327300  0.26912000  0.92852200  1
  O  O29  1  0.51039700  0.67340700  0.75308400  1
  O  O30  1  0.59187800  0.09921600  0.75237900  1
  O  O31  1  0.26912000  0.34584700  0.42852200  1
  O  O32  1  0.49266200  0.59187800  0.25237900  1
  O  O33  1  0.83699000  0.51039700  0.25308400  1
  O  O34  1  0.08409200  0.72369800  0.07392300  1
  O  O35  1  0.07672700  0.73088000  0.42852200  1
  O  O36  1  0.65415300  0.92327300  0.42852200  1
  O  O37  1  0.73088000  0.65415300  0.92852200  1
