# generated using pymatgen
data_BaPb2IF5
_symmetry_space_group_name_H-M   'P 1'
_cell_length_a   6.13021100
_cell_length_b   6.13021100
_cell_length_c   10.12016200
_cell_angle_alpha   90.00000000
_cell_angle_beta   90.00000000
_cell_angle_gamma   90.00000000
_symmetry_Int_Tables_number   1
_chemical_formula_structural   BaPb2IF5
_chemical_formula_sum   'Ba2 Pb4 I2 F10'
_cell_volume   380.31049535
_cell_formula_units_Z   2
loop_
 _symmetry_equiv_pos_site_id
 _symmetry_equiv_pos_as_xyz
  1  'x, y, z'
loop_
 _atom_site_type_symbol
 _atom_site_label
 _atom_site_symmetry_multiplicity
 _atom_site_fract_x
 _atom_site_fract_y
 _atom_site_fract_z
 _atom_site_occupancy
  Ba  Ba0  1  0.50000000  0.50000000  0.00000000  1
  Ba  Ba1  1  0.00000000  0.00000000  0.00000000  1
  Pb  Pb2  1  0.50000000  0.00000000  0.69355300  1
  Pb  Pb3  1  0.00000000  0.50000000  0.73563400  1
  Pb  Pb4  1  0.50000000  0.00000000  0.26436600  1
  Pb  Pb5  1  0.00000000  0.50000000  0.30644700  1
  I  I6  1  0.50000000  0.50000000  0.50000000  1
  I  I7  1  0.00000000  0.00000000  0.50000000  1
  F  F8  1  0.50000000  0.00000000  0.03537400  1
  F  F9  1  0.76397900  0.26397900  0.18016200  1
  F  F10  1  0.26397900  0.23602100  0.81983800  1
  F  F11  1  0.76397900  0.73602100  0.18016200  1
  F  F12  1  0.73602100  0.76397900  0.81983800  1
  F  F13  1  0.23602100  0.26397900  0.18016200  1
  F  F14  1  0.00000000  0.50000000  0.96462600  1
  F  F15  1  0.73602100  0.23602100  0.81983800  1
  F  F16  1  0.26397900  0.76397900  0.81983800  1
  F  F17  1  0.23602100  0.73602100  0.18016200  1
