# generated using pymatgen
data_Zn2P2O7
_symmetry_space_group_name_H-M   'P 1'
_cell_length_a   19.91519400
_cell_length_b   8.38908600
_cell_length_c   9.23807270
_cell_angle_alpha   90.00000000
_cell_angle_beta   99.50199479
_cell_angle_gamma   90.00000000
_symmetry_Int_Tables_number   1
_chemical_formula_structural   Zn2P2O7
_chemical_formula_sum   'Zn24 P24 O84'
_cell_volume   1522.23157494
_cell_formula_units_Z   12
loop_
 _symmetry_equiv_pos_site_id
 _symmetry_equiv_pos_as_xyz
  1  'x, y, z'
loop_
 _atom_site_type_symbol
 _atom_site_label
 _atom_site_symmetry_multiplicity
 _atom_site_fract_x
 _atom_site_fract_y
 _atom_site_fract_z
 _atom_site_occupancy
  Zn  Zn0  1  0.98578350  0.68767150  0.95939400  1
  Zn  Zn1  1  0.51421650  0.18767150  0.54060600  1
  Zn  Zn2  1  0.51421650  0.81232850  0.04060600  1
  Zn  Zn3  1  0.98578350  0.31232850  0.45939400  1
  Zn  Zn4  1  0.83685950  0.81883450  0.83817000  1
  Zn  Zn5  1  0.66314050  0.31883450  0.66183000  1
  Zn  Zn6  1  0.66314050  0.68116550  0.16183000  1
  Zn  Zn7  1  0.83685950  0.18116550  0.33817000  1
  Zn  Zn8  1  0.81641350  0.18892150  0.78963900  1
  Zn  Zn9  1  0.68358650  0.68892150  0.71036100  1
  Zn  Zn10  1  0.68358650  0.31107850  0.21036100  1
  Zn  Zn11  1  0.81641350  0.81107850  0.28963900  1
  Zn  Zn12  1  0.48578350  0.18767150  0.95939400  1
  Zn  Zn13  1  0.01421650  0.68767150  0.54060600  1
  Zn  Zn14  1  0.01421650  0.31232850  0.04060600  1
  Zn  Zn15  1  0.48578350  0.81232850  0.45939400  1
  Zn  Zn16  1  0.33685950  0.31883450  0.83817000  1
  Zn  Zn17  1  0.16314050  0.81883450  0.66183000  1
  Zn  Zn18  1  0.16314050  0.18116550  0.16183000  1
  Zn  Zn19  1  0.33685950  0.68116550  0.33817000  1
  Zn  Zn20  1  0.31641350  0.68892150  0.78963900  1
  Zn  Zn21  1  0.18358650  0.18892150  0.71036100  1
  Zn  Zn22  1  0.18358650  0.81107850  0.21036100  1
  Zn  Zn23  1  0.31641350  0.31107850  0.28963900  1
  P  P24  1  0.93456000  0.98048300  0.13867700  1
  P  P25  1  0.56544000  0.48048300  0.36132300  1
  P  P26  1  0.56544000  0.51951700  0.86132300  1
  P  P27  1  0.93456000  0.01951700  0.63867700  1
  P  P28  1  0.89714850  0.49265450  0.18087500  1
  P  P29  1  0.60285150  0.99265450  0.31912500  1
  P  P30  1  0.60285150  0.00734550  0.81912500  1
  P  P31  1  0.89714850  0.50734550  0.68087500  1
  P  P32  1  0.76169600  0.48185200  0.96300300  1
  P  P33  1  0.73830400  0.98185200  0.53699700  1
  P  P34  1  0.73830400  0.01814800  0.03699700  1
  P  P35  1  0.76169600  0.51814800  0.46300300  1
  P  P36  1  0.43456000  0.48048300  0.13867700  1
  P  P37  1  0.06544000  0.98048300  0.36132300  1
  P  P38  1  0.06544000  0.01951700  0.86132300  1
  P  P39  1  0.43456000  0.51951700  0.63867700  1
  P  P40  1  0.39714850  0.99265450  0.18087500  1
  P  P41  1  0.10285150  0.49265450  0.31912500  1
  P  P42  1  0.10285150  0.50734550  0.81912500  1
  P  P43  1  0.39714850  0.00734550  0.68087500  1
  P  P44  1  0.26169600  0.98185200  0.96300300  1
  P  P45  1  0.23830400  0.48185200  0.53699700  1
  P  P46  1  0.23830400  0.51814800  0.03699700  1
  P  P47  1  0.26169600  0.01814800  0.46300300  1
  O  O48  1  0.00000000  0.91371700  0.25000000  1
  O  O49  1  0.00000000  0.08628300  0.75000000  1
  O  O50  1  0.62322600  0.49286400  0.26831800  1
  O  O51  1  0.87677400  0.99286400  0.23168200  1
  O  O52  1  0.87677400  0.00713600  0.73168200  1
  O  O53  1  0.62322600  0.50713600  0.76831800  1
  O  O54  1  0.58188500  0.34456600  0.47447900  1
  O  O55  1  0.91811500  0.84456600  0.02552100  1
  O  O56  1  0.91811500  0.15543400  0.52552100  1
  O  O57  1  0.58188500  0.65543400  0.97447900  1
  O  O58  1  0.94976750  0.13863350  0.07289600  1
  O  O59  1  0.55023250  0.63863350  0.42710400  1
  O  O60  1  0.55023250  0.36136650  0.92710400  1
  O  O61  1  0.94976750  0.86136650  0.57289600  1
  O  O62  1  0.83532450  0.44259850  0.05297100  1
  O  O63  1  0.66467550  0.94259850  0.44702900  1
  O  O64  1  0.66467550  0.05740150  0.94702900  1
  O  O65  1  0.83532450  0.55740150  0.55297100  1
  O  O66  1  0.95900850  0.50499150  0.09976100  1
  O  O67  1  0.54099150  0.00499150  0.40023900  1
  O  O68  1  0.54099150  0.99500850  0.90023900  1
  O  O69  1  0.95900850  0.49500850  0.59976100  1
  O  O70  1  0.71100350  0.49014450  0.07198100  1
  O  O71  1  0.78899650  0.99014450  0.42801900  1
  O  O72  1  0.78899650  0.00985550  0.92801900  1
  O  O73  1  0.71100350  0.50985550  0.57198100  1
  O  O74  1  0.90514500  0.34844200  0.28637000  1
  O  O75  1  0.59485500  0.84844200  0.21363000  1
  O  O76  1  0.59485500  0.15155800  0.71363000  1
  O  O77  1  0.90514500  0.65155800  0.78637000  1
  O  O78  1  0.74685200  0.34118600  0.85623200  1
  O  O79  1  0.75314800  0.84118600  0.64376800  1
  O  O80  1  0.75314800  0.15881400  0.14376800  1
  O  O81  1  0.74685200  0.65881400  0.35623200  1
  O  O82  1  0.88184600  0.64471000  0.25533500  1
  O  O83  1  0.61815400  0.14471000  0.24466500  1
  O  O84  1  0.61815400  0.85529000  0.74466500  1
  O  O85  1  0.88184600  0.35529000  0.75533500  1
  O  O86  1  0.76524400  0.64246600  0.88305800  1
  O  O87  1  0.73475600  0.14246600  0.61694200  1
  O  O88  1  0.73475600  0.85753400  0.11694200  1
  O  O89  1  0.76524400  0.35753400  0.38305800  1
  O  O90  1  0.50000000  0.41371700  0.25000000  1
  O  O91  1  0.50000000  0.58628300  0.75000000  1
  O  O92  1  0.12322600  0.99286400  0.26831800  1
  O  O93  1  0.37677400  0.49286400  0.23168200  1
  O  O94  1  0.37677400  0.50713600  0.73168200  1
  O  O95  1  0.12322600  0.00713600  0.76831800  1
  O  O96  1  0.08188500  0.84456600  0.47447900  1
  O  O97  1  0.41811500  0.34456600  0.02552100  1
  O  O98  1  0.41811500  0.65543400  0.52552100  1
  O  O99  1  0.08188500  0.15543400  0.97447900  1
  O  O100  1  0.44976750  0.63863350  0.07289600  1
  O  O101  1  0.05023250  0.13863350  0.42710400  1
  O  O102  1  0.05023250  0.86136650  0.92710400  1
  O  O103  1  0.44976750  0.36136650  0.57289600  1
  O  O104  1  0.33532450  0.94259850  0.05297100  1
  O  O105  1  0.16467550  0.44259850  0.44702900  1
  O  O106  1  0.16467550  0.55740150  0.94702900  1
  O  O107  1  0.33532450  0.05740150  0.55297100  1
  O  O108  1  0.45900850  0.00499150  0.09976100  1
  O  O109  1  0.04099150  0.50499150  0.40023900  1
  O  O110  1  0.04099150  0.49500850  0.90023900  1
  O  O111  1  0.45900850  0.99500850  0.59976100  1
  O  O112  1  0.21100350  0.99014450  0.07198100  1
  O  O113  1  0.28899650  0.49014450  0.42801900  1
  O  O114  1  0.28899650  0.50985550  0.92801900  1
  O  O115  1  0.21100350  0.00985550  0.57198100  1
  O  O116  1  0.40514500  0.84844200  0.28637000  1
  O  O117  1  0.09485500  0.34844200  0.21363000  1
  O  O118  1  0.09485500  0.65155800  0.71363000  1
  O  O119  1  0.40514500  0.15155800  0.78637000  1
  O  O120  1  0.24685200  0.84118600  0.85623200  1
  O  O121  1  0.25314800  0.34118600  0.64376800  1
  O  O122  1  0.25314800  0.65881400  0.14376800  1
  O  O123  1  0.24685200  0.15881400  0.35623200  1
  O  O124  1  0.38184600  0.14471000  0.25533500  1
  O  O125  1  0.11815400  0.64471000  0.24466500  1
  O  O126  1  0.11815400  0.35529000  0.74466500  1
  O  O127  1  0.38184600  0.85529000  0.75533500  1
  O  O128  1  0.26524400  0.14246600  0.88305800  1
  O  O129  1  0.23475600  0.64246600  0.61694200  1
  O  O130  1  0.23475600  0.35753400  0.11694200  1
  O  O131  1  0.26524400  0.85753400  0.38305800  1
