# generated using pymatgen
data_RbTl(SO4)2
_symmetry_space_group_name_H-M   'P 1'
_cell_length_a   5.01198430
_cell_length_b   5.01198430
_cell_length_c   26.40474189
_cell_angle_alpha   90.00000000
_cell_angle_beta   90.00000000
_cell_angle_gamma   120.00000000
_symmetry_Int_Tables_number   1
_chemical_formula_structural   RbTl(SO4)2
_chemical_formula_sum   'Rb3 Tl3 S6 O24'
_cell_volume   574.42318597
_cell_formula_units_Z   3
loop_
 _symmetry_equiv_pos_site_id
 _symmetry_equiv_pos_as_xyz
  1  'x, y, z'
loop_
 _atom_site_type_symbol
 _atom_site_label
 _atom_site_symmetry_multiplicity
 _atom_site_fract_x
 _atom_site_fract_y
 _atom_site_fract_z
 _atom_site_occupancy
  Rb  Rb0  1  0.00000000  0.00000000  0.00000000  1
  Rb  Rb1  1  0.66666667  0.33333333  0.33333333  1
  Rb  Rb2  1  0.33333333  0.66666667  0.66666667  1
  Tl  Tl3  1  0.33333333  0.66666667  0.16666667  1
  Tl  Tl4  1  0.00000000  0.00000000  0.50000000  1
  Tl  Tl5  1  0.66666667  0.33333333  0.83333333  1
  S  S6  1  0.00000000  0.00000000  0.24080100  1
  S  S7  1  0.66666667  0.33333333  0.09253233  1
  S  S8  1  0.66666667  0.33333333  0.57413433  1
  S  S9  1  0.33333333  0.66666667  0.42586567  1
  S  S10  1  0.33333333  0.66666667  0.90746767  1
  S  S11  1  0.00000000  0.00000000  0.75919900  1
  O  O12  1  0.00000000  0.00000000  0.29619500  1
  O  O13  1  0.66666667  0.33333333  0.03713833  1
  O  O14  1  0.95559633  0.61009367  0.11161067  1
  O  O15  1  0.71107033  0.98783067  0.22172267  1
  O  O16  1  0.27676033  0.28892967  0.22172267  1
  O  O17  1  0.38990633  0.34550267  0.11161067  1
  O  O18  1  0.65449733  0.04440367  0.11161067  1
  O  O19  1  0.01216933  0.72323967  0.22172267  1
  O  O20  1  0.66666667  0.33333333  0.62952833  1
  O  O21  1  0.33333333  0.66666667  0.37047167  1
  O  O22  1  0.62226300  0.94342700  0.44494400  1
  O  O23  1  0.37773700  0.32116400  0.55505600  1
  O  O24  1  0.94342700  0.62226300  0.55505600  1
  O  O25  1  0.05657300  0.67883600  0.44494400  1
  O  O26  1  0.32116400  0.37773700  0.44494400  1
  O  O27  1  0.67883600  0.05657300  0.55505600  1
  O  O28  1  0.33333333  0.66666667  0.96286167  1
  O  O29  1  0.00000000  0.00000000  0.70380500  1
  O  O30  1  0.28892967  0.27676033  0.77827733  1
  O  O31  1  0.04440367  0.65449733  0.88838933  1
  O  O32  1  0.61009367  0.95559633  0.88838933  1
  O  O33  1  0.72323967  0.01216933  0.77827733  1
  O  O34  1  0.98783067  0.71107033  0.77827733  1
  O  O35  1  0.34550267  0.38990633  0.88838933  1
