# generated using pymatgen
data_Hg3Te2IBr
_symmetry_space_group_name_H-M   'P 1'
_cell_length_a   19.01932400
_cell_length_b   9.89477400
_cell_length_c   10.80782484
_cell_angle_alpha   90.00000000
_cell_angle_beta   90.02264195
_cell_angle_gamma   90.00000000
_symmetry_Int_Tables_number   1
_chemical_formula_structural   Hg3Te2IBr
_chemical_formula_sum   'Hg24 Te16 I8 Br8'
_cell_volume   2033.94506974
_cell_formula_units_Z   8
loop_
 _symmetry_equiv_pos_site_id
 _symmetry_equiv_pos_as_xyz
  1  'x, y, z'
loop_
 _atom_site_type_symbol
 _atom_site_label
 _atom_site_symmetry_multiplicity
 _atom_site_fract_x
 _atom_site_fract_y
 _atom_site_fract_z
 _atom_site_occupancy
  Hg  Hg0  1  0.87450900  0.28904400  0.79305500  1
  Hg  Hg1  1  0.00000000  0.29762000  0.50000000  1
  Hg  Hg2  1  0.75452050  0.77119750  0.49885800  1
  Hg  Hg3  1  0.97976150  0.00790750  0.22327900  1
  Hg  Hg4  1  0.52023850  0.50790750  0.77672100  1
  Hg  Hg5  1  0.00000000  0.75853500  0.50000000  1
  Hg  Hg6  1  0.62419400  0.21702000  0.19787600  1
  Hg  Hg7  1  0.62549100  0.78904400  0.20694500  1
  Hg  Hg8  1  0.72903550  0.00374750  0.79138500  1
  Hg  Hg9  1  0.74547950  0.27119750  0.50114200  1
  Hg  Hg10  1  0.87580600  0.71702000  0.80212400  1
  Hg  Hg11  1  0.77096450  0.50374750  0.20861500  1
  Hg  Hg12  1  0.37450900  0.78904400  0.79305500  1
  Hg  Hg13  1  0.50000000  0.79762000  0.50000000  1
  Hg  Hg14  1  0.25452050  0.27119750  0.49885800  1
  Hg  Hg15  1  0.47976150  0.50790750  0.22327900  1
  Hg  Hg16  1  0.02023850  0.00790750  0.77672100  1
  Hg  Hg17  1  0.50000000  0.25853500  0.50000000  1
  Hg  Hg18  1  0.12419400  0.71702000  0.19787600  1
  Hg  Hg19  1  0.12549100  0.28904400  0.20694500  1
  Hg  Hg20  1  0.22903550  0.50374750  0.79138500  1
  Hg  Hg21  1  0.24547950  0.77119750  0.50114200  1
  Hg  Hg22  1  0.37580600  0.21702000  0.80212400  1
  Hg  Hg23  1  0.27096450  0.00374750  0.20861500  1
  Te  Te24  1  0.73394700  0.73156600  0.74752600  1
  Te  Te25  1  0.73187000  0.27713800  0.75416600  1
  Te  Te26  1  0.98294750  0.28343850  0.24795600  1
  Te  Te27  1  0.76813000  0.77713800  0.24583400  1
  Te  Te28  1  0.76605300  0.23156600  0.25247400  1
  Te  Te29  1  0.98207550  0.73237550  0.24944600  1
  Te  Te30  1  0.51705250  0.78343850  0.75204400  1
  Te  Te31  1  0.51792450  0.23237550  0.75055400  1
  Te  Te32  1  0.23394700  0.23156600  0.74752600  1
  Te  Te33  1  0.23187000  0.77713800  0.75416600  1
  Te  Te34  1  0.48294750  0.78343850  0.24795600  1
  Te  Te35  1  0.26813000  0.27713800  0.24583400  1
  Te  Te36  1  0.26605300  0.73156600  0.25247400  1
  Te  Te37  1  0.48207550  0.23237550  0.24944600  1
  Te  Te38  1  0.01705250  0.28343850  0.75204400  1
  Te  Te39  1  0.01792450  0.73237550  0.75055400  1
  I  I40  1  0.87661400  0.00688700  0.97473600  1
  I  I41  1  0.62192250  0.50254750  0.47692700  1
  I  I42  1  0.87807750  0.00254750  0.52307300  1
  I  I43  1  0.62338600  0.50688700  0.02526400  1
  I  I44  1  0.37661400  0.50688700  0.97473600  1
  I  I45  1  0.12192250  0.00254750  0.47692700  1
  I  I46  1  0.37807750  0.50254750  0.52307300  1
  I  I47  1  0.12338600  0.00688700  0.02526400  1
  Br  Br48  1  0.87490150  0.50577350  0.99082600  1
  Br  Br49  1  0.62836150  0.99827950  0.47764800  1
  Br  Br50  1  0.87163850  0.49827950  0.52235200  1
  Br  Br51  1  0.62509850  0.00577350  0.00917400  1
  Br  Br52  1  0.37490150  0.00577350  0.99082600  1
  Br  Br53  1  0.12836150  0.49827950  0.47764800  1
  Br  Br54  1  0.37163850  0.99827950  0.52235200  1
  Br  Br55  1  0.12509850  0.50577350  0.00917400  1
