# generated using pymatgen
data_SiO2
_symmetry_space_group_name_H-M   'P 1'
_cell_length_a   13.82921200
_cell_length_b   13.82921200
_cell_length_c   19.72309953
_cell_angle_alpha   90.00000000
_cell_angle_beta   90.00000000
_cell_angle_gamma   120.00000000
_symmetry_Int_Tables_number   1
_chemical_formula_structural   SiO2
_chemical_formula_sum   'Si72 O144'
_cell_volume   3266.63541759
_cell_formula_units_Z   72
loop_
 _symmetry_equiv_pos_site_id
 _symmetry_equiv_pos_as_xyz
  1  'x, y, z'
loop_
 _atom_site_type_symbol
 _atom_site_label
 _atom_site_symmetry_multiplicity
 _atom_site_fract_x
 _atom_site_fract_y
 _atom_site_fract_z
 _atom_site_occupancy
  Si  Si0  1  0.09762167  0.14104033  0.13770433  1
  Si  Si1  1  0.68011800  0.93722100  0.02954500  1
  Si  Si2  1  0.10879433  0.39836867  0.06977567  1
  Si  Si3  1  0.46786767  0.47452133  0.11231833  1
  Si  Si4  1  0.00665367  0.53213233  0.11231833  1
  Si  Si5  1  0.62324800  0.43095500  0.19562900  1
  Si  Si6  1  0.56904500  0.19229300  0.19562900  1
  Si  Si7  1  0.19879900  0.85881200  0.22101500  1
  Si  Si8  1  0.80770700  0.37675200  0.19562900  1
  Si  Si9  1  0.60163133  0.71042567  0.06977567  1
  Si  Si10  1  0.28957433  0.89120567  0.06977567  1
  Si  Si11  1  0.06277900  0.74289700  0.02954500  1
  Si  Si12  1  0.37709233  0.44212767  0.26355767  1
  Si  Si13  1  0.04341867  0.90237833  0.13770433  1
  Si  Si14  1  0.52547867  0.99334633  0.11231833  1
  Si  Si15  1  0.66001300  0.80120100  0.22101500  1
  Si  Si16  1  0.98654867  0.39611233  0.30378833  1
  Si  Si17  1  0.25710300  0.31988200  0.02954500  1
  Si  Si18  1  0.85895967  0.95658133  0.13770433  1
  Si  Si19  1  0.55787233  0.93496467  0.26355767  1
  Si  Si20  1  0.14118800  0.33998700  0.22101500  1
  Si  Si21  1  0.06503533  0.62290767  0.26355767  1
  Si  Si22  1  0.40956367  0.01345133  0.30378833  1
  Si  Si23  1  0.60388767  0.59043633  0.30378833  1
  Si  Si24  1  0.76428833  0.47437367  0.47103767  1
  Si  Si25  1  0.34678467  0.27055433  0.36287833  1
  Si  Si26  1  0.77546100  0.73170200  0.40310900  1
  Si  Si27  1  0.13453433  0.80785467  0.44565167  1
  Si  Si28  1  0.67332033  0.86546567  0.44565167  1
  Si  Si29  1  0.28991467  0.76428833  0.52896233  1
  Si  Si30  1  0.23571167  0.52562633  0.52896233  1
  Si  Si31  1  0.86546567  0.19214533  0.55434833  1
  Si  Si32  1  0.47437367  0.71008533  0.52896233  1
  Si  Si33  1  0.26829800  0.04375900  0.40310900  1
  Si  Si34  1  0.95624100  0.22453900  0.40310900  1
  Si  Si35  1  0.72944567  0.07623033  0.36287833  1
  Si  Si36  1  0.04375900  0.77546100  0.59689100  1
  Si  Si37  1  0.71008533  0.23571167  0.47103767  1
  Si  Si38  1  0.19214533  0.32667967  0.44565167  1
  Si  Si39  1  0.32667967  0.13453433  0.55434833  1
  Si  Si40  1  0.65321533  0.72944567  0.63712167  1
  Si  Si41  1  0.92376967  0.65321533  0.36287833  1
  Si  Si42  1  0.52562633  0.28991467  0.47103767  1
  Si  Si43  1  0.22453900  0.26829800  0.59689100  1
  Si  Si44  1  0.80785467  0.67332033  0.55434833  1
  Si  Si45  1  0.73170200  0.95624100  0.59689100  1
  Si  Si46  1  0.07623033  0.34678467  0.63712167  1
  Si  Si47  1  0.27055433  0.92376967  0.63712167  1
  Si  Si48  1  0.43095500  0.80770700  0.80437100  1
  Si  Si49  1  0.01345133  0.60388767  0.69621167  1
  Si  Si50  1  0.44212767  0.06503533  0.73644233  1
  Si  Si51  1  0.80120100  0.14118800  0.77898500  1
  Si  Si52  1  0.33998700  0.19879900  0.77898500  1
  Si  Si53  1  0.95658133  0.09762167  0.86229567  1
  Si  Si54  1  0.90237833  0.85895967  0.86229567  1
  Si  Si55  1  0.53213233  0.52547867  0.88768167  1
  Si  Si56  1  0.14104033  0.04341867  0.86229567  1
  Si  Si57  1  0.93496467  0.37709233  0.73644233  1
  Si  Si58  1  0.62290767  0.55787233  0.73644233  1
  Si  Si59  1  0.39611233  0.40956367  0.69621167  1
  Si  Si60  1  0.71042567  0.10879433  0.93022433  1
  Si  Si61  1  0.37675200  0.56904500  0.80437100  1
  Si  Si62  1  0.85881200  0.66001300  0.77898500  1
  Si  Si63  1  0.99334633  0.46786767  0.88768167  1
  Si  Si64  1  0.31988200  0.06277900  0.97045500  1
  Si  Si65  1  0.59043633  0.98654867  0.69621167  1
  Si  Si66  1  0.19229300  0.62324800  0.80437100  1
  Si  Si67  1  0.89120567  0.60163133  0.93022433  1
  Si  Si68  1  0.47452133  0.00665367  0.88768167  1
  Si  Si69  1  0.39836867  0.28957433  0.93022433  1
  Si  Si70  1  0.74289700  0.68011800  0.97045500  1
  Si  Si71  1  0.93722100  0.25710300  0.97045500  1
  O  O72  1  0.37202733  0.58094467  0.52749467  1
  O  O73  1  0.24761133  0.54225067  0.80583867  1
  O  O74  1  0.46946800  0.54698300  0.30959300  1
  O  O75  1  0.99200233  0.62625467  0.07187467  1
  O  O76  1  0.05295067  0.84212833  0.06866533  1
  O  O77  1  0.14171067  0.39506933  0.14835533  1
  O  O78  1  0.08759867  0.50438633  0.06545933  1
  O  O79  1  0.14121333  0.22359267  0.20430867  1
  O  O80  1  0.67246667  0.04871133  0.28761933  1
  O  O81  1  0.71537800  0.70957800  0.04571400  1
  O  O82  1  0.78917767  0.94704933  0.06866533  1
  O  O83  1  0.37624467  0.32753333  0.28761933  1
  O  O84  1  0.89025933  0.41571267  0.12902467  1
  O  O85  1  0.50879500  0.12251100  0.26466800  1
  O  O86  1  0.58915167  0.80280133  0.02374033  1
  O  O87  1  0.03241433  0.32533567  0.26145867  1
  O  O88  1  0.08237933  0.85878667  0.20430867  1
  O  O89  1  0.37374533  0.36574767  0.07187467  1
  O  O90  1  0.99420000  0.28462200  0.04571400  1
  O  O91  1  0.19719867  0.78635033  0.02374033  1
  O  O92  1  0.21364967  0.41084833  0.02374033  1
  O  O93  1  0.45301700  0.92248500  0.30959300  1
  O  O94  1  0.52495600  0.93826400  0.18497800  1
  O  O95  1  0.17105300  0.75012100  0.26787400  1
  O  O96  1  0.29292133  0.96758567  0.26145867  1
  O  O97  1  0.07751500  0.53053200  0.30959300  1
  O  O98  1  0.61371600  0.49120500  0.26466800  1
  O  O99  1  0.67466433  0.70707867  0.26145867  1
  O  O100  1  0.60493067  0.74664133  0.14835533  1
  O  O101  1  0.45774933  0.70536067  0.80583867  1
  O  O102  1  0.29463933  0.75238867  0.80583867  1
  O  O103  1  0.77640733  0.91762067  0.20430867  1
  O  O104  1  0.49561367  0.58321233  0.06545933  1
  O  O105  1  0.41905533  0.79108267  0.52749467  1
  O  O106  1  0.15787167  0.21082233  0.06866533  1
  O  O107  1  0.25335867  0.85828933  0.14835533  1
  O  O108  1  0.29042200  0.00580000  0.04571400  1
  O  O109  1  0.63425233  0.00799767  0.07187467  1
  O  O110  1  0.87748900  0.38628400  0.26466800  1
  O  O111  1  0.20891733  0.62797267  0.52749467  1
  O  O112  1  0.58428733  0.47454667  0.12902467  1
  O  O113  1  0.52545333  0.10974067  0.12902467  1
  O  O114  1  0.95128867  0.62375533  0.28761933  1
  O  O115  1  0.06173600  0.58669200  0.18497800  1
  O  O116  1  0.41330800  0.47504400  0.18497800  1
  O  O117  1  0.24987900  0.42093200  0.26787400  1
  O  O118  1  0.41678767  0.91240133  0.06545933  1
  O  O119  1  0.57906800  0.82894700  0.26787400  1
  O  O120  1  0.03869400  0.91427800  0.86082800  1
  O  O121  1  0.91427800  0.87558400  0.13917200  1
  O  O122  1  0.13613467  0.88031633  0.64292633  1
  O  O123  1  0.65866900  0.95958800  0.40520800  1
  O  O124  1  0.71961733  0.17546167  0.40199867  1
  O  O125  1  0.80837733  0.72840267  0.48168867  1
  O  O126  1  0.75426533  0.83771967  0.39879267  1
  O  O127  1  0.80788000  0.55692600  0.53764200  1
  O  O128  1  0.33913333  0.38204467  0.62095267  1
  O  O129  1  0.38204467  0.04291133  0.37904733  1
  O  O130  1  0.45584433  0.28038267  0.40199867  1
  O  O131  1  0.04291133  0.66086667  0.62095267  1
  O  O132  1  0.55692600  0.74904600  0.46235800  1
  O  O133  1  0.17546167  0.45584433  0.59800133  1
  O  O134  1  0.25581833  0.13613467  0.35707367  1
  O  O135  1  0.69908100  0.65866900  0.59479200  1
  O  O136  1  0.74904600  0.19212000  0.53764200  1
  O  O137  1  0.04041200  0.69908100  0.40520800  1
  O  O138  1  0.66086667  0.61795533  0.37904733  1
  O  O139  1  0.86386533  0.11968367  0.35707367  1
  O  O140  1  0.88031633  0.74418167  0.35707367  1
  O  O141  1  0.11968367  0.25581833  0.64292633  1
  O  O142  1  0.19162267  0.27159733  0.51831133  1
  O  O143  1  0.83771967  0.08345433  0.60120733  1
  O  O144  1  0.95958800  0.30091900  0.59479200  1
  O  O145  1  0.74418167  0.86386533  0.64292633  1
  O  O146  1  0.28038267  0.82453833  0.59800133  1
  O  O147  1  0.34133100  0.04041200  0.59479200  1
  O  O148  1  0.27159733  0.07997467  0.48168867  1
  O  O149  1  0.12441600  0.03869400  0.13917200  1
  O  O150  1  0.96130600  0.08572200  0.13917200  1
  O  O151  1  0.44307400  0.25095400  0.53764200  1
  O  O152  1  0.16228033  0.91654567  0.39879267  1
  O  O153  1  0.08572200  0.12441600  0.86082800  1
  O  O154  1  0.82453833  0.54415567  0.40199867  1
  O  O155  1  0.92002533  0.19162267  0.48168867  1
  O  O156  1  0.95708867  0.33913333  0.37904733  1
  O  O157  1  0.30091900  0.34133100  0.40520800  1
  O  O158  1  0.54415567  0.71961733  0.59800133  1
  O  O159  1  0.87558400  0.96130600  0.86082800  1
  O  O160  1  0.25095400  0.80788000  0.46235800  1
  O  O161  1  0.19212000  0.44307400  0.46235800  1
  O  O162  1  0.61795533  0.95708867  0.62095267  1
  O  O163  1  0.72840267  0.92002533  0.51831133  1
  O  O164  1  0.07997467  0.80837733  0.51831133  1
  O  O165  1  0.91654567  0.75426533  0.60120733  1
  O  O166  1  0.08345433  0.24573467  0.39879267  1
  O  O167  1  0.24573467  0.16228033  0.60120733  1
  O  O168  1  0.70536067  0.24761133  0.19416133  1
  O  O169  1  0.58094467  0.20891733  0.47250533  1
  O  O170  1  0.80280133  0.21364967  0.97625967  1
  O  O171  1  0.32533567  0.29292133  0.73854133  1
  O  O172  1  0.38628400  0.50879500  0.73533200  1
  O  O173  1  0.47504400  0.06173600  0.81502200  1
  O  O174  1  0.42093200  0.17105300  0.73212600  1
  O  O175  1  0.47454667  0.89025933  0.87097533  1
  O  O176  1  0.00580000  0.71537800  0.95428600  1
  O  O177  1  0.04871133  0.37624467  0.71238067  1
  O  O178  1  0.12251100  0.61371600  0.73533200  1
  O  O179  1  0.70957800  0.99420000  0.95428600  1
  O  O180  1  0.22359267  0.08237933  0.79569133  1
  O  O181  1  0.84212833  0.78917767  0.93133467  1
  O  O182  1  0.92248500  0.46946800  0.69040700  1
  O  O183  1  0.36574767  0.99200233  0.92812533  1
  O  O184  1  0.41571267  0.52545333  0.87097533  1
  O  O185  1  0.70707867  0.03241433  0.73854133  1
  O  O186  1  0.32753333  0.95128867  0.71238067  1
  O  O187  1  0.53053200  0.45301700  0.69040700  1
  O  O188  1  0.54698300  0.07751500  0.69040700  1
  O  O189  1  0.78635033  0.58915167  0.97625967  1
  O  O190  1  0.85828933  0.60493067  0.85164467  1
  O  O191  1  0.50438633  0.41678767  0.93454067  1
  O  O192  1  0.62625467  0.63425233  0.92812533  1
  O  O193  1  0.41084833  0.19719867  0.97625967  1
  O  O194  1  0.94704933  0.15787167  0.93133467  1
  O  O195  1  0.00799767  0.37374533  0.92812533  1
  O  O196  1  0.93826400  0.41330800  0.81502200  1
  O  O197  1  0.79108267  0.37202733  0.47250533  1
  O  O198  1  0.62797267  0.41905533  0.47250533  1
  O  O199  1  0.10974067  0.58428733  0.87097533  1
  O  O200  1  0.82894700  0.24987900  0.73212600  1
  O  O201  1  0.75238867  0.45774933  0.19416133  1
  O  O202  1  0.49120500  0.87748900  0.73533200  1
  O  O203  1  0.58669200  0.52495600  0.81502200  1
  O  O204  1  0.62375533  0.67246667  0.71238067  1
  O  O205  1  0.96758567  0.67466433  0.73854133  1
  O  O206  1  0.21082233  0.05295067  0.93133467  1
  O  O207  1  0.54225067  0.29463933  0.19416133  1
  O  O208  1  0.91762067  0.14121333  0.79569133  1
  O  O209  1  0.85878667  0.77640733  0.79569133  1
  O  O210  1  0.28462200  0.29042200  0.95428600  1
  O  O211  1  0.39506933  0.25335867  0.85164467  1
  O  O212  1  0.74664133  0.14171067  0.85164467  1
  O  O213  1  0.58321233  0.08759867  0.93454067  1
  O  O214  1  0.75012100  0.57906800  0.73212600  1
  O  O215  1  0.91240133  0.49561367  0.93454067  1
