# generated using pymatgen
data_K2P2O5F2
_symmetry_space_group_name_H-M   'P 1'
_cell_length_a   12.89102800
_cell_length_b   7.74454800
_cell_length_c   7.35508668
_cell_angle_alpha   90.00000000
_cell_angle_beta   90.70175988
_cell_angle_gamma   90.00000000
_symmetry_Int_Tables_number   1
_chemical_formula_structural   K2P2O5F2
_chemical_formula_sum   'K8 P8 O20 F8'
_cell_volume   734.24136316
_cell_formula_units_Z   4
loop_
 _symmetry_equiv_pos_site_id
 _symmetry_equiv_pos_as_xyz
  1  'x, y, z'
loop_
 _atom_site_type_symbol
 _atom_site_label
 _atom_site_symmetry_multiplicity
 _atom_site_fract_x
 _atom_site_fract_y
 _atom_site_fract_z
 _atom_site_occupancy
  K  K0  1  0.64015500  0.14026900  0.36182800  1
  K  K1  1  0.35984500  0.85973100  0.63817200  1
  K  K2  1  0.64015500  0.85973100  0.86182800  1
  K  K3  1  0.35984500  0.14026900  0.13817200  1
  K  K4  1  0.14015500  0.64026900  0.36182800  1
  K  K5  1  0.85984500  0.35973100  0.63817200  1
  K  K6  1  0.14015500  0.35973100  0.86182800  1
  K  K7  1  0.85984500  0.64026900  0.13817200  1
  P  P8  1  0.59682100  0.70133800  0.35588700  1
  P  P9  1  0.59682100  0.29866200  0.85588700  1
  P  P10  1  0.40317900  0.29866200  0.64411300  1
  P  P11  1  0.40317900  0.70133800  0.14411300  1
  P  P12  1  0.09682100  0.20133800  0.35588700  1
  P  P13  1  0.09682100  0.79866200  0.85588700  1
  P  P14  1  0.90317900  0.79866200  0.64411300  1
  P  P15  1  0.90317900  0.20133800  0.14411300  1
  O  O16  1  0.56090350  0.79986750  0.51816200  1
  O  O17  1  0.43909650  0.20013250  0.48183800  1
  O  O18  1  0.50000000  0.39007800  0.75000000  1
  O  O19  1  0.43909650  0.79986750  0.98183800  1
  O  O20  1  0.56090350  0.20013250  0.01816200  1
  O  O21  1  0.33122200  0.78583900  0.27533600  1
  O  O22  1  0.66877800  0.21416100  0.72466400  1
  O  O23  1  0.66877800  0.78583900  0.22466400  1
  O  O24  1  0.33122200  0.21416100  0.77533600  1
  O  O25  1  0.50000000  0.60992200  0.25000000  1
  O  O26  1  0.06090350  0.29986750  0.51816200  1
  O  O27  1  0.93909650  0.70013250  0.48183800  1
  O  O28  1  0.00000000  0.89007800  0.75000000  1
  O  O29  1  0.93909650  0.29986750  0.98183800  1
  O  O30  1  0.06090350  0.70013250  0.01816200  1
  O  O31  1  0.83122200  0.28583900  0.27533600  1
  O  O32  1  0.16877800  0.71416100  0.72466400  1
  O  O33  1  0.16877800  0.28583900  0.22466400  1
  O  O34  1  0.83122200  0.71416100  0.77533600  1
  O  O35  1  0.00000000  0.10992200  0.25000000  1
  F  F36  1  0.15072450  0.02631350  0.42383600  1
  F  F37  1  0.84927550  0.97368650  0.57616400  1
  F  F38  1  0.15072450  0.97368650  0.92383600  1
  F  F39  1  0.84927550  0.02631350  0.07616400  1
  F  F40  1  0.65072450  0.52631350  0.42383600  1
  F  F41  1  0.34927550  0.47368650  0.57616400  1
  F  F42  1  0.65072450  0.47368650  0.92383600  1
  F  F43  1  0.34927550  0.52631350  0.07616400  1
