# generated using pymatgen
data_NbAg2(PS4)2
_symmetry_space_group_name_H-M   'P 1'
_cell_length_a   6.89786800
_cell_length_b   12.51477100
_cell_length_c   26.82600200
_cell_angle_alpha   90.00000000
_cell_angle_beta   90.00000000
_cell_angle_gamma   90.00000000
_symmetry_Int_Tables_number   1
_chemical_formula_structural   NbAg2(PS4)2
_chemical_formula_sum   'Nb8 Ag16 P16 S64'
_cell_volume   2315.76101819
_cell_formula_units_Z   8
loop_
 _symmetry_equiv_pos_site_id
 _symmetry_equiv_pos_as_xyz
  1  'x, y, z'
loop_
 _atom_site_type_symbol
 _atom_site_label
 _atom_site_symmetry_multiplicity
 _atom_site_fract_x
 _atom_site_fract_y
 _atom_site_fract_z
 _atom_site_occupancy
  Nb  Nb0  1  0.46723800  0.36673500  0.19553300  1
  Nb  Nb1  1  0.03276200  0.86673500  0.19553300  1
  Nb  Nb2  1  0.53276200  0.63326500  0.69553300  1
  Nb  Nb3  1  0.53276200  0.63326500  0.80446700  1
  Nb  Nb4  1  0.03276200  0.86673500  0.30446700  1
  Nb  Nb5  1  0.46723800  0.36673500  0.30446700  1
  Nb  Nb6  1  0.96723800  0.13326500  0.69553300  1
  Nb  Nb7  1  0.96723800  0.13326500  0.80446700  1
  Ag  Ag8  1  0.52068900  0.15718800  0.45919600  1
  Ag  Ag9  1  0.52068900  0.15718800  0.04080400  1
  Ag  Ag10  1  0.48528800  0.57972800  0.05580900  1
  Ag  Ag11  1  0.02068900  0.34281200  0.95919600  1
  Ag  Ag12  1  0.01471200  0.07972800  0.44419100  1
  Ag  Ag13  1  0.98528800  0.92027200  0.55580900  1
  Ag  Ag14  1  0.51471200  0.42027200  0.55580900  1
  Ag  Ag15  1  0.48528800  0.57972800  0.44419100  1
  Ag  Ag16  1  0.97931100  0.65718800  0.04080400  1
  Ag  Ag17  1  0.97931100  0.65718800  0.45919600  1
  Ag  Ag18  1  0.47931100  0.84281200  0.54080400  1
  Ag  Ag19  1  0.01471200  0.07972800  0.05580900  1
  Ag  Ag20  1  0.02068900  0.34281200  0.54080400  1
  Ag  Ag21  1  0.47931100  0.84281200  0.95919600  1
  Ag  Ag22  1  0.98528800  0.92027200  0.94419100  1
  Ag  Ag23  1  0.51471200  0.42027200  0.94419100  1
  P  P24  1  0.69178700  0.89304000  0.10639900  1
  P  P25  1  0.80821300  0.39304000  0.39360100  1
  P  P26  1  0.37404400  0.84034800  0.10727800  1
  P  P27  1  0.69178700  0.89304000  0.39360100  1
  P  P28  1  0.19178700  0.60696000  0.89360100  1
  P  P29  1  0.19178700  0.60696000  0.60639900  1
  P  P30  1  0.12595600  0.34034800  0.39272200  1
  P  P31  1  0.12595600  0.34034800  0.10727800  1
  P  P32  1  0.62595600  0.15965200  0.89272200  1
  P  P33  1  0.30821300  0.10696000  0.60639900  1
  P  P34  1  0.80821300  0.39304000  0.10639900  1
  P  P35  1  0.87404400  0.65965200  0.89272200  1
  P  P36  1  0.87404400  0.65965200  0.60727800  1
  P  P37  1  0.30821300  0.10696000  0.89360100  1
  P  P38  1  0.37404400  0.84034800  0.39272200  1
  P  P39  1  0.62595600  0.15965200  0.60727800  1
  S  S40  1  0.67137600  0.24077000  0.95930900  1
  S  S41  1  0.18248300  0.24309600  0.16570000  1
  S  S42  1  0.31751700  0.74309600  0.33430000  1
  S  S43  1  0.20332300  0.43865900  0.25000000  1
  S  S44  1  0.71431500  0.97164600  0.03874000  1
  S  S45  1  0.28568500  0.02835400  0.96126000  1
  S  S46  1  0.81751700  0.75690400  0.66570000  1
  S  S47  1  0.55546100  0.46943500  0.75000000  1
  S  S48  1  0.94453900  0.96943500  0.75000000  1
  S  S49  1  0.64712700  0.25970100  0.37977500  1
  S  S50  1  0.22145300  0.97618500  0.37748900  1
  S  S51  1  0.76599900  0.79578800  0.25000000  1
  S  S52  1  0.35287300  0.74029900  0.62022500  1
  S  S53  1  0.85287300  0.75970100  0.12022500  1
  S  S54  1  0.32862400  0.75923000  0.04069100  1
  S  S55  1  0.35287300  0.74029900  0.87977500  1
  S  S56  1  0.75250200  0.99093300  0.33548900  1
  S  S57  1  0.50563800  0.79716700  0.75000000  1
  S  S58  1  0.71431500  0.97164600  0.46126000  1
  S  S59  1  0.74749800  0.49093300  0.16451100  1
  S  S60  1  0.31751700  0.74309600  0.16570000  1
  S  S61  1  0.18248300  0.24309600  0.33430000  1
  S  S62  1  0.81751700  0.75690400  0.83430000  1
  S  S63  1  0.27854700  0.47618500  0.37748900  1
  S  S64  1  0.79667700  0.56134100  0.75000000  1
  S  S65  1  0.26599900  0.70421200  0.75000000  1
  S  S66  1  0.17137600  0.25923000  0.04069100  1
  S  S67  1  0.67137600  0.24077000  0.54069100  1
  S  S68  1  0.70332300  0.06134100  0.75000000  1
  S  S69  1  0.14712700  0.24029900  0.87977500  1
  S  S70  1  0.75250200  0.99093300  0.16451100  1
  S  S71  1  0.74749800  0.49093300  0.33548900  1
  S  S72  1  0.85287300  0.75970100  0.37977500  1
  S  S73  1  0.78568500  0.47164600  0.46126000  1
  S  S74  1  0.99436200  0.29716700  0.75000000  1
  S  S75  1  0.25250200  0.50906700  0.83548900  1
  S  S76  1  0.21431500  0.52835400  0.53874000  1
  S  S77  1  0.82862400  0.74077000  0.54069100  1
  S  S78  1  0.72145300  0.52381500  0.87748900  1
  S  S79  1  0.77854700  0.02381500  0.87748900  1
  S  S80  1  0.64712700  0.25970100  0.12022500  1
  S  S81  1  0.73400100  0.29578800  0.25000000  1
  S  S82  1  0.24749800  0.00906700  0.83548900  1
  S  S83  1  0.68248300  0.25690400  0.66570000  1
  S  S84  1  0.44453900  0.53056500  0.25000000  1
  S  S85  1  0.29667700  0.93865900  0.25000000  1
  S  S86  1  0.72145300  0.52381500  0.62251100  1
  S  S87  1  0.27854700  0.47618500  0.12251100  1
  S  S88  1  0.78568500  0.47164600  0.03874000  1
  S  S89  1  0.22145300  0.97618500  0.12251100  1
  S  S90  1  0.68248300  0.25690400  0.83430000  1
  S  S91  1  0.24749800  0.00906700  0.66451100  1
  S  S92  1  0.77854700  0.02381500  0.62251100  1
  S  S93  1  0.82862400  0.74077000  0.95930900  1
  S  S94  1  0.21431500  0.52835400  0.96126000  1
  S  S95  1  0.25250200  0.50906700  0.66451100  1
  S  S96  1  0.49436200  0.20283300  0.25000000  1
  S  S97  1  0.05546100  0.03056500  0.25000000  1
  S  S98  1  0.32862400  0.75923000  0.45930900  1
  S  S99  1  0.17137600  0.25923000  0.45930900  1
  S  S100  1  0.23400100  0.20421200  0.75000000  1
  S  S101  1  0.14712700  0.24029900  0.62022500  1
  S  S102  1  0.28568500  0.02835400  0.53874000  1
  S  S103  1  0.00563800  0.70283300  0.25000000  1
