# generated using pymatgen
data_AlP3(HO2)6
_symmetry_space_group_name_H-M   'P 1'
_cell_length_a   8.10532300
_cell_length_b   4.96970500
_cell_length_c   11.83902605
_cell_angle_alpha   90.00000000
_cell_angle_beta   95.42867280
_cell_angle_gamma   90.00000000
_symmetry_Int_Tables_number   1
_chemical_formula_structural   AlP3(HO2)6
_chemical_formula_sum   'Al2 P6 H12 O24'
_cell_volume   474.74960205
_cell_formula_units_Z   2
loop_
 _symmetry_equiv_pos_site_id
 _symmetry_equiv_pos_as_xyz
  1  'x, y, z'
loop_
 _atom_site_type_symbol
 _atom_site_label
 _atom_site_symmetry_multiplicity
 _atom_site_fract_x
 _atom_site_fract_y
 _atom_site_fract_z
 _atom_site_occupancy
  Al  Al0  1  0.50000000  0.00000000  0.00000000  1
  Al  Al1  1  0.50000000  0.00000000  0.50000000  1
  P  P2  1  0.50000000  0.23340500  0.25000000  1
  P  P3  1  0.71627600  0.50067300  0.59625200  1
  P  P4  1  0.50000000  0.76659500  0.75000000  1
  P  P5  1  0.28372400  0.50067300  0.90374800  1
  P  P6  1  0.71627600  0.49932700  0.09625200  1
  P  P7  1  0.28372400  0.49932700  0.40374800  1
  H  H8  1  0.97348200  0.64951400  0.12942400  1
  H  H9  1  0.17357600  0.91827400  0.10391400  1
  H  H10  1  0.17357600  0.08172600  0.60391400  1
  H  H11  1  0.97348200  0.35048600  0.62942400  1
  H  H12  1  0.98480900  0.07971600  0.36649800  1
  H  H13  1  0.82642400  0.91827400  0.39608600  1
  H  H14  1  0.01519100  0.07971600  0.13350200  1
  H  H15  1  0.02651800  0.64951400  0.37057600  1
  H  H16  1  0.01519100  0.92028400  0.63350200  1
  H  H17  1  0.82642400  0.08172600  0.89608600  1
  H  H18  1  0.02651800  0.35048600  0.87057600  1
  H  H19  1  0.98480900  0.92028400  0.86649800  1
  O  O20  1  0.90761800  0.53298200  0.62264500  1
  O  O21  1  0.64378400  0.56930200  0.71704000  1
  O  O22  1  0.09238200  0.53298200  0.87735500  1
  O  O23  1  0.09238200  0.46701800  0.37735500  1
  O  O24  1  0.32456500  0.21147500  0.93204500  1
  O  O25  1  0.92958000  0.90419700  0.35985100  1
  O  O26  1  0.07042000  0.90419700  0.14014900  1
  O  O27  1  0.43181200  0.07889200  0.14660900  1
  O  O28  1  0.34967900  0.29211000  0.49033600  1
  O  O29  1  0.65032100  0.29211000  0.00966400  1
  O  O30  1  0.35621600  0.43069800  0.28296000  1
  O  O31  1  0.35621600  0.56930200  0.78296000  1
  O  O32  1  0.67543500  0.78852500  0.06795500  1
  O  O33  1  0.34967900  0.70789000  0.99033600  1
  O  O34  1  0.07042000  0.09580300  0.64014900  1
  O  O35  1  0.92958000  0.09580300  0.85985100  1
  O  O36  1  0.56818800  0.92110800  0.85339100  1
  O  O37  1  0.65032100  0.70789000  0.50966400  1
  O  O38  1  0.67543500  0.21147500  0.56795500  1
  O  O39  1  0.56818800  0.07889200  0.35339100  1
  O  O40  1  0.32456500  0.78852500  0.43204500  1
  O  O41  1  0.90761800  0.46701800  0.12264500  1
  O  O42  1  0.64378400  0.43069800  0.21704000  1
  O  O43  1  0.43181200  0.92110800  0.64660900  1
