# generated using pymatgen
data_Na4Sc2(PO4)3
_symmetry_space_group_name_H-M   'P 1'
_cell_length_a   9.30769378
_cell_length_b   9.30769378
_cell_length_c   21.18500670
_cell_angle_alpha   90.00000000
_cell_angle_beta   90.00000000
_cell_angle_gamma   120.00000000
_symmetry_Int_Tables_number   1
_chemical_formula_structural   Na4Sc2(PO4)3
_chemical_formula_sum   'Na24 Sc12 P18 O72'
_cell_volume   1589.43733842
_cell_formula_units_Z   6
loop_
 _symmetry_equiv_pos_site_id
 _symmetry_equiv_pos_as_xyz
  1  'x, y, z'
loop_
 _atom_site_type_symbol
 _atom_site_label
 _atom_site_symmetry_multiplicity
 _atom_site_fract_x
 _atom_site_fract_y
 _atom_site_fract_z
 _atom_site_occupancy
  Na  Na0  1  0.30290967  0.33333333  0.08333333  1
  Na  Na1  1  0.63624300  0.63624300  0.25000000  1
  Na  Na2  1  0.03042367  0.69709033  0.08333333  1
  Na  Na3  1  0.66666667  0.96957633  0.08333333  1
  Na  Na4  1  0.00000000  0.36375700  0.25000000  1
  Na  Na5  1  0.00000000  0.00000000  0.00000000  1
  Na  Na6  1  0.36375700  0.00000000  0.25000000  1
  Na  Na7  1  0.33333333  0.66666667  0.16666667  1
  Na  Na8  1  0.96957633  0.66666667  0.41666667  1
  Na  Na9  1  0.30290967  0.96957633  0.58333333  1
  Na  Na10  1  0.69709033  0.03042367  0.41666667  1
  Na  Na11  1  0.33333333  0.30290967  0.41666667  1
  Na  Na12  1  0.66666667  0.69709033  0.58333333  1
  Na  Na13  1  0.66666667  0.33333333  0.33333333  1
  Na  Na14  1  0.03042367  0.33333333  0.58333333  1
  Na  Na15  1  0.00000000  0.00000000  0.50000000  1
  Na  Na16  1  0.63624300  0.00000000  0.75000000  1
  Na  Na17  1  0.96957633  0.30290967  0.91666667  1
  Na  Na18  1  0.36375700  0.36375700  0.75000000  1
  Na  Na19  1  0.00000000  0.63624300  0.75000000  1
  Na  Na20  1  0.33333333  0.03042367  0.91666667  1
  Na  Na21  1  0.33333333  0.66666667  0.66666667  1
  Na  Na22  1  0.69709033  0.66666667  0.91666667  1
  Na  Na23  1  0.66666667  0.33333333  0.83333333  1
  Sc  Sc24  1  0.33333333  0.66666667  0.32258767  1
  Sc  Sc25  1  0.33333333  0.66666667  0.82258767  1
  Sc  Sc26  1  0.33333333  0.66666667  0.51074567  1
  Sc  Sc27  1  0.33333333  0.66666667  0.01074567  1
  Sc  Sc28  1  0.00000000  0.00000000  0.65592100  1
  Sc  Sc29  1  0.00000000  0.00000000  0.15592100  1
  Sc  Sc30  1  1.00000000  0.00000000  0.84407900  1
  Sc  Sc31  1  0.00000000  0.00000000  0.34407900  1
  Sc  Sc32  1  0.66666667  0.33333333  0.98925433  1
  Sc  Sc33  1  0.66666667  0.33333333  0.48925433  1
  Sc  Sc34  1  0.66666667  0.33333333  0.17741233  1
  Sc  Sc35  1  0.66666667  0.33333333  0.67741233  1
  P  P36  1  0.97479167  0.33333333  0.08333333  1
  P  P37  1  0.30812500  0.30812500  0.25000000  1
  P  P38  1  0.69187500  0.00000000  0.25000000  1
  P  P39  1  0.66666667  0.64145833  0.08333333  1
  P  P40  1  0.00000000  0.69187500  0.25000000  1
  P  P41  1  0.35854167  0.02520833  0.08333333  1
  P  P42  1  0.64145833  0.66666667  0.41666667  1
  P  P43  1  0.97479167  0.64145833  0.58333333  1
  P  P44  1  0.35854167  0.33333333  0.58333333  1
  P  P45  1  0.33333333  0.97479167  0.41666667  1
  P  P46  1  0.66666667  0.02520833  0.58333333  1
  P  P47  1  0.02520833  0.35854167  0.41666667  1
  P  P48  1  0.30812500  0.00000000  0.75000000  1
  P  P49  1  0.64145833  0.97479167  0.91666667  1
  P  P50  1  0.02520833  0.66666667  0.91666667  1
  P  P51  1  0.00000000  0.30812500  0.75000000  1
  P  P52  1  0.33333333  0.35854167  0.91666667  1
  P  P53  1  0.69187500  0.69187500  0.75000000  1
  O  O54  1  0.50841833  0.65796167  0.08150267  1
  O  O55  1  0.34203833  0.85045667  0.08150267  1
  O  O56  1  0.31975367  0.44712833  0.97648833  1
  O  O57  1  0.18379000  0.00870500  0.08516400  1
  O  O58  1  0.20595867  0.21953833  0.19017833  1
  O  O59  1  0.99129500  0.17508500  0.08516400  1
  O  O60  1  0.88620500  0.34691300  0.14315500  1
  O  O61  1  0.67537167  0.15824833  0.24816933  1
  O  O62  1  0.78046167  0.98642033  0.19017833  1
  O  O63  1  0.48287667  0.32462833  0.24816933  1
  O  O64  1  0.32462833  0.48287667  0.25183067  1
  O  O65  1  0.01357967  0.79404133  0.19017833  1
  O  O66  1  0.12737467  0.68024633  0.97648833  1
  O  O67  1  0.14954333  0.49158167  0.08150267  1
  O  O68  1  0.53929200  0.65308700  0.35684500  1
  O  O69  1  0.11379500  0.46070800  0.35684500  1
  O  O70  1  0.46070800  0.11379500  0.14315500  1
  O  O71  1  0.84175167  0.51712333  0.24816933  1
  O  O72  1  0.15824833  0.67537167  0.25183067  1
  O  O73  1  0.82491500  0.81621000  0.08516400  1
  O  O74  1  0.51712333  0.84175167  0.25183067  1
  O  O75  1  0.34691300  0.88620500  0.35684500  1
  O  O76  1  0.65308700  0.53929200  0.14315500  1
  O  O77  1  0.55287167  0.87262533  0.97648833  1
  O  O78  1  0.17508500  0.99129500  0.41483600  1
  O  O79  1  0.00870500  0.18379000  0.41483600  1
  O  O80  1  0.98642033  0.78046167  0.30982167  1
  O  O81  1  0.85045667  0.34203833  0.41849733  1
  O  O82  1  0.87262533  0.55287167  0.52351167  1
  O  O83  1  0.65796167  0.50841833  0.41849733  1
  O  O84  1  0.55287167  0.68024633  0.47648833  1
  O  O85  1  0.34203833  0.49158167  0.58150267  1
  O  O86  1  0.44712833  0.31975367  0.52351167  1
  O  O87  1  0.14954333  0.65796167  0.58150267  1
  O  O88  1  0.99129500  0.81621000  0.58516400  1
  O  O89  1  0.68024633  0.12737467  0.52351167  1
  O  O90  1  0.79404133  0.01357967  0.30982167  1
  O  O91  1  0.81621000  0.82491500  0.41483600  1
  O  O92  1  0.20595867  0.98642033  0.69017833  1
  O  O93  1  0.78046167  0.79404133  0.69017833  1
  O  O94  1  0.12737467  0.44712833  0.47648833  1
  O  O95  1  0.50841833  0.85045667  0.58150267  1
  O  O96  1  0.82491500  0.00870500  0.58516400  1
  O  O97  1  0.49158167  0.14954333  0.41849733  1
  O  O98  1  0.18379000  0.17508500  0.58516400  1
  O  O99  1  0.01357967  0.21953833  0.69017833  1
  O  O100  1  0.31975367  0.87262533  0.47648833  1
  O  O101  1  0.21953833  0.20595867  0.30982167  1
  O  O102  1  0.84175167  0.32462833  0.74816933  1
  O  O103  1  0.67537167  0.51712333  0.74816933  1
  O  O104  1  0.65308700  0.11379500  0.64315500  1
  O  O105  1  0.51712333  0.67537167  0.75183067  1
  O  O106  1  0.53929200  0.88620500  0.85684500  1
  O  O107  1  0.32462833  0.84175167  0.75183067  1
  O  O108  1  0.21953833  0.01357967  0.80982167  1
  O  O109  1  0.00870500  0.82491500  0.91483600  1
  O  O110  1  0.11379500  0.65308700  0.85684500  1
  O  O111  1  0.81621000  0.99129500  0.91483600  1
  O  O112  1  0.65796167  0.14954333  0.91849733  1
  O  O113  1  0.34691300  0.46070800  0.85684500  1
  O  O114  1  0.46070800  0.34691300  0.64315500  1
  O  O115  1  0.48287667  0.15824833  0.74816933  1
  O  O116  1  0.87262533  0.31975367  0.02351167  1
  O  O117  1  0.44712833  0.12737467  0.02351167  1
  O  O118  1  0.79404133  0.78046167  0.80982167  1
  O  O119  1  0.17508500  0.18379000  0.91483600  1
  O  O120  1  0.49158167  0.34203833  0.91849733  1
  O  O121  1  0.15824833  0.48287667  0.75183067  1
  O  O122  1  0.85045667  0.50841833  0.91849733  1
  O  O123  1  0.68024633  0.55287167  0.02351167  1
  O  O124  1  0.98642033  0.20595867  0.80982167  1
  O  O125  1  0.88620500  0.53929200  0.64315500  1
