# generated using pymatgen
data_K5B19O31
_symmetry_space_group_name_H-M   'P 1'
_cell_length_a   18.09124000
_cell_length_b   11.66865800
_cell_length_c   13.13938220
_cell_angle_alpha   90.00000000
_cell_angle_beta   95.52632920
_cell_angle_gamma   90.00000000
_symmetry_Int_Tables_number   1
_chemical_formula_structural   K5B19O31
_chemical_formula_sum   'K20 B76 O124'
_cell_volume   2760.83789128
_cell_formula_units_Z   4
loop_
 _symmetry_equiv_pos_site_id
 _symmetry_equiv_pos_as_xyz
  1  'x, y, z'
loop_
 _atom_site_type_symbol
 _atom_site_label
 _atom_site_symmetry_multiplicity
 _atom_site_fract_x
 _atom_site_fract_y
 _atom_site_fract_z
 _atom_site_occupancy
  K  K0  1  0.32503750  0.73023350  0.83252300  1
  K  K1  1  0.66372950  0.04452450  0.69620600  1
  K  K2  1  0.32503750  0.26976650  0.33252300  1
  K  K3  1  0.33627050  0.04452450  0.80379400  1
  K  K4  1  0.00000000  0.00000000  0.50000000  1
  K  K5  1  0.67496250  0.73023350  0.66747700  1
  K  K6  1  0.00000000  0.00000000  0.00000000  1
  K  K7  1  0.66372950  0.95547550  0.19620600  1
  K  K8  1  0.33627050  0.95547550  0.30379400  1
  K  K9  1  0.67496250  0.26976650  0.16747700  1
  K  K10  1  0.82503750  0.23023350  0.83252300  1
  K  K11  1  0.16372950  0.54452450  0.69620600  1
  K  K12  1  0.82503750  0.76976650  0.33252300  1
  K  K13  1  0.83627050  0.54452450  0.80379400  1
  K  K14  1  0.50000000  0.50000000  0.50000000  1
  K  K15  1  0.17496250  0.23023350  0.66747700  1
  K  K16  1  0.50000000  0.50000000  0.00000000  1
  K  K17  1  0.16372950  0.45547550  0.19620600  1
  K  K18  1  0.83627050  0.45547550  0.30379400  1
  K  K19  1  0.17496250  0.76976650  0.16747700  1
  B  B20  1  0.48396800  0.05027300  0.61874300  1
  B  B21  1  0.82398800  0.06482600  0.35631700  1
  B  B22  1  0.06732100  0.02616300  0.24087800  1
  B  B23  1  0.26126900  0.02202100  0.52472500  1
  B  B24  1  0.48524600  0.20343800  0.49650400  1
  B  B25  1  0.06732100  0.97383700  0.74087800  1
  B  B26  1  0.57574800  0.74817900  0.86532200  1
  B  B27  1  0.73873100  0.02202100  0.97527500  1
  B  B28  1  0.34607050  0.32657050  0.69870800  1
  B  B29  1  0.36773150  0.83836550  0.07210700  1
  B  B30  1  0.17601200  0.93517400  0.64368300  1
  B  B31  1  0.51475400  0.79656200  0.50349600  1
  B  B32  1  0.82398800  0.93517400  0.85631700  1
  B  B33  1  0.65392950  0.32657050  0.80129200  1
  B  B34  1  0.57574800  0.25182100  0.36532200  1
  B  B35  1  0.48524600  0.79656200  0.99650400  1
  B  B36  1  0.93267900  0.02616300  0.25912200  1
  B  B37  1  0.36773150  0.16163450  0.57210700  1
  B  B38  1  0.73873100  0.97797900  0.47527500  1
  B  B39  1  0.51603200  0.94972700  0.38125700  1
  B  B40  1  0.51475400  0.20343800  0.00349600  1
  B  B41  1  0.42425200  0.25182100  0.13467800  1
  B  B42  1  0.93267900  0.97383700  0.75912200  1
  B  B43  1  0.26126900  0.97797900  0.02472500  1
  B  B44  1  0.50000000  0.89105200  0.75000000  1
  B  B45  1  0.82688500  0.12428900  0.53905000  1
  B  B46  1  0.17311500  0.12428900  0.96095000  1
  B  B47  1  0.51603200  0.05027300  0.88125700  1
  B  B48  1  0.63226850  0.83836550  0.42789300  1
  B  B49  1  0.48396800  0.94972700  0.11874300  1
  B  B50  1  0.65392950  0.67342950  0.30129200  1
  B  B51  1  0.34607050  0.67342950  0.19870800  1
  B  B52  1  0.82688500  0.87571100  0.03905000  1
  B  B53  1  0.63226850  0.16163450  0.92789300  1
  B  B54  1  0.17601200  0.06482600  0.14368300  1
  B  B55  1  0.50000000  0.10894800  0.25000000  1
  B  B56  1  0.17311500  0.87571100  0.46095000  1
  B  B57  1  0.42425200  0.74817900  0.63467800  1
  B  B58  1  0.98396800  0.55027300  0.61874300  1
  B  B59  1  0.32398800  0.56482600  0.35631700  1
  B  B60  1  0.56732100  0.52616300  0.24087800  1
  B  B61  1  0.76126900  0.52202100  0.52472500  1
  B  B62  1  0.98524600  0.70343800  0.49650400  1
  B  B63  1  0.56732100  0.47383700  0.74087800  1
  B  B64  1  0.07574800  0.24817900  0.86532200  1
  B  B65  1  0.23873100  0.52202100  0.97527500  1
  B  B66  1  0.84607050  0.82657050  0.69870800  1
  B  B67  1  0.86773150  0.33836550  0.07210700  1
  B  B68  1  0.67601200  0.43517400  0.64368300  1
  B  B69  1  0.01475400  0.29656200  0.50349600  1
  B  B70  1  0.32398800  0.43517400  0.85631700  1
  B  B71  1  0.15392950  0.82657050  0.80129200  1
  B  B72  1  0.07574800  0.75182100  0.36532200  1
  B  B73  1  0.98524600  0.29656200  0.99650400  1
  B  B74  1  0.43267900  0.52616300  0.25912200  1
  B  B75  1  0.86773150  0.66163450  0.57210700  1
  B  B76  1  0.23873100  0.47797900  0.47527500  1
  B  B77  1  0.01603200  0.44972700  0.38125700  1
  B  B78  1  0.01475400  0.70343800  0.00349600  1
  B  B79  1  0.92425200  0.75182100  0.13467800  1
  B  B80  1  0.43267900  0.47383700  0.75912200  1
  B  B81  1  0.76126900  0.47797900  0.02472500  1
  B  B82  1  0.00000000  0.39105200  0.75000000  1
  B  B83  1  0.32688500  0.62428900  0.53905000  1
  B  B84  1  0.67311500  0.62428900  0.96095000  1
  B  B85  1  0.01603200  0.55027300  0.88125700  1
  B  B86  1  0.13226850  0.33836550  0.42789300  1
  B  B87  1  0.98396800  0.44972700  0.11874300  1
  B  B88  1  0.15392950  0.17342950  0.30129200  1
  B  B89  1  0.84607050  0.17342950  0.19870800  1
  B  B90  1  0.32688500  0.37571100  0.03905000  1
  B  B91  1  0.13226850  0.66163450  0.92789300  1
  B  B92  1  0.67601200  0.56482600  0.14368300  1
  B  B93  1  0.00000000  0.60894800  0.25000000  1
  B  B94  1  0.67311500  0.37571100  0.46095000  1
  B  B95  1  0.92425200  0.24817900  0.63467800  1
  O  O96  1  0.58690350  0.07863450  0.86406400  1
  O  O97  1  0.14911000  0.86368900  0.55475500  1
  O  O98  1  0.41347550  0.76882250  0.00806800  1
  O  O99  1  0.85089000  0.13631100  0.44524500  1
  O  O100  1  0.31390300  0.90255900  0.00015100  1
  O  O101  1  0.41347550  0.23117750  0.50806800  1
  O  O102  1  0.88916800  0.99255100  0.33234700  1
  O  O103  1  0.41314100  0.38552500  0.69102100  1
  O  O104  1  0.52281000  0.27116000  0.43240200  1
  O  O105  1  0.85089000  0.86368900  0.94524500  1
  O  O106  1  0.32634600  0.23412700  0.63944700  1
  O  O107  1  0.47719000  0.72884000  0.56759800  1
  O  O108  1  0.79879750  0.86152850  0.76885200  1
  O  O109  1  0.47719000  0.27116000  0.06759800  1
  O  O110  1  0.41309650  0.07863450  0.63593600  1
  O  O111  1  0.47685700  0.96203400  0.83391600  1
  O  O112  1  0.31390300  0.09744100  0.50015100  1
  O  O113  1  0.52314300  0.96203400  0.66608400  1
  O  O114  1  0.14911000  0.13631100  0.05475500  1
  O  O115  1  0.76963900  0.95132400  0.05609000  1
  O  O116  1  0.58685900  0.38552500  0.80897900  1
  O  O117  1  0.76360100  0.98720100  0.37994700  1
  O  O118  1  0.20120250  0.86152850  0.73114800  1
  O  O119  1  0.88916800  0.00744900  0.83234700  1
  O  O120  1  0.76360100  0.01279900  0.87994700  1
  O  O121  1  0.35818150  0.31571250  0.12393500  1
  O  O122  1  0.58652450  0.76882250  0.49193200  1
  O  O123  1  0.43386900  0.18118600  0.21654100  1
  O  O124  1  0.47701250  0.11651950  0.94809400  1
  O  O125  1  0.56613100  0.81881400  0.78345900  1
  O  O126  1  0.50000000  0.52831800  0.75000000  1
  O  O127  1  0.43386900  0.81881400  0.71654100  1
  O  O128  1  0.64181850  0.31571250  0.37606500  1
  O  O129  1  0.23639900  0.98720100  0.12005300  1
  O  O130  1  0.41309650  0.92136550  0.13593600  1
  O  O131  1  0.52298750  0.88348050  0.05190600  1
  O  O132  1  0.58690350  0.92136550  0.36406400  1
  O  O133  1  0.52281000  0.72884000  0.93240200  1
  O  O134  1  0.64181850  0.68428750  0.87606500  1
  O  O135  1  0.11083200  0.99255100  0.16765300  1
  O  O136  1  0.23639900  0.01279900  0.62005300  1
  O  O137  1  0.41314100  0.61447500  0.19102100  1
  O  O138  1  0.47701250  0.88348050  0.44809400  1
  O  O139  1  0.32634600  0.76587300  0.13944700  1
  O  O140  1  0.35818150  0.68428750  0.62393500  1
  O  O141  1  0.67365400  0.23412700  0.86055300  1
  O  O142  1  0.68609700  0.90255900  0.49984900  1
  O  O143  1  0.56613100  0.18118600  0.28345900  1
  O  O144  1  0.50000000  0.47168200  0.25000000  1
  O  O145  1  0.58652450  0.23117750  0.99193200  1
  O  O146  1  0.58685900  0.61447500  0.30897900  1
  O  O147  1  0.52314300  0.03796600  0.16608400  1
  O  O148  1  0.20120250  0.13847150  0.23114800  1
  O  O149  1  0.68609700  0.09744100  0.99984900  1
  O  O150  1  0.79879750  0.13847150  0.26885200  1
  O  O151  1  0.52298750  0.11651950  0.55190600  1
  O  O152  1  0.76963900  0.04867600  0.55609000  1
  O  O153  1  0.67365400  0.76587300  0.36055300  1
  O  O154  1  0.23036100  0.04867600  0.94391000  1
  O  O155  1  0.47685700  0.03796600  0.33391600  1
  O  O156  1  0.11083200  0.00744900  0.66765300  1
  O  O157  1  0.23036100  0.95132400  0.44391000  1
  O  O158  1  0.08690350  0.57863450  0.86406400  1
  O  O159  1  0.64911000  0.36368900  0.55475500  1
  O  O160  1  0.91347550  0.26882250  0.00806800  1
  O  O161  1  0.35089000  0.63631100  0.44524500  1
  O  O162  1  0.81390300  0.40255900  0.00015100  1
  O  O163  1  0.91347550  0.73117750  0.50806800  1
  O  O164  1  0.38916800  0.49255100  0.33234700  1
  O  O165  1  0.91314100  0.88552500  0.69102100  1
  O  O166  1  0.02281000  0.77116000  0.43240200  1
  O  O167  1  0.35089000  0.36368900  0.94524500  1
  O  O168  1  0.82634600  0.73412700  0.63944700  1
  O  O169  1  0.97719000  0.22884000  0.56759800  1
  O  O170  1  0.29879750  0.36152850  0.76885200  1
  O  O171  1  0.97719000  0.77116000  0.06759800  1
  O  O172  1  0.91309650  0.57863450  0.63593600  1
  O  O173  1  0.97685700  0.46203400  0.83391600  1
  O  O174  1  0.81390300  0.59744100  0.50015100  1
  O  O175  1  0.02314300  0.46203400  0.66608400  1
  O  O176  1  0.64911000  0.63631100  0.05475500  1
  O  O177  1  0.26963900  0.45132400  0.05609000  1
  O  O178  1  0.08685900  0.88552500  0.80897900  1
  O  O179  1  0.26360100  0.48720100  0.37994700  1
  O  O180  1  0.70120250  0.36152850  0.73114800  1
  O  O181  1  0.38916800  0.50744900  0.83234700  1
  O  O182  1  0.26360100  0.51279900  0.87994700  1
  O  O183  1  0.85818150  0.81571250  0.12393500  1
  O  O184  1  0.08652450  0.26882250  0.49193200  1
  O  O185  1  0.93386900  0.68118600  0.21654100  1
  O  O186  1  0.97701250  0.61651950  0.94809400  1
  O  O187  1  0.06613100  0.31881400  0.78345900  1
  O  O188  1  0.00000000  0.02831800  0.75000000  1
  O  O189  1  0.93386900  0.31881400  0.71654100  1
  O  O190  1  0.14181850  0.81571250  0.37606500  1
  O  O191  1  0.73639900  0.48720100  0.12005300  1
  O  O192  1  0.91309650  0.42136550  0.13593600  1
  O  O193  1  0.02298750  0.38348050  0.05190600  1
  O  O194  1  0.08690350  0.42136550  0.36406400  1
  O  O195  1  0.02281000  0.22884000  0.93240200  1
  O  O196  1  0.14181850  0.18428750  0.87606500  1
  O  O197  1  0.61083200  0.49255100  0.16765300  1
  O  O198  1  0.73639900  0.51279900  0.62005300  1
  O  O199  1  0.91314100  0.11447500  0.19102100  1
  O  O200  1  0.97701250  0.38348050  0.44809400  1
  O  O201  1  0.82634600  0.26587300  0.13944700  1
  O  O202  1  0.85818150  0.18428750  0.62393500  1
  O  O203  1  0.17365400  0.73412700  0.86055300  1
  O  O204  1  0.18609700  0.40255900  0.49984900  1
  O  O205  1  0.06613100  0.68118600  0.28345900  1
  O  O206  1  0.00000000  0.97168200  0.25000000  1
  O  O207  1  0.08652450  0.73117750  0.99193200  1
  O  O208  1  0.08685900  0.11447500  0.30897900  1
  O  O209  1  0.02314300  0.53796600  0.16608400  1
  O  O210  1  0.70120250  0.63847150  0.23114800  1
  O  O211  1  0.18609700  0.59744100  0.99984900  1
  O  O212  1  0.29879750  0.63847150  0.26885200  1
  O  O213  1  0.02298750  0.61651950  0.55190600  1
  O  O214  1  0.26963900  0.54867600  0.55609000  1
  O  O215  1  0.17365400  0.26587300  0.36055300  1
  O  O216  1  0.73036100  0.54867600  0.94391000  1
  O  O217  1  0.97685700  0.53796600  0.33391600  1
  O  O218  1  0.61083200  0.50744900  0.66765300  1
  O  O219  1  0.73036100  0.45132400  0.44391000  1
