# generated using pymatgen
data_AlPO4
_symmetry_space_group_name_H-M   'P 1'
_cell_length_a   5.05499158
_cell_length_b   5.05499158
_cell_length_c   11.16223200
_cell_angle_alpha   90.00000000
_cell_angle_beta   90.00000000
_cell_angle_gamma   120.00000000
_symmetry_Int_Tables_number   1
_chemical_formula_structural   AlPO4
_chemical_formula_sum   'Al3 P3 O12'
_cell_volume   247.01455779
_cell_formula_units_Z   3
loop_
 _symmetry_equiv_pos_site_id
 _symmetry_equiv_pos_as_xyz
  1  'x, y, z'
loop_
 _atom_site_type_symbol
 _atom_site_label
 _atom_site_symmetry_multiplicity
 _atom_site_fract_x
 _atom_site_fract_y
 _atom_site_fract_z
 _atom_site_occupancy
  Al  Al0  1  0.47298400  0.00000000  0.33333333  1
  Al  Al1  1  0.00000000  0.47298400  0.66666667  1
  Al  Al2  1  0.52701600  0.52701600  0.00000000  1
  P  P3  1  0.47360200  0.00000000  0.83333333  1
  P  P4  1  0.00000000  0.47360200  0.16666667  1
  P  P5  1  0.52639800  0.52639800  0.50000000  1
  O  O6  1  0.24655400  0.41756300  0.11150200  1
  O  O7  1  0.58243700  0.82899100  0.44483533  1
  O  O8  1  0.17100900  0.75344600  0.77816867  1
  O  O9  1  0.82899100  0.58243700  0.55516467  1
  O  O10  1  0.75344600  0.17100900  0.22183133  1
  O  O11  1  0.41756300  0.24655400  0.88849800  1
  O  O12  1  0.41748700  0.28007600  0.40175900  1
  O  O13  1  0.71992400  0.13741100  0.73509233  1
  O  O14  1  0.86258900  0.58251300  0.06842567  1
  O  O15  1  0.13741100  0.71992400  0.26490767  1
  O  O16  1  0.58251300  0.86258900  0.93157433  1
  O  O17  1  0.28007600  0.41748700  0.59824100  1
