# generated using pymatgen
data_Cs2TeOF4
_symmetry_space_group_name_H-M   'P 1'
_cell_length_a   6.81796600
_cell_length_b   15.08245200
_cell_length_c   7.32636300
_cell_angle_alpha   90.00000000
_cell_angle_beta   90.00000000
_cell_angle_gamma   90.00000000
_symmetry_Int_Tables_number   1
_chemical_formula_structural   Cs2TeOF4
_chemical_formula_sum   'Cs8 Te4 O4 F16'
_cell_volume   753.38195866
_cell_formula_units_Z   4
loop_
 _symmetry_equiv_pos_site_id
 _symmetry_equiv_pos_as_xyz
  1  'x, y, z'
loop_
 _atom_site_type_symbol
 _atom_site_label
 _atom_site_symmetry_multiplicity
 _atom_site_fract_x
 _atom_site_fract_y
 _atom_site_fract_z
 _atom_site_occupancy
  Cs  Cs0  1  0.00000000  0.56421100  0.25000000  1
  Cs  Cs1  1  0.00000000  0.75643500  0.75000000  1
  Cs  Cs2  1  0.50000000  0.74356500  0.25000000  1
  Cs  Cs3  1  0.50000000  0.93578900  0.75000000  1
  Cs  Cs4  1  0.50000000  0.06421100  0.25000000  1
  Cs  Cs5  1  0.50000000  0.25643500  0.75000000  1
  Cs  Cs6  1  0.00000000  0.24356500  0.25000000  1
  Cs  Cs7  1  0.00000000  0.43578900  0.75000000  1
  Te  Te8  1  0.00000000  0.89059600  0.25000000  1
  Te  Te9  1  0.50000000  0.60940400  0.75000000  1
  Te  Te10  1  0.50000000  0.39059600  0.25000000  1
  Te  Te11  1  0.00000000  0.10940400  0.75000000  1
  O  O12  1  0.00000000  0.76981900  0.25000000  1
  O  O13  1  0.50000000  0.73018100  0.75000000  1
  O  O14  1  0.50000000  0.26981900  0.25000000  1
  O  O15  1  0.00000000  0.23018100  0.75000000  1
  F  F16  1  0.22321150  0.89113050  0.04983000  1
  F  F17  1  0.27678850  0.60886950  0.95017000  1
  F  F18  1  0.77678850  0.89113050  0.45017000  1
  F  F19  1  0.72321150  0.60886950  0.95017000  1
  F  F20  1  0.27678850  0.60886950  0.54983000  1
  F  F21  1  0.77678850  0.89113050  0.04983000  1
  F  F22  1  0.72321150  0.60886950  0.54983000  1
  F  F23  1  0.22321150  0.89113050  0.45017000  1
  F  F24  1  0.72321150  0.39113050  0.04983000  1
  F  F25  1  0.77678850  0.10886950  0.95017000  1
  F  F26  1  0.27678850  0.39113050  0.45017000  1
  F  F27  1  0.22321150  0.10886950  0.95017000  1
  F  F28  1  0.77678850  0.10886950  0.54983000  1
  F  F29  1  0.27678850  0.39113050  0.04983000  1
  F  F30  1  0.22321150  0.10886950  0.54983000  1
  F  F31  1  0.72321150  0.39113050  0.45017000  1
