# generated using pymatgen
data_NaNbO3
_symmetry_space_group_name_H-M   'P 1'
_cell_length_a   5.69120600
_cell_length_b   5.73822800
_cell_length_c   15.95675700
_cell_angle_alpha   90.00000000
_cell_angle_beta   90.00000000
_cell_angle_gamma   90.00000000
_symmetry_Int_Tables_number   1
_chemical_formula_structural   NaNbO3
_chemical_formula_sum   'Na8 Nb8 O24'
_cell_volume   521.10679639
_cell_formula_units_Z   8
loop_
 _symmetry_equiv_pos_site_id
 _symmetry_equiv_pos_as_xyz
  1  'x, y, z'
loop_
 _atom_site_type_symbol
 _atom_site_label
 _atom_site_symmetry_multiplicity
 _atom_site_fract_x
 _atom_site_fract_y
 _atom_site_fract_z
 _atom_site_occupancy
  Na  Na0  1  0.50000000  0.04626800  0.75000000  1
  Na  Na1  1  0.50000000  0.95373200  0.25000000  1
  Na  Na2  1  0.50000000  0.00000000  0.50000000  1
  Na  Na3  1  0.50000000  0.00000000  0.00000000  1
  Na  Na4  1  0.00000000  0.54626800  0.75000000  1
  Na  Na5  1  0.00000000  0.45373200  0.25000000  1
  Na  Na6  1  0.00000000  0.50000000  0.50000000  1
  Na  Na7  1  0.00000000  0.50000000  0.00000000  1
  Nb  Nb8  1  0.50000000  0.47470700  0.12515700  1
  Nb  Nb9  1  0.50000000  0.47470700  0.37484300  1
  Nb  Nb10  1  0.50000000  0.52529300  0.87484300  1
  Nb  Nb11  1  0.50000000  0.52529300  0.62515700  1
  Nb  Nb12  1  0.00000000  0.97470700  0.12515700  1
  Nb  Nb13  1  0.00000000  0.97470700  0.37484300  1
  Nb  Nb14  1  0.00000000  0.02529300  0.87484300  1
  Nb  Nb15  1  0.00000000  0.02529300  0.62515700  1
  O  O16  1  0.50000000  0.51411500  0.25000000  1
  O  O17  1  0.50000000  0.48588500  0.75000000  1
  O  O18  1  0.74639950  0.75773450  0.37496800  1
  O  O19  1  0.00000000  0.00000000  0.50000000  1
  O  O20  1  0.25360050  0.75773450  0.37496800  1
  O  O21  1  0.25360050  0.24226550  0.87496800  1
  O  O22  1  0.25360050  0.24226550  0.62503200  1
  O  O23  1  0.25360050  0.75773450  0.12503200  1
  O  O24  1  0.74639950  0.24226550  0.62503200  1
  O  O25  1  0.74639950  0.24226550  0.87496800  1
  O  O26  1  0.00000000  0.00000000  0.00000000  1
  O  O27  1  0.74639950  0.75773450  0.12503200  1
  O  O28  1  0.00000000  0.01411500  0.25000000  1
  O  O29  1  0.00000000  0.98588500  0.75000000  1
  O  O30  1  0.24639950  0.25773450  0.37496800  1
  O  O31  1  0.50000000  0.50000000  0.50000000  1
  O  O32  1  0.75360050  0.25773450  0.37496800  1
  O  O33  1  0.75360050  0.74226550  0.87496800  1
  O  O34  1  0.75360050  0.74226550  0.62503200  1
  O  O35  1  0.75360050  0.25773450  0.12503200  1
  O  O36  1  0.24639950  0.74226550  0.62503200  1
  O  O37  1  0.24639950  0.74226550  0.87496800  1
  O  O38  1  0.50000000  0.50000000  0.00000000  1
  O  O39  1  0.24639950  0.25773450  0.12503200  1
