# generated using pymatgen
data_Na2Si2O5
_symmetry_space_group_name_H-M   'P 1'
_cell_length_a   4.90594200
_cell_length_b   24.26301000
_cell_length_c   8.22170808
_cell_angle_alpha   90.00000000
_cell_angle_beta   90.16006753
_cell_angle_gamma   90.00000000
_symmetry_Int_Tables_number   1
_chemical_formula_structural   Na2Si2O5
_chemical_formula_sum   'Na16 Si16 O40'
_cell_volume   978.65009997
_cell_formula_units_Z   8
loop_
 _symmetry_equiv_pos_site_id
 _symmetry_equiv_pos_as_xyz
  1  'x, y, z'
loop_
 _atom_site_type_symbol
 _atom_site_label
 _atom_site_symmetry_multiplicity
 _atom_site_fract_x
 _atom_site_fract_y
 _atom_site_fract_z
 _atom_site_occupancy
  Na  Na0  1  0.27370700  0.48559200  0.35556900  1
  Na  Na1  1  0.75451900  0.78146500  0.77747300  1
  Na  Na2  1  0.24548100  0.28146500  0.72252700  1
  Na  Na3  1  0.24548100  0.21853500  0.22252700  1
  Na  Na4  1  0.77007200  0.23776600  0.97379300  1
  Na  Na5  1  0.74650700  0.47243500  0.10152200  1
  Na  Na6  1  0.72629300  0.98559200  0.14443100  1
  Na  Na7  1  0.25349300  0.97243500  0.39847800  1
  Na  Na8  1  0.25349300  0.52756500  0.89847800  1
  Na  Na9  1  0.74650700  0.02756500  0.60152200  1
  Na  Na10  1  0.72629300  0.51440800  0.64443100  1
  Na  Na11  1  0.77007200  0.26223400  0.47379300  1
  Na  Na12  1  0.27370700  0.01440800  0.85556900  1
  Na  Na13  1  0.22992800  0.76223400  0.02620700  1
  Na  Na14  1  0.75451900  0.71853500  0.27747300  1
  Na  Na15  1  0.22992800  0.73776600  0.52620700  1
  Si  Si16  1  0.79319200  0.61028100  0.98159200  1
  Si  Si17  1  0.29442300  0.63690500  0.19642300  1
  Si  Si18  1  0.70557700  0.36309500  0.80357700  1
  Si  Si19  1  0.29442300  0.86309500  0.69642300  1
  Si  Si20  1  0.31385200  0.15912700  0.85691400  1
  Si  Si21  1  0.68614800  0.65912700  0.64308600  1
  Si  Si22  1  0.18519300  0.59188000  0.53752700  1
  Si  Si23  1  0.68614800  0.84087300  0.14308600  1
  Si  Si24  1  0.79319200  0.88971900  0.48159200  1
  Si  Si25  1  0.20680800  0.38971900  0.01840800  1
  Si  Si26  1  0.70557700  0.13690500  0.30357700  1
  Si  Si27  1  0.81480700  0.09188000  0.96247300  1
  Si  Si28  1  0.20680800  0.11028100  0.51840800  1
  Si  Si29  1  0.18519300  0.90812000  0.03752700  1
  Si  Si30  1  0.81480700  0.40812000  0.46247300  1
  Si  Si31  1  0.31385200  0.34087300  0.35691400  1
  O  O32  1  0.75539000  0.08948100  0.16118100  1
  O  O33  1  0.14150700  0.39212000  0.44031100  1
  O  O34  1  0.26706400  0.45159600  0.07636200  1
  O  O35  1  0.38063300  0.13115800  0.35732200  1
  O  O36  1  0.23329700  0.80105900  0.75189800  1
  O  O37  1  0.76670300  0.19894100  0.24810200  1
  O  O38  1  0.35821200  0.64418200  0.61587000  1
  O  O39  1  0.23329700  0.69894100  0.25189800  1
  O  O40  1  0.24461000  0.58948100  0.33881900  1
  O  O41  1  0.61936700  0.63115800  0.14267800  1
  O  O42  1  0.25640600  0.15841500  0.65873600  1
  O  O43  1  0.24664700  0.96682200  0.11648900  1
  O  O44  1  0.74359400  0.84158500  0.34126400  1
  O  O45  1  0.38063300  0.36884200  0.85732200  1
  O  O46  1  0.85849300  0.60788000  0.55968900  1
  O  O47  1  0.74718000  0.78178800  0.06567900  1
  O  O48  1  0.88048600  0.11536300  0.46432100  1
  O  O49  1  0.64178800  0.14418200  0.88413000  1
  O  O50  1  0.88048600  0.38463700  0.96432100  1
  O  O51  1  0.75335300  0.46682200  0.38351100  1
  O  O52  1  0.73293600  0.54840400  0.92363800  1
  O  O53  1  0.24461000  0.91051900  0.83881900  1
  O  O54  1  0.61936700  0.86884200  0.64267800  1
  O  O55  1  0.11951400  0.88463700  0.53567900  1
  O  O56  1  0.75335300  0.03317800  0.88351100  1
  O  O57  1  0.76670300  0.30105900  0.74810200  1
  O  O58  1  0.25282000  0.28178800  0.43432100  1
  O  O59  1  0.25640600  0.34158500  0.15873600  1
  O  O60  1  0.14150700  0.10788000  0.94031100  1
  O  O61  1  0.25282000  0.21821200  0.93432100  1
  O  O62  1  0.74718000  0.71821200  0.56567900  1
  O  O63  1  0.85849300  0.89212000  0.05968900  1
  O  O64  1  0.24664700  0.53317800  0.61648900  1
  O  O65  1  0.11951400  0.61536300  0.03567900  1
  O  O66  1  0.35821200  0.85581800  0.11587000  1
  O  O67  1  0.74359400  0.65841500  0.84126400  1
  O  O68  1  0.75539000  0.41051900  0.66118100  1
  O  O69  1  0.73293600  0.95159600  0.42363800  1
  O  O70  1  0.26706400  0.04840400  0.57636200  1
  O  O71  1  0.64178800  0.35581800  0.38413000  1
