# generated using pymatgen
data_Cs8Ta6O19
_symmetry_space_group_name_H-M   'P 1'
_cell_length_a   10.07067800
_cell_length_b   10.07067800
_cell_length_c   14.17934000
_cell_angle_alpha   90.00000000
_cell_angle_beta   90.00000000
_cell_angle_gamma   90.00000000
_symmetry_Int_Tables_number   1
_chemical_formula_structural   Cs8Ta6O19
_chemical_formula_sum   'Cs16 Ta12 O38'
_cell_volume   1438.04817904
_cell_formula_units_Z   2
loop_
 _symmetry_equiv_pos_site_id
 _symmetry_equiv_pos_as_xyz
  1  'x, y, z'
loop_
 _atom_site_type_symbol
 _atom_site_label
 _atom_site_symmetry_multiplicity
 _atom_site_fract_x
 _atom_site_fract_y
 _atom_site_fract_z
 _atom_site_occupancy
  Cs  Cs0  1  0.21617700  0.58348000  0.85182700  1
  Cs  Cs1  1  0.41652000  0.21617700  0.85182700  1
  Cs  Cs2  1  0.08348000  0.28382300  0.35182700  1
  Cs  Cs3  1  0.28382300  0.91652000  0.35182700  1
  Cs  Cs4  1  0.28382300  0.91652000  0.64817300  1
  Cs  Cs5  1  0.08348000  0.28382300  0.64817300  1
  Cs  Cs6  1  0.41652000  0.21617700  0.14817300  1
  Cs  Cs7  1  0.21617700  0.58348000  0.14817300  1
  Cs  Cs8  1  0.71617700  0.08348000  0.35182700  1
  Cs  Cs9  1  0.91652000  0.71617700  0.35182700  1
  Cs  Cs10  1  0.58348000  0.78382300  0.85182700  1
  Cs  Cs11  1  0.78382300  0.41652000  0.85182700  1
  Cs  Cs12  1  0.78382300  0.41652000  0.14817300  1
  Cs  Cs13  1  0.58348000  0.78382300  0.14817300  1
  Cs  Cs14  1  0.91652000  0.71617700  0.64817300  1
  Cs  Cs15  1  0.71617700  0.08348000  0.64817300  1
  Ta  Ta16  1  0.10432700  0.21362900  0.00000000  1
  Ta  Ta17  1  0.78637100  0.10432700  0.00000000  1
  Ta  Ta18  1  0.71362900  0.39567300  0.50000000  1
  Ta  Ta19  1  0.39567300  0.28637100  0.50000000  1
  Ta  Ta20  1  0.00000000  0.00000000  0.83355100  1
  Ta  Ta21  1  0.00000000  0.00000000  0.16644900  1
  Ta  Ta22  1  0.60432700  0.71362900  0.50000000  1
  Ta  Ta23  1  0.28637100  0.60432700  0.50000000  1
  Ta  Ta24  1  0.21362900  0.89567300  0.00000000  1
  Ta  Ta25  1  0.89567300  0.78637100  0.00000000  1
  Ta  Ta26  1  0.50000000  0.50000000  0.33355100  1
  Ta  Ta27  1  0.50000000  0.50000000  0.66644900  1
  O  O28  1  0.19670700  0.37037000  0.00000000  1
  O  O29  1  0.62963000  0.19670700  0.00000000  1
  O  O30  1  0.87037000  0.30329300  0.50000000  1
  O  O31  1  0.30329300  0.12963000  0.50000000  1
  O  O32  1  0.00000000  0.00000000  0.70398300  1
  O  O33  1  0.00000000  0.00000000  0.29601700  1
  O  O34  1  0.41294000  0.76028700  0.50000000  1
  O  O35  1  0.23971300  0.41294000  0.50000000  1
  O  O36  1  0.26028700  0.08706000  0.00000000  1
  O  O37  1  0.08706000  0.73971300  0.00000000  1
  O  O38  1  0.08781450  0.17587750  0.13915750  1
  O  O39  1  0.82412250  0.08781450  0.13915750  1
  O  O40  1  0.17587750  0.91218550  0.13915750  1
  O  O41  1  0.91218550  0.82412250  0.13915750  1
  O  O42  1  0.41218550  0.32412250  0.36084250  1
  O  O43  1  0.67587750  0.41218550  0.36084250  1
  O  O44  1  0.32412250  0.58781450  0.36084250  1
  O  O45  1  0.58781450  0.67587750  0.36084250  1
  O  O46  1  0.00000000  0.00000000  0.00000000  1
  O  O47  1  0.69670700  0.87037000  0.50000000  1
  O  O48  1  0.12963000  0.69670700  0.50000000  1
  O  O49  1  0.37037000  0.80329300  0.00000000  1
  O  O50  1  0.80329300  0.62963000  0.00000000  1
  O  O51  1  0.50000000  0.50000000  0.20398300  1
  O  O52  1  0.50000000  0.50000000  0.79601700  1
  O  O53  1  0.91294000  0.26028700  0.00000000  1
  O  O54  1  0.73971300  0.91294000  0.00000000  1
  O  O55  1  0.76028700  0.58706000  0.50000000  1
  O  O56  1  0.58706000  0.23971300  0.50000000  1
  O  O57  1  0.58781450  0.67587750  0.63915750  1
  O  O58  1  0.32412250  0.58781450  0.63915750  1
  O  O59  1  0.67587750  0.41218550  0.63915750  1
  O  O60  1  0.41218550  0.32412250  0.63915750  1
  O  O61  1  0.91218550  0.82412250  0.86084250  1
  O  O62  1  0.17587750  0.91218550  0.86084250  1
  O  O63  1  0.82412250  0.08781450  0.86084250  1
  O  O64  1  0.08781450  0.17587750  0.86084250  1
  O  O65  1  0.50000000  0.50000000  0.50000000  1
