# generated using pymatgen
data_Th(TeI)2
_symmetry_space_group_name_H-M   'P 1'
_cell_length_a   7.83747600
_cell_length_b   14.47516600
_cell_length_c   8.11308200
_cell_angle_alpha   90.00000000
_cell_angle_beta   109.08199231
_cell_angle_gamma   90.00000000
_symmetry_Int_Tables_number   1
_chemical_formula_structural   Th(TeI)2
_chemical_formula_sum   'Th4 Te8 I8'
_cell_volume   869.84368240
_cell_formula_units_Z   4
loop_
 _symmetry_equiv_pos_site_id
 _symmetry_equiv_pos_as_xyz
  1  'x, y, z'
loop_
 _atom_site_type_symbol
 _atom_site_label
 _atom_site_symmetry_multiplicity
 _atom_site_fract_x
 _atom_site_fract_y
 _atom_site_fract_z
 _atom_site_occupancy
  Th  Th0  1  0.00000000  0.14278300  0.50000000  1
  Th  Th1  1  0.50000000  0.35721700  0.50000000  1
  Th  Th2  1  0.50000000  0.64278300  0.50000000  1
  Th  Th3  1  0.00000000  0.85721700  0.50000000  1
  Te  Te4  1  0.88006500  0.00000000  0.17512700  1
  Te  Te5  1  0.11993500  0.00000000  0.82487300  1
  Te  Te6  1  0.33137200  0.00000000  0.61138700  1
  Te  Te7  1  0.66862800  0.00000000  0.38861300  1
  Te  Te8  1  0.38006500  0.50000000  0.17512700  1
  Te  Te9  1  0.61993500  0.50000000  0.82487300  1
  Te  Te10  1  0.83137200  0.50000000  0.61138700  1
  Te  Te11  1  0.16862800  0.50000000  0.38861300  1
  I  I12  1  0.76940150  0.20960250  0.74318000  1
  I  I13  1  0.23059850  0.20960250  0.25682000  1
  I  I14  1  0.73059850  0.29039750  0.25682000  1
  I  I15  1  0.26940150  0.29039750  0.74318000  1
  I  I16  1  0.26940150  0.70960250  0.74318000  1
  I  I17  1  0.73059850  0.70960250  0.25682000  1
  I  I18  1  0.23059850  0.79039750  0.25682000  1
  I  I19  1  0.76940150  0.79039750  0.74318000  1
