# generated using pymatgen
data_La3U(ClO2)3
_symmetry_space_group_name_H-M   'P 1'
_cell_length_a   9.60504184
_cell_length_b   9.60504184
_cell_length_c   5.65228700
_cell_angle_alpha   90.00000000
_cell_angle_beta   90.00000000
_cell_angle_gamma   120.00000000
_symmetry_Int_Tables_number   1
_chemical_formula_structural   La3U(ClO2)3
_chemical_formula_sum   'La6 U2 Cl6 O12'
_cell_volume   451.59940273
_cell_formula_units_Z   2
loop_
 _symmetry_equiv_pos_site_id
 _symmetry_equiv_pos_as_xyz
  1  'x, y, z'
loop_
 _atom_site_type_symbol
 _atom_site_label
 _atom_site_symmetry_multiplicity
 _atom_site_fract_x
 _atom_site_fract_y
 _atom_site_fract_z
 _atom_site_occupancy
  La  La0  1  0.68386800  0.59457600  0.25000000  1
  La  La1  1  0.40542400  0.08929200  0.25000000  1
  La  La2  1  0.59457600  0.91070800  0.75000000  1
  La  La3  1  0.08929200  0.68386800  0.75000000  1
  La  La4  1  0.31613200  0.40542400  0.75000000  1
  La  La5  1  0.91070800  0.31613200  0.25000000  1
  U  U6  1  0.33333333  0.66666667  0.25000000  1
  U  U7  1  0.66666667  0.33333333  0.75000000  1
  Cl  Cl8  1  0.75056700  0.94182400  0.25000000  1
  Cl  Cl9  1  0.05817600  0.80874300  0.25000000  1
  Cl  Cl10  1  0.19125700  0.24943300  0.25000000  1
  Cl  Cl11  1  0.24943300  0.05817600  0.75000000  1
  Cl  Cl12  1  0.94182400  0.19125700  0.75000000  1
  Cl  Cl13  1  0.80874300  0.75056700  0.75000000  1
  O  O14  1  0.51920700  0.36658500  0.50906900  1
  O  O15  1  0.63341500  0.15262200  0.50906900  1
  O  O16  1  0.84737800  0.48079300  0.99093100  1
  O  O17  1  0.36658500  0.84737800  0.00906900  1
  O  O18  1  0.15262200  0.51920700  0.00906900  1
  O  O19  1  0.63341500  0.15262200  0.99093100  1
  O  O20  1  0.48079300  0.63341500  0.49093100  1
  O  O21  1  0.51920700  0.36658500  0.99093100  1
  O  O22  1  0.48079300  0.63341500  0.00906900  1
  O  O23  1  0.84737800  0.48079300  0.50906900  1
  O  O24  1  0.36658500  0.84737800  0.49093100  1
  O  O25  1  0.15262200  0.51920700  0.49093100  1
