# generated using pymatgen
data_SiO2
_symmetry_space_group_name_H-M   'P 1'
_cell_length_a   17.89453200
_cell_length_b   17.95891400
_cell_length_c   14.55329621
_cell_angle_alpha   90.00000000
_cell_angle_beta   113.91817122
_cell_angle_gamma   90.00000000
_symmetry_Int_Tables_number   1
_chemical_formula_structural   SiO2
_chemical_formula_sum   'Si64 O128'
_cell_volume   4275.30959892
_cell_formula_units_Z   64
loop_
 _symmetry_equiv_pos_site_id
 _symmetry_equiv_pos_as_xyz
  1  'x, y, z'
loop_
 _atom_site_type_symbol
 _atom_site_label
 _atom_site_symmetry_multiplicity
 _atom_site_fract_x
 _atom_site_fract_y
 _atom_site_fract_z
 _atom_site_occupancy
  Si  Si0  1  0.51776900  0.14471000  0.11269600  1
  Si  Si1  1  0.16978850  0.16423550  0.89362200  1
  Si  Si2  1  0.69330050  0.08221350  0.24543900  1
  Si  Si3  1  0.41483100  0.83236600  0.38234500  1
  Si  Si4  1  0.71114950  0.95753250  0.11487300  1
  Si  Si5  1  0.48223100  0.85529000  0.88730400  1
  Si  Si6  1  0.71114950  0.04246750  0.61487300  1
  Si  Si7  1  0.29517700  0.70877400  0.38649300  1
  Si  Si8  1  0.58516900  0.83236600  0.11765500  1
  Si  Si9  1  0.41483100  0.16763400  0.88234500  1
  Si  Si10  1  0.28885050  0.04246750  0.88512700  1
  Si  Si11  1  0.70482300  0.70877400  0.11350700  1
  Si  Si12  1  0.61017400  0.98079600  0.88478200  1
  Si  Si13  1  0.58516900  0.16763400  0.61765500  1
  Si  Si14  1  0.70482300  0.29122600  0.61350700  1
  Si  Si15  1  0.30669950  0.08221350  0.25456100  1
  Si  Si16  1  0.48223100  0.14471000  0.38730400  1
  Si  Si17  1  0.50000000  0.11048000  0.75000000  1
  Si  Si18  1  0.38982600  0.98079600  0.61521800  1
  Si  Si19  1  0.50000000  0.27457200  0.25000000  1
  Si  Si20  1  0.51776900  0.85529000  0.61269600  1
  Si  Si21  1  0.83021150  0.83576450  0.10637800  1
  Si  Si22  1  0.30669950  0.91778650  0.75456100  1
  Si  Si23  1  0.61017400  0.01920400  0.38478200  1
  Si  Si24  1  0.29517700  0.29122600  0.88649300  1
  Si  Si25  1  0.28885050  0.95753250  0.38512700  1
  Si  Si26  1  0.69330050  0.91778650  0.74543900  1
  Si  Si27  1  0.50000000  0.88952000  0.25000000  1
  Si  Si28  1  0.50000000  0.72542800  0.75000000  1
  Si  Si29  1  0.83021150  0.16423550  0.60637800  1
  Si  Si30  1  0.38982600  0.01920400  0.11521800  1
  Si  Si31  1  0.16978850  0.83576450  0.39362200  1
  Si  Si32  1  0.01776900  0.64471000  0.11269600  1
  Si  Si33  1  0.66978850  0.66423550  0.89362200  1
  Si  Si34  1  0.19330050  0.58221350  0.24543900  1
  Si  Si35  1  0.91483100  0.33236600  0.38234500  1
  Si  Si36  1  0.21114950  0.45753250  0.11487300  1
  Si  Si37  1  0.98223100  0.35529000  0.88730400  1
  Si  Si38  1  0.21114950  0.54246750  0.61487300  1
  Si  Si39  1  0.79517700  0.20877400  0.38649300  1
  Si  Si40  1  0.08516900  0.33236600  0.11765500  1
  Si  Si41  1  0.91483100  0.66763400  0.88234500  1
  Si  Si42  1  0.78885050  0.54246750  0.88512700  1
  Si  Si43  1  0.20482300  0.20877400  0.11350700  1
  Si  Si44  1  0.11017400  0.48079600  0.88478200  1
  Si  Si45  1  0.08516900  0.66763400  0.61765500  1
  Si  Si46  1  0.20482300  0.79122600  0.61350700  1
  Si  Si47  1  0.80669950  0.58221350  0.25456100  1
  Si  Si48  1  0.98223100  0.64471000  0.38730400  1
  Si  Si49  1  0.00000000  0.61048000  0.75000000  1
  Si  Si50  1  0.88982600  0.48079600  0.61521800  1
  Si  Si51  1  0.00000000  0.77457200  0.25000000  1
  Si  Si52  1  0.01776900  0.35529000  0.61269600  1
  Si  Si53  1  0.33021150  0.33576450  0.10637800  1
  Si  Si54  1  0.80669950  0.41778650  0.75456100  1
  Si  Si55  1  0.11017400  0.51920400  0.38478200  1
  Si  Si56  1  0.79517700  0.79122600  0.88649300  1
  Si  Si57  1  0.78885050  0.45753250  0.38512700  1
  Si  Si58  1  0.19330050  0.41778650  0.74543900  1
  Si  Si59  1  0.00000000  0.38952000  0.25000000  1
  Si  Si60  1  0.00000000  0.22542800  0.75000000  1
  Si  Si61  1  0.33021150  0.66423550  0.60637800  1
  Si  Si62  1  0.88982600  0.51920400  0.11521800  1
  Si  Si63  1  0.66978850  0.33576450  0.39362200  1
  O  O64  1  0.27611700  0.26660700  0.11810100  1
  O  O65  1  0.73714800  0.02338200  0.19829400  1
  O  O66  1  0.66456350  0.99365250  0.00358400  1
  O  O67  1  0.27611700  0.73339300  0.61810100  1
  O  O68  1  0.51124450  0.15929450  0.50674800  1
  O  O69  1  0.20640700  0.91469100  0.37652500  1
  O  O70  1  0.32938700  0.95761900  0.66876100  1
  O  O71  1  0.57737900  0.67155800  0.80884300  1
  O  O72  1  0.34987850  0.90010850  0.36287700  1
  O  O73  1  0.42262100  0.32844200  0.19115700  1
  O  O74  1  0.48875550  0.15929450  0.99325200  1
  O  O75  1  0.20640700  0.08530900  0.87652500  1
  O  O76  1  0.72388300  0.26660700  0.38189900  1
  O  O77  1  0.79359300  0.08530900  0.62347500  1
  O  O78  1  0.66456350  0.00634750  0.50358400  1
  O  O79  1  0.33543650  0.00634750  0.99641600  1
  O  O80  1  0.75754600  0.14946900  0.29525100  1
  O  O81  1  0.56388950  0.05826850  0.83839200  1
  O  O82  1  0.24245400  0.85053100  0.70474900  1
  O  O83  1  0.26285200  0.97661800  0.80170600  1
  O  O84  1  0.24245400  0.14946900  0.20474900  1
  O  O85  1  0.26285200  0.02338200  0.30170600  1
  O  O86  1  0.42262100  0.67155800  0.69115700  1
  O  O87  1  0.51709400  0.77741900  0.66899100  1
  O  O88  1  0.43611050  0.94173150  0.16160800  1
  O  O89  1  0.43611050  0.05826850  0.66160800  1
  O  O90  1  0.82981200  0.16561200  0.49421700  1
  O  O91  1  0.61015500  0.88762000  0.65520300  1
  O  O92  1  0.65012150  0.90010850  0.13712300  1
  O  O93  1  0.72388300  0.73339300  0.88189900  1
  O  O94  1  0.45634600  0.91441000  0.63185300  1
  O  O95  1  0.38984500  0.88762000  0.84479700  1
  O  O96  1  0.34987850  0.09989150  0.86287700  1
  O  O97  1  0.54800850  0.83578250  0.20227200  1
  O  O98  1  0.33543650  0.99365250  0.49641600  1
  O  O99  1  0.57737900  0.32844200  0.30884300  1
  O  O100  1  0.61015500  0.11238000  0.15520300  1
  O  O101  1  0.75754600  0.85053100  0.79525100  1
  O  O102  1  0.36942450  0.24730350  0.87317200  1
  O  O103  1  0.36942450  0.75269650  0.37317200  1
  O  O104  1  0.45199150  0.16421750  0.79772800  1
  O  O105  1  0.63057550  0.24730350  0.62682800  1
  O  O106  1  0.56388950  0.94173150  0.33839200  1
  O  O107  1  0.73714800  0.97661800  0.69829400  1
  O  O108  1  0.54365400  0.91441000  0.86814700  1
  O  O109  1  0.79359300  0.91469100  0.12347500  1
  O  O110  1  0.65012150  0.09989150  0.63712300  1
  O  O111  1  0.82981200  0.83438800  0.99421700  1
  O  O112  1  0.54800850  0.16421750  0.70227200  1
  O  O113  1  0.51709400  0.22258100  0.16899100  1
  O  O114  1  0.32938700  0.04238100  0.16876100  1
  O  O115  1  0.54365400  0.08559000  0.36814700  1
  O  O116  1  0.51124450  0.84070550  0.00674800  1
  O  O117  1  0.67061300  0.95761900  0.83123900  1
  O  O118  1  0.63057550  0.75269650  0.12682800  1
  O  O119  1  0.48290600  0.77741900  0.83100900  1
  O  O120  1  0.17018800  0.16561200  0.00578300  1
  O  O121  1  0.45634600  0.08559000  0.13185300  1
  O  O122  1  0.48290600  0.22258100  0.33100900  1
  O  O123  1  0.45199150  0.83578250  0.29772800  1
  O  O124  1  0.48875550  0.84070550  0.49325200  1
  O  O125  1  0.17018800  0.83438800  0.50578300  1
  O  O126  1  0.38984500  0.11238000  0.34479700  1
  O  O127  1  0.67061300  0.04238100  0.33123900  1
  O  O128  1  0.77611700  0.76660700  0.11810100  1
  O  O129  1  0.23714800  0.52338200  0.19829400  1
  O  O130  1  0.16456350  0.49365250  0.00358400  1
  O  O131  1  0.77611700  0.23339300  0.61810100  1
  O  O132  1  0.01124450  0.65929450  0.50674800  1
  O  O133  1  0.70640700  0.41469100  0.37652500  1
  O  O134  1  0.82938700  0.45761900  0.66876100  1
  O  O135  1  0.07737900  0.17155800  0.80884300  1
  O  O136  1  0.84987850  0.40010850  0.36287700  1
  O  O137  1  0.92262100  0.82844200  0.19115700  1
  O  O138  1  0.98875550  0.65929450  0.99325200  1
  O  O139  1  0.70640700  0.58530900  0.87652500  1
  O  O140  1  0.22388300  0.76660700  0.38189900  1
  O  O141  1  0.29359300  0.58530900  0.62347500  1
  O  O142  1  0.16456350  0.50634750  0.50358400  1
  O  O143  1  0.83543650  0.50634750  0.99641600  1
  O  O144  1  0.25754600  0.64946900  0.29525100  1
  O  O145  1  0.06388950  0.55826850  0.83839200  1
  O  O146  1  0.74245400  0.35053100  0.70474900  1
  O  O147  1  0.76285200  0.47661800  0.80170600  1
  O  O148  1  0.74245400  0.64946900  0.20474900  1
  O  O149  1  0.76285200  0.52338200  0.30170600  1
  O  O150  1  0.92262100  0.17155800  0.69115700  1
  O  O151  1  0.01709400  0.27741900  0.66899100  1
  O  O152  1  0.93611050  0.44173150  0.16160800  1
  O  O153  1  0.93611050  0.55826850  0.66160800  1
  O  O154  1  0.32981200  0.66561200  0.49421700  1
  O  O155  1  0.11015500  0.38762000  0.65520300  1
  O  O156  1  0.15012150  0.40010850  0.13712300  1
  O  O157  1  0.22388300  0.23339300  0.88189900  1
  O  O158  1  0.95634600  0.41441000  0.63185300  1
  O  O159  1  0.88984500  0.38762000  0.84479700  1
  O  O160  1  0.84987850  0.59989150  0.86287700  1
  O  O161  1  0.04800850  0.33578250  0.20227200  1
  O  O162  1  0.83543650  0.49365250  0.49641600  1
  O  O163  1  0.07737900  0.82844200  0.30884300  1
  O  O164  1  0.11015500  0.61238000  0.15520300  1
  O  O165  1  0.25754600  0.35053100  0.79525100  1
  O  O166  1  0.86942450  0.74730350  0.87317200  1
  O  O167  1  0.86942450  0.25269650  0.37317200  1
  O  O168  1  0.95199150  0.66421750  0.79772800  1
  O  O169  1  0.13057550  0.74730350  0.62682800  1
  O  O170  1  0.06388950  0.44173150  0.33839200  1
  O  O171  1  0.23714800  0.47661800  0.69829400  1
  O  O172  1  0.04365400  0.41441000  0.86814700  1
  O  O173  1  0.29359300  0.41469100  0.12347500  1
  O  O174  1  0.15012150  0.59989150  0.63712300  1
  O  O175  1  0.32981200  0.33438800  0.99421700  1
  O  O176  1  0.04800850  0.66421750  0.70227200  1
  O  O177  1  0.01709400  0.72258100  0.16899100  1
  O  O178  1  0.82938700  0.54238100  0.16876100  1
  O  O179  1  0.04365400  0.58559000  0.36814700  1
  O  O180  1  0.01124450  0.34070550  0.00674800  1
  O  O181  1  0.17061300  0.45761900  0.83123900  1
  O  O182  1  0.13057550  0.25269650  0.12682800  1
  O  O183  1  0.98290600  0.27741900  0.83100900  1
  O  O184  1  0.67018800  0.66561200  0.00578300  1
  O  O185  1  0.95634600  0.58559000  0.13185300  1
  O  O186  1  0.98290600  0.72258100  0.33100900  1
  O  O187  1  0.95199150  0.33578250  0.29772800  1
  O  O188  1  0.98875550  0.34070550  0.49325200  1
  O  O189  1  0.67018800  0.33438800  0.50578300  1
  O  O190  1  0.88984500  0.61238000  0.34479700  1
  O  O191  1  0.17061300  0.54238100  0.33123900  1
