# generated using pymatgen
data_KLaGeS4
_symmetry_space_group_name_H-M   'P 1'
_cell_length_a   6.71891300
_cell_length_b   6.74221400
_cell_length_c   8.72688800
_cell_angle_alpha   90.00000000
_cell_angle_beta   107.58143013
_cell_angle_gamma   90.00000000
_symmetry_Int_Tables_number   1
_chemical_formula_structural   KLaGeS4
_chemical_formula_sum   'K2 La2 Ge2 S8'
_cell_volume   376.86461376
_cell_formula_units_Z   2
loop_
 _symmetry_equiv_pos_site_id
 _symmetry_equiv_pos_as_xyz
  1  'x, y, z'
loop_
 _atom_site_type_symbol
 _atom_site_label
 _atom_site_symmetry_multiplicity
 _atom_site_fract_x
 _atom_site_fract_y
 _atom_site_fract_z
 _atom_site_occupancy
  K  K0  1  0.27154700  0.51487400  0.06556200  1
  K  K1  1  0.72845300  0.01487400  0.93443800  1
  La  La2  1  0.76761000  0.99985800  0.44565200  1
  La  La3  1  0.23239000  0.49985800  0.55434800  1
  Ge  Ge4  1  0.78341900  0.52584000  0.68729100  1
  Ge  Ge5  1  0.21658100  0.02584000  0.31270900  1
  S  S6  1  0.98016200  0.27001900  0.26759000  1
  S  S7  1  0.58555100  0.52860800  0.84790300  1
  S  S8  1  0.01385300  0.75681700  0.27968500  1
  S  S9  1  0.59100200  0.56482400  0.42927600  1
  S  S10  1  0.41444900  0.02860800  0.15209700  1
  S  S11  1  0.98614700  0.25681700  0.72031500  1
  S  S12  1  0.01983800  0.77001900  0.73241000  1
  S  S13  1  0.40899800  0.06482400  0.57072400  1
