# generated using pymatgen
data_Cs2Na2B10O17
_symmetry_space_group_name_H-M   'P 1'
_cell_length_a   22.09105200
_cell_length_b   6.63481200
_cell_length_c   11.20283771
_cell_angle_alpha   90.00000000
_cell_angle_beta   104.60741976
_cell_angle_gamma   90.00000000
_symmetry_Int_Tables_number   1
_chemical_formula_structural   Cs2Na2B10O17
_chemical_formula_sum   'Cs8 Na8 B40 O68'
_cell_volume   1588.92451971
_cell_formula_units_Z   4
loop_
 _symmetry_equiv_pos_site_id
 _symmetry_equiv_pos_as_xyz
  1  'x, y, z'
loop_
 _atom_site_type_symbol
 _atom_site_label
 _atom_site_symmetry_multiplicity
 _atom_site_fract_x
 _atom_site_fract_y
 _atom_site_fract_z
 _atom_site_occupancy
  Cs  Cs0  1  0.56035650  0.19451750  0.59658800  1
  Cs  Cs1  1  0.93964350  0.69451750  0.90341200  1
  Cs  Cs2  1  0.93964350  0.30548250  0.40341200  1
  Cs  Cs3  1  0.56035650  0.80548250  0.09658800  1
  Cs  Cs4  1  0.06035650  0.69451750  0.59658800  1
  Cs  Cs5  1  0.43964350  0.19451750  0.90341200  1
  Cs  Cs6  1  0.43964350  0.80548250  0.40341200  1
  Cs  Cs7  1  0.06035650  0.30548250  0.09658800  1
  Na  Na8  1  0.73371600  0.95433900  0.18390700  1
  Na  Na9  1  0.73371600  0.04566100  0.68390700  1
  Na  Na10  1  0.76628400  0.54566100  0.81609300  1
  Na  Na11  1  0.76628400  0.45433900  0.31609300  1
  Na  Na12  1  0.23371600  0.45433900  0.18390700  1
  Na  Na13  1  0.23371600  0.54566100  0.68390700  1
  Na  Na14  1  0.26628400  0.04566100  0.81609300  1
  Na  Na15  1  0.26628400  0.95433900  0.31609300  1
  B  B16  1  0.94451050  0.80311850  0.26223100  1
  B  B17  1  0.55548950  0.69688150  0.73776900  1
  B  B18  1  0.65478850  0.13929050  0.34918200  1
  B  B19  1  0.84521150  0.63929050  0.15081800  1
  B  B20  1  0.94451050  0.19688150  0.76223100  1
  B  B21  1  0.67961750  0.57019850  0.00317200  1
  B  B22  1  0.85484850  0.17909750  0.85894100  1
  B  B23  1  0.65478850  0.86070950  0.84918200  1
  B  B24  1  0.82038250  0.07019850  0.49682800  1
  B  B25  1  0.84521150  0.36070950  0.65081800  1
  B  B26  1  0.64515150  0.67909750  0.64105900  1
  B  B27  1  0.66564250  0.21988950  0.93744300  1
  B  B28  1  0.85484850  0.82090250  0.35894100  1
  B  B29  1  0.66564250  0.78011050  0.43744300  1
  B  B30  1  0.64515150  0.32090250  0.14105900  1
  B  B31  1  0.55548950  0.30311850  0.23776900  1
  B  B32  1  0.67961750  0.42980150  0.50317200  1
  B  B33  1  0.83435750  0.71988950  0.56255700  1
  B  B34  1  0.82038250  0.92980150  0.99682800  1
  B  B35  1  0.83435750  0.28011050  0.06255700  1
  B  B36  1  0.44451050  0.30311850  0.26223100  1
  B  B37  1  0.05548950  0.19688150  0.73776900  1
  B  B38  1  0.15478850  0.63929050  0.34918200  1
  B  B39  1  0.34521150  0.13929050  0.15081800  1
  B  B40  1  0.44451050  0.69688150  0.76223100  1
  B  B41  1  0.17961750  0.07019850  0.00317200  1
  B  B42  1  0.35484850  0.67909750  0.85894100  1
  B  B43  1  0.15478850  0.36070950  0.84918200  1
  B  B44  1  0.32038250  0.57019850  0.49682800  1
  B  B45  1  0.34521150  0.86070950  0.65081800  1
  B  B46  1  0.14515150  0.17909750  0.64105900  1
  B  B47  1  0.16564250  0.71988950  0.93744300  1
  B  B48  1  0.35484850  0.32090250  0.35894100  1
  B  B49  1  0.16564250  0.28011050  0.43744300  1
  B  B50  1  0.14515150  0.82090250  0.14105900  1
  B  B51  1  0.05548950  0.80311850  0.23776900  1
  B  B52  1  0.17961750  0.92980150  0.50317200  1
  B  B53  1  0.33435750  0.21988950  0.56255700  1
  B  B54  1  0.32038250  0.42980150  0.99682800  1
  B  B55  1  0.33435750  0.78011050  0.06255700  1
  O  O56  1  0.67330350  0.48308450  0.61796200  1
  O  O57  1  0.68034250  0.77034750  0.97424200  1
  O  O58  1  0.00000000  0.89085300  0.25000000  1
  O  O59  1  0.57871950  0.36566550  0.14206200  1
  O  O60  1  0.91536450  0.33811850  0.67808400  1
  O  O61  1  0.58463550  0.83811850  0.82191600  1
  O  O62  1  0.68034250  0.22965250  0.47424200  1
  O  O63  1  0.68058600  0.23289700  0.25551600  1
  O  O64  1  0.00000000  0.10914700  0.75000000  1
  O  O65  1  0.68331350  0.41885450  0.91742800  1
  O  O66  1  0.82669650  0.01691550  0.38203800  1
  O  O67  1  0.82942800  0.57961600  0.64887400  1
  O  O68  1  0.81941400  0.26710300  0.74448400  1
  O  O69  1  0.81668650  0.08114550  0.08257200  1
  O  O70  1  0.57871950  0.63433450  0.64206200  1
  O  O71  1  0.92128050  0.13433450  0.85793800  1
  O  O72  1  0.82669650  0.98308450  0.88203800  1
  O  O73  1  0.64395150  0.17612350  0.03837900  1
  O  O74  1  0.92128050  0.86566550  0.35793800  1
  O  O75  1  0.64395150  0.82387650  0.53837900  1
  O  O76  1  0.91536450  0.66188150  0.17808400  1
  O  O77  1  0.82942800  0.42038400  0.14887400  1
  O  O78  1  0.67057200  0.07961600  0.85112600  1
  O  O79  1  0.68058600  0.76710300  0.75551600  1
  O  O80  1  0.81668650  0.91885450  0.58257200  1
  O  O81  1  0.67057200  0.92038400  0.35112600  1
  O  O82  1  0.67330350  0.51691550  0.11796200  1
  O  O83  1  0.85604850  0.32387650  0.96162100  1
  O  O84  1  0.68331350  0.58114550  0.41742800  1
  O  O85  1  0.81965750  0.72965250  0.02575800  1
  O  O86  1  0.58463550  0.16188150  0.32191600  1
  O  O87  1  0.81965750  0.27034750  0.52575800  1
  O  O88  1  0.85604850  0.67612350  0.46162100  1
  O  O89  1  0.81941400  0.73289700  0.24448400  1
  O  O90  1  0.17330350  0.98308450  0.61796200  1
  O  O91  1  0.18034250  0.27034750  0.97424200  1
  O  O92  1  0.50000000  0.39085300  0.25000000  1
  O  O93  1  0.07871950  0.86566550  0.14206200  1
  O  O94  1  0.41536450  0.83811850  0.67808400  1
  O  O95  1  0.08463550  0.33811850  0.82191600  1
  O  O96  1  0.18034250  0.72965250  0.47424200  1
  O  O97  1  0.18058600  0.73289700  0.25551600  1
  O  O98  1  0.50000000  0.60914700  0.75000000  1
  O  O99  1  0.18331350  0.91885450  0.91742800  1
  O  O100  1  0.32669650  0.51691550  0.38203800  1
  O  O101  1  0.32942800  0.07961600  0.64887400  1
  O  O102  1  0.31941400  0.76710300  0.74448400  1
  O  O103  1  0.31668650  0.58114550  0.08257200  1
  O  O104  1  0.07871950  0.13433450  0.64206200  1
  O  O105  1  0.42128050  0.63433450  0.85793800  1
  O  O106  1  0.32669650  0.48308450  0.88203800  1
  O  O107  1  0.14395150  0.67612350  0.03837900  1
  O  O108  1  0.42128050  0.36566550  0.35793800  1
  O  O109  1  0.14395150  0.32387650  0.53837900  1
  O  O110  1  0.41536450  0.16188150  0.17808400  1
  O  O111  1  0.32942800  0.92038400  0.14887400  1
  O  O112  1  0.17057200  0.57961600  0.85112600  1
  O  O113  1  0.18058600  0.26710300  0.75551600  1
  O  O114  1  0.31668650  0.41885450  0.58257200  1
  O  O115  1  0.17057200  0.42038400  0.35112600  1
  O  O116  1  0.17330350  0.01691550  0.11796200  1
  O  O117  1  0.35604850  0.82387650  0.96162100  1
  O  O118  1  0.18331350  0.08114550  0.41742800  1
  O  O119  1  0.31965750  0.22965250  0.02575800  1
  O  O120  1  0.08463550  0.66188150  0.32191600  1
  O  O121  1  0.31965750  0.77034750  0.52575800  1
  O  O122  1  0.35604850  0.17612350  0.46162100  1
  O  O123  1  0.31941400  0.23289700  0.24448400  1
