# generated using pymatgen
data_KNaTiO3
_symmetry_space_group_name_H-M   'P 1'
_cell_length_a   5.84675000
_cell_length_b   11.11868800
_cell_length_c   5.51255805
_cell_angle_alpha   90.00000000
_cell_angle_beta   97.42021614
_cell_angle_gamma   90.00000000
_symmetry_Int_Tables_number   1
_chemical_formula_structural   KNaTiO3
_chemical_formula_sum   'K4 Na4 Ti4 O12'
_cell_volume   355.36037465
_cell_formula_units_Z   4
loop_
 _symmetry_equiv_pos_site_id
 _symmetry_equiv_pos_as_xyz
  1  'x, y, z'
loop_
 _atom_site_type_symbol
 _atom_site_label
 _atom_site_symmetry_multiplicity
 _atom_site_fract_x
 _atom_site_fract_y
 _atom_site_fract_z
 _atom_site_occupancy
  K  K0  1  0.50000000  0.76287900  0.75000000  1
  K  K1  1  0.00000000  0.73712100  0.25000000  1
  K  K2  1  0.00000000  0.26287900  0.75000000  1
  K  K3  1  0.50000000  0.23712100  0.25000000  1
  Na  Na4  1  0.00000000  0.57758400  0.75000000  1
  Na  Na5  1  0.50000000  0.92241600  0.25000000  1
  Na  Na6  1  0.50000000  0.07758400  0.75000000  1
  Na  Na7  1  0.00000000  0.42241600  0.25000000  1
  Ti  Ti8  1  0.50000000  0.55292900  0.25000000  1
  Ti  Ti9  1  0.00000000  0.94707100  0.75000000  1
  Ti  Ti10  1  0.00000000  0.05292900  0.25000000  1
  Ti  Ti11  1  0.50000000  0.44707100  0.75000000  1
  O  O12  1  0.28610950  0.52450550  0.50462700  1
  O  O13  1  0.78610950  0.97549450  0.00462700  1
  O  O14  1  0.71389050  0.52450550  0.99537300  1
  O  O15  1  0.21389050  0.97549450  0.49537300  1
  O  O16  1  0.00000000  0.78676900  0.75000000  1
  O  O17  1  0.50000000  0.71323100  0.25000000  1
  O  O18  1  0.78610950  0.02450550  0.50462700  1
  O  O19  1  0.28610950  0.47549450  0.00462700  1
  O  O20  1  0.21389050  0.02450550  0.99537300  1
  O  O21  1  0.71389050  0.47549450  0.49537300  1
  O  O22  1  0.50000000  0.28676900  0.75000000  1
  O  O23  1  0.00000000  0.21323100  0.25000000  1
