# generated using pymatgen
data_AlH3
_symmetry_space_group_name_H-M   'P 1'
_cell_length_a   5.45292700
_cell_length_b   5.79127400
_cell_length_c   7.40960900
_cell_angle_alpha   90.00000000
_cell_angle_beta   90.00000000
_cell_angle_gamma   90.00000000
_symmetry_Int_Tables_number   1
_chemical_formula_structural   AlH3
_chemical_formula_sum   'Al6 H18'
_cell_volume   233.99096466
_cell_formula_units_Z   6
loop_
 _symmetry_equiv_pos_site_id
 _symmetry_equiv_pos_as_xyz
  1  'x, y, z'
loop_
 _atom_site_type_symbol
 _atom_site_label
 _atom_site_symmetry_multiplicity
 _atom_site_fract_x
 _atom_site_fract_y
 _atom_site_fract_z
 _atom_site_occupancy
  Al  Al0  1  0.71171150  0.00000000  0.91547700  1
  Al  Al1  1  0.28828850  0.00000000  0.08452300  1
  Al  Al2  1  0.21171150  0.50000000  0.58452300  1
  Al  Al3  1  0.50000000  0.50000000  0.00000000  1
  Al  Al4  1  0.78828850  0.50000000  0.41547700  1
  Al  Al5  1  0.00000000  0.00000000  0.50000000  1
  H  H6  1  0.29705950  0.70138700  0.08240000  1
  H  H7  1  0.59673950  0.00000000  0.13909700  1
  H  H8  1  0.32716750  0.50000000  0.79945500  1
  H  H9  1  0.70294050  0.70138700  0.91760000  1
  H  H10  1  0.17283250  0.00000000  0.29945500  1
  H  H11  1  0.09673950  0.50000000  0.36090300  1
  H  H12  1  0.20294050  0.79861300  0.58240000  1
  H  H13  1  0.90326050  0.50000000  0.63909700  1
  H  H14  1  0.67283250  0.50000000  0.20054500  1
  H  H15  1  0.00000000  0.00000000  0.00000000  1
  H  H16  1  0.40326050  0.00000000  0.86090300  1
  H  H17  1  0.82716750  0.00000000  0.70054500  1
  H  H18  1  0.79705950  0.79861300  0.41760000  1
  H  H19  1  0.20294050  0.20138700  0.58240000  1
  H  H20  1  0.70294050  0.29861300  0.91760000  1
  H  H21  1  0.79705950  0.20138700  0.41760000  1
  H  H22  1  0.29705950  0.29861300  0.08240000  1
  H  H23  1  0.50000000  0.50000000  0.50000000  1
