# generated using pymatgen
data_OsO4
_symmetry_space_group_name_H-M   'P 1'
_cell_length_a   9.33133600
_cell_length_b   4.79265600
_cell_length_c   4.92671378
_cell_angle_alpha   90.00000000
_cell_angle_beta   119.19154175
_cell_angle_gamma   90.00000000
_symmetry_Int_Tables_number   1
_chemical_formula_structural   OsO4
_chemical_formula_sum   'Os2 O8'
_cell_volume   192.34846302
_cell_formula_units_Z   2
loop_
 _symmetry_equiv_pos_site_id
 _symmetry_equiv_pos_as_xyz
  1  'x, y, z'
loop_
 _atom_site_type_symbol
 _atom_site_label
 _atom_site_symmetry_multiplicity
 _atom_site_fract_x
 _atom_site_fract_y
 _atom_site_fract_z
 _atom_site_occupancy
  Os  Os0  1  0.00000000  0.99960000  0.50000000  1
  Os  Os1  1  0.50000000  0.49960000  0.50000000  1
  O  O2  1  0.37130850  0.70846350  0.57038500  1
  O  O3  1  0.38632750  0.29191750  0.18021800  1
  O  O4  1  0.12869150  0.20846350  0.42961500  1
  O  O5  1  0.11367250  0.79191750  0.81978200  1
  O  O6  1  0.87130850  0.20846350  0.57038500  1
  O  O7  1  0.88632750  0.79191750  0.18021800  1
  O  O8  1  0.62869150  0.70846350  0.42961500  1
  O  O9  1  0.61367250  0.29191750  0.81978200  1
