# generated using pymatgen
data_RbGeIO6
_symmetry_space_group_name_H-M   'P 1'
_cell_length_a   5.11433745
_cell_length_b   5.11433745
_cell_length_c   6.52555200
_cell_angle_alpha   90.00000000
_cell_angle_beta   90.00000000
_cell_angle_gamma   120.00000000
_symmetry_Int_Tables_number   1
_chemical_formula_structural   RbGeIO6
_chemical_formula_sum   'Rb1 Ge1 I1 O6'
_cell_volume   147.81777021
_cell_formula_units_Z   1
loop_
 _symmetry_equiv_pos_site_id
 _symmetry_equiv_pos_as_xyz
  1  'x, y, z'
loop_
 _atom_site_type_symbol
 _atom_site_label
 _atom_site_symmetry_multiplicity
 _atom_site_fract_x
 _atom_site_fract_y
 _atom_site_fract_z
 _atom_site_occupancy
  Rb  Rb0  1  0.00000000  0.00000000  0.00000000  1
  Ge  Ge1  1  0.33333333  0.66666667  0.50000000  1
  I  I2  1  0.66666667  0.33333333  0.50000000  1
  O  O3  1  0.38573900  0.38335100  0.33256700  1
  O  O4  1  0.38573900  0.00238800  0.66743300  1
  O  O5  1  0.99761200  0.38335100  0.66743300  1
  O  O6  1  0.61664900  0.61426100  0.66743300  1
  O  O7  1  0.99761200  0.61426100  0.33256700  1
  O  O8  1  0.61664900  0.00238800  0.33256700  1
