# generated using pymatgen
data_AsS(IF3)2
_symmetry_space_group_name_H-M   'P 1'
_cell_length_a   9.60330200
_cell_length_b   13.33484000
_cell_length_c   14.17221848
_cell_angle_alpha   90.00000000
_cell_angle_beta   94.70639932
_cell_angle_gamma   90.00000000
_symmetry_Int_Tables_number   1
_chemical_formula_structural   AsS(IF3)2
_chemical_formula_sum   'As8 S8 I16 F48'
_cell_volume   1808.75364177
_cell_formula_units_Z   8
loop_
 _symmetry_equiv_pos_site_id
 _symmetry_equiv_pos_as_xyz
  1  'x, y, z'
loop_
 _atom_site_type_symbol
 _atom_site_label
 _atom_site_symmetry_multiplicity
 _atom_site_fract_x
 _atom_site_fract_y
 _atom_site_fract_z
 _atom_site_occupancy
  As  As0  1  0.50000000  0.67758900  0.25000000  1
  As  As1  1  0.50000000  0.32241100  0.75000000  1
  As  As2  1  0.50000000  0.00000000  0.00000000  1
  As  As3  1  0.50000000  0.00000000  0.50000000  1
  As  As4  1  0.00000000  0.17758900  0.25000000  1
  As  As5  1  0.00000000  0.82241100  0.75000000  1
  As  As6  1  0.00000000  0.50000000  0.00000000  1
  As  As7  1  0.00000000  0.50000000  0.50000000  1
  S  S8  1  0.40296450  0.80716450  0.74621500  1
  S  S9  1  0.59703550  0.19283550  0.25378500  1
  S  S10  1  0.40296450  0.19283550  0.24621500  1
  S  S11  1  0.59703550  0.80716450  0.75378500  1
  S  S12  1  0.90296450  0.30716450  0.74621500  1
  S  S13  1  0.09703550  0.69283550  0.25378500  1
  S  S14  1  0.90296450  0.69283550  0.24621500  1
  S  S15  1  0.09703550  0.30716450  0.75378500  1
  I  I16  1  0.37998300  0.36087000  0.08095600  1
  I  I17  1  0.37998300  0.63913000  0.58095600  1
  I  I18  1  0.65222400  0.33779000  0.11259900  1
  I  I19  1  0.62001700  0.63913000  0.91904400  1
  I  I20  1  0.34777600  0.66221000  0.88740100  1
  I  I21  1  0.34777600  0.33779000  0.38740100  1
  I  I22  1  0.65222400  0.66221000  0.61259900  1
  I  I23  1  0.62001700  0.36087000  0.41904400  1
  I  I24  1  0.87998300  0.86087000  0.08095600  1
  I  I25  1  0.87998300  0.13913000  0.58095600  1
  I  I26  1  0.15222400  0.83779000  0.11259900  1
  I  I27  1  0.12001700  0.13913000  0.91904400  1
  I  I28  1  0.84777600  0.16221000  0.88740100  1
  I  I29  1  0.84777600  0.83779000  0.38740100  1
  I  I30  1  0.15222400  0.16221000  0.61259900  1
  I  I31  1  0.12001700  0.86087000  0.41904400  1
  F  F32  1  0.43014250  0.97068850  0.10851600  1
  F  F33  1  0.40069150  0.32044550  0.63830800  1
  F  F34  1  0.11061000  0.91608100  0.70829600  1
  F  F35  1  0.59930850  0.67955450  0.36169200  1
  F  F36  1  0.56985750  0.02931150  0.89148400  1
  F  F37  1  0.38718350  0.22806050  0.78974100  1
  F  F38  1  0.59930850  0.32044550  0.86169200  1
  F  F39  1  0.38718350  0.77193950  0.28974100  1
  F  F40  1  0.59320250  0.88338650  0.00387200  1
  F  F41  1  0.59320250  0.11661350  0.50387200  1
  F  F42  1  0.43014250  0.02931150  0.60851600  1
  F  F43  1  0.11061000  0.08391900  0.20829600  1
  F  F44  1  0.88939000  0.08391900  0.29170400  1
  F  F45  1  0.40679750  0.88338650  0.49612800  1
  F  F46  1  0.61281650  0.77193950  0.21025900  1
  F  F47  1  0.61281650  0.22806050  0.71025900  1
  F  F48  1  0.64542500  0.94142500  0.56225900  1
  F  F49  1  0.56985750  0.97068850  0.39148400  1
  F  F50  1  0.40069150  0.67955450  0.13830800  1
  F  F51  1  0.40679750  0.11661350  0.99612800  1
  F  F52  1  0.88939000  0.91608100  0.79170400  1
  F  F53  1  0.35457500  0.05857500  0.43774100  1
  F  F54  1  0.35457500  0.94142500  0.93774100  1
  F  F55  1  0.64542500  0.05857500  0.06225900  1
  F  F56  1  0.93014250  0.47068850  0.10851600  1
  F  F57  1  0.90069150  0.82044550  0.63830800  1
  F  F58  1  0.61061000  0.41608100  0.70829600  1
  F  F59  1  0.09930850  0.17955450  0.36169200  1
  F  F60  1  0.06985750  0.52931150  0.89148400  1
  F  F61  1  0.88718350  0.72806050  0.78974100  1
  F  F62  1  0.09930850  0.82044550  0.86169200  1
  F  F63  1  0.88718350  0.27193950  0.28974100  1
  F  F64  1  0.09320250  0.38338650  0.00387200  1
  F  F65  1  0.09320250  0.61661350  0.50387200  1
  F  F66  1  0.93014250  0.52931150  0.60851600  1
  F  F67  1  0.61061000  0.58391900  0.20829600  1
  F  F68  1  0.38939000  0.58391900  0.29170400  1
  F  F69  1  0.90679750  0.38338650  0.49612800  1
  F  F70  1  0.11281650  0.27193950  0.21025900  1
  F  F71  1  0.11281650  0.72806050  0.71025900  1
  F  F72  1  0.14542500  0.44142500  0.56225900  1
  F  F73  1  0.06985750  0.47068850  0.39148400  1
  F  F74  1  0.90069150  0.17955450  0.13830800  1
  F  F75  1  0.90679750  0.61661350  0.99612800  1
  F  F76  1  0.38939000  0.41608100  0.79170400  1
  F  F77  1  0.85457500  0.55857500  0.43774100  1
  F  F78  1  0.85457500  0.44142500  0.93774100  1
  F  F79  1  0.14542500  0.55857500  0.06225900  1
