# generated using pymatgen
data_MgAl2O4
_symmetry_space_group_name_H-M   'P 1'
_cell_length_a   10.00688800
_cell_length_b   5.76889600
_cell_length_c   33.20920048
_cell_angle_alpha   90.00000000
_cell_angle_beta   95.72616908
_cell_angle_gamma   90.00000000
_symmetry_Int_Tables_number   1
_chemical_formula_structural   MgAl2O4
_chemical_formula_sum   'Mg28 Al56 O112'
_cell_volume   1907.55759413
_cell_formula_units_Z   28
loop_
 _symmetry_equiv_pos_site_id
 _symmetry_equiv_pos_as_xyz
  1  'x, y, z'
loop_
 _atom_site_type_symbol
 _atom_site_label
 _atom_site_symmetry_multiplicity
 _atom_site_fract_x
 _atom_site_fract_y
 _atom_site_fract_z
 _atom_site_occupancy
  Mg  Mg0  1  0.75000000  0.75000000  0.00000000  1
  Mg  Mg1  1  0.80644800  0.00000000  0.91280200  1
  Mg  Mg2  1  0.75000000  0.25000000  0.00000000  1
  Mg  Mg3  1  0.58930700  0.50000000  0.76744000  1
  Mg  Mg4  1  0.87513500  0.50000000  0.62513900  1
  Mg  Mg5  1  0.76818600  0.00000000  0.80446600  1
  Mg  Mg6  1  0.66081900  0.00000000  0.48218000  1
  Mg  Mg7  1  0.55352800  0.50000000  0.66073200  1
  Mg  Mg8  1  0.94647200  0.00000000  0.33926800  1
  Mg  Mg9  1  0.83918100  0.50000000  0.51782000  1
  Mg  Mg10  1  0.73181400  0.50000000  0.19553400  1
  Mg  Mg11  1  0.62486500  0.00000000  0.37486100  1
  Mg  Mg12  1  0.91069300  0.00000000  0.23256000  1
  Mg  Mg13  1  0.69355200  0.50000000  0.08719800  1
  Mg  Mg14  1  0.25000000  0.25000000  0.00000000  1
  Mg  Mg15  1  0.30644800  0.50000000  0.91280200  1
  Mg  Mg16  1  0.25000000  0.75000000  0.00000000  1
  Mg  Mg17  1  0.08930700  0.00000000  0.76744000  1
  Mg  Mg18  1  0.37513500  0.00000000  0.62513900  1
  Mg  Mg19  1  0.26818600  0.50000000  0.80446600  1
  Mg  Mg20  1  0.16081900  0.50000000  0.48218000  1
  Mg  Mg21  1  0.05352800  0.00000000  0.66073200  1
  Mg  Mg22  1  0.44647200  0.50000000  0.33926800  1
  Mg  Mg23  1  0.33918100  0.00000000  0.51782000  1
  Mg  Mg24  1  0.23181400  0.00000000  0.19553400  1
  Mg  Mg25  1  0.12486500  0.50000000  0.37486100  1
  Mg  Mg26  1  0.41069300  0.50000000  0.23256000  1
  Mg  Mg27  1  0.19355200  0.00000000  0.08719800  1
  Al  Al28  1  0.52206500  0.00000000  0.05517800  1
  Al  Al29  1  0.85757600  0.00000000  0.07296000  1
  Al  Al30  1  0.00000000  0.00000000  0.00000000  1
  Al  Al31  1  0.53665750  0.25191450  0.85674900  1
  Al  Al32  1  0.64242400  0.50000000  0.92704000  1
  Al  Al33  1  0.78424200  0.50000000  0.85691400  1
  Al  Al34  1  0.82149550  0.24987250  0.71447000  1
  Al  Al35  1  0.53665750  0.74808550  0.85674900  1
  Al  Al36  1  0.97793500  0.50000000  0.94482200  1
  Al  Al37  1  0.92852900  0.50000000  0.78580400  1
  Al  Al38  1  0.57152500  0.00000000  0.71448400  1
  Al  Al39  1  0.71431800  0.00000000  0.64297000  1
  Al  Al40  1  0.82149550  0.75012750  0.71447000  1
  Al  Al41  1  0.85715900  0.00000000  0.57146300  1
  Al  Al42  1  0.89287750  0.74991950  0.42854800  1
  Al  Al43  1  0.89287750  0.25008050  0.42854800  1
  Al  Al44  1  0.60712250  0.24991950  0.57145200  1
  Al  Al45  1  0.00000000  0.00000000  0.50000000  1
  Al  Al46  1  0.64284100  0.50000000  0.42853700  1
  Al  Al47  1  0.60712250  0.75008050  0.57145200  1
  Al  Al48  1  0.67850450  0.25012750  0.28553000  1
  Al  Al49  1  0.78568200  0.50000000  0.35703000  1
  Al  Al50  1  0.96334250  0.24808550  0.14325100  1
  Al  Al51  1  0.92847500  0.50000000  0.28551600  1
  Al  Al52  1  0.57147100  0.00000000  0.21419600  1
  Al  Al53  1  0.67850450  0.74987250  0.28553000  1
  Al  Al54  1  0.71575800  0.00000000  0.14308600  1
  Al  Al55  1  0.96334250  0.75191450  0.14325100  1
  Al  Al56  1  0.02206500  0.50000000  0.05517800  1
  Al  Al57  1  0.35757600  0.50000000  0.07296000  1
  Al  Al58  1  0.50000000  0.50000000  0.00000000  1
  Al  Al59  1  0.03665750  0.75191450  0.85674900  1
  Al  Al60  1  0.14242400  0.00000000  0.92704000  1
  Al  Al61  1  0.28424200  0.00000000  0.85691400  1
  Al  Al62  1  0.32149550  0.74987250  0.71447000  1
  Al  Al63  1  0.03665750  0.24808550  0.85674900  1
  Al  Al64  1  0.47793500  0.00000000  0.94482200  1
  Al  Al65  1  0.42852900  0.00000000  0.78580400  1
  Al  Al66  1  0.07152500  0.50000000  0.71448400  1
  Al  Al67  1  0.21431800  0.50000000  0.64297000  1
  Al  Al68  1  0.32149550  0.25012750  0.71447000  1
  Al  Al69  1  0.35715900  0.50000000  0.57146300  1
  Al  Al70  1  0.39287750  0.24991950  0.42854800  1
  Al  Al71  1  0.39287750  0.75008050  0.42854800  1
  Al  Al72  1  0.10712250  0.74991950  0.57145200  1
  Al  Al73  1  0.50000000  0.50000000  0.50000000  1
  Al  Al74  1  0.14284100  0.00000000  0.42853700  1
  Al  Al75  1  0.10712250  0.25008050  0.57145200  1
  Al  Al76  1  0.17850450  0.75012750  0.28553000  1
  Al  Al77  1  0.28568200  0.00000000  0.35703000  1
  Al  Al78  1  0.46334250  0.74808550  0.14325100  1
  Al  Al79  1  0.42847500  0.00000000  0.28551600  1
  Al  Al80  1  0.07147100  0.50000000  0.21419600  1
  Al  Al81  1  0.17850450  0.24987250  0.28553000  1
  Al  Al82  1  0.21575800  0.50000000  0.14308600  1
  Al  Al83  1  0.46334250  0.25191450  0.14325100  1
  O  O84  1  0.68910600  0.00000000  0.04050200  1
  O  O85  1  0.83600500  0.00000000  0.97131600  1
  O  O86  1  0.93174650  0.76343350  0.03867400  1
  O  O87  1  0.93174650  0.23656650  0.03867400  1
  O  O88  1  0.56825350  0.26343350  0.96132600  1
  O  O89  1  0.98103300  0.00000000  0.88921600  1
  O  O90  1  0.66399500  0.50000000  0.02868400  1
  O  O91  1  0.56825350  0.73656650  0.96132600  1
  O  O92  1  0.60953500  0.50000000  0.82638700  1
  O  O93  1  0.70425600  0.27422100  0.88951900  1
  O  O94  1  0.81089400  0.50000000  0.95949800  1
  O  O95  1  0.70425600  0.72577900  0.88951900  1
  O  O96  1  0.86780400  0.27900700  0.82378500  1
  O  O97  1  0.76780900  0.50000000  0.74814800  1
  O  O98  1  0.86780400  0.72099300  0.82378500  1
  O  O99  1  0.96336300  0.50000000  0.88935300  1
  O  O100  1  0.99013950  0.27728750  0.74812600  1
  O  O101  1  0.89493800  0.50000000  0.68451500  1
  O  O102  1  0.99013950  0.72271250  0.74812600  1
  O  O103  1  0.58841900  0.00000000  0.82361900  1
  O  O104  1  0.65270850  0.77710450  0.68070800  1
  O  O105  1  0.55332400  0.00000000  0.60527900  1
  O  O106  1  0.65270850  0.22289550  0.68070800  1
  O  O107  1  0.74813500  0.00000000  0.74462200  1
  O  O108  1  0.68064500  0.00000000  0.54158900  1
  O  O109  1  0.77596800  0.77707300  0.60524800  1
  O  O110  1  0.87533100  0.00000000  0.68066700  1
  O  O111  1  0.77596800  0.22292700  0.60524800  1
  O  O112  1  0.93837100  0.77705100  0.53768900  1
  O  O113  1  0.83901800  0.00000000  0.46235400  1
  O  O114  1  0.96634100  0.00000000  0.39867500  1
  O  O115  1  0.93837100  0.22294900  0.53768900  1
  O  O116  1  0.53365900  0.50000000  0.60132500  1
  O  O117  1  0.56162900  0.27705100  0.46231100  1
  O  O118  1  0.66098200  0.50000000  0.53764600  1
  O  O119  1  0.56162900  0.72294900  0.46231100  1
  O  O120  1  0.72403200  0.27707300  0.39475200  1
  O  O121  1  0.62466900  0.50000000  0.31933300  1
  O  O122  1  0.72403200  0.72292700  0.39475200  1
  O  O123  1  0.75186500  0.50000000  0.25537800  1
  O  O124  1  0.81935500  0.50000000  0.45841100  1
  O  O125  1  0.84729150  0.27710450  0.31929200  1
  O  O126  1  0.94667600  0.50000000  0.39472100  1
  O  O127  1  0.84729150  0.72289550  0.31929200  1
  O  O128  1  0.50986050  0.77728750  0.25187400  1
  O  O129  1  0.91158100  0.50000000  0.17638100  1
  O  O130  1  0.50986050  0.22271250  0.25187400  1
  O  O131  1  0.60506200  0.00000000  0.31548500  1
  O  O132  1  0.53663700  0.00000000  0.11064700  1
  O  O133  1  0.63219600  0.77900700  0.17621500  1
  O  O134  1  0.63219600  0.22099300  0.17621500  1
  O  O135  1  0.73219100  0.00000000  0.25185200  1
  O  O136  1  0.79574400  0.77422100  0.11048100  1
  O  O137  1  0.89046500  0.00000000  0.17361300  1
  O  O138  1  0.79574400  0.22577900  0.11048100  1
  O  O139  1  0.51896700  0.50000000  0.11078400  1
  O  O140  1  0.18910600  0.50000000  0.04050200  1
  O  O141  1  0.33600500  0.50000000  0.97131600  1
  O  O142  1  0.43174650  0.26343350  0.03867400  1
  O  O143  1  0.43174650  0.73656650  0.03867400  1
  O  O144  1  0.06825350  0.76343350  0.96132600  1
  O  O145  1  0.48103300  0.50000000  0.88921600  1
  O  O146  1  0.16399500  0.00000000  0.02868400  1
  O  O147  1  0.06825350  0.23656650  0.96132600  1
  O  O148  1  0.10953500  0.00000000  0.82638700  1
  O  O149  1  0.20425600  0.77422100  0.88951900  1
  O  O150  1  0.31089400  0.00000000  0.95949800  1
  O  O151  1  0.20425600  0.22577900  0.88951900  1
  O  O152  1  0.36780400  0.77900700  0.82378500  1
  O  O153  1  0.26780900  0.00000000  0.74814800  1
  O  O154  1  0.36780400  0.22099300  0.82378500  1
  O  O155  1  0.46336300  0.00000000  0.88935300  1
  O  O156  1  0.49013950  0.77728750  0.74812600  1
  O  O157  1  0.39493800  0.00000000  0.68451500  1
  O  O158  1  0.49013950  0.22271250  0.74812600  1
  O  O159  1  0.08841900  0.50000000  0.82361900  1
  O  O160  1  0.15270850  0.27710450  0.68070800  1
  O  O161  1  0.05332400  0.50000000  0.60527900  1
  O  O162  1  0.15270850  0.72289550  0.68070800  1
  O  O163  1  0.24813500  0.50000000  0.74462200  1
  O  O164  1  0.18064500  0.50000000  0.54158900  1
  O  O165  1  0.27596800  0.27707300  0.60524800  1
  O  O166  1  0.37533100  0.50000000  0.68066700  1
  O  O167  1  0.27596800  0.72292700  0.60524800  1
  O  O168  1  0.43837100  0.27705100  0.53768900  1
  O  O169  1  0.33901800  0.50000000  0.46235400  1
  O  O170  1  0.46634100  0.50000000  0.39867500  1
  O  O171  1  0.43837100  0.72294900  0.53768900  1
  O  O172  1  0.03365900  0.00000000  0.60132500  1
  O  O173  1  0.06162900  0.77705100  0.46231100  1
  O  O174  1  0.16098200  0.00000000  0.53764600  1
  O  O175  1  0.06162900  0.22294900  0.46231100  1
  O  O176  1  0.22403200  0.77707300  0.39475200  1
  O  O177  1  0.12466900  0.00000000  0.31933300  1
  O  O178  1  0.22403200  0.22292700  0.39475200  1
  O  O179  1  0.25186500  0.00000000  0.25537800  1
  O  O180  1  0.31935500  0.00000000  0.45841100  1
  O  O181  1  0.34729150  0.77710450  0.31929200  1
  O  O182  1  0.44667600  0.00000000  0.39472100  1
  O  O183  1  0.34729150  0.22289550  0.31929200  1
  O  O184  1  0.00986050  0.27728750  0.25187400  1
  O  O185  1  0.41158100  0.00000000  0.17638100  1
  O  O186  1  0.00986050  0.72271250  0.25187400  1
  O  O187  1  0.10506200  0.50000000  0.31548500  1
  O  O188  1  0.03663700  0.50000000  0.11064700  1
  O  O189  1  0.13219600  0.27900700  0.17621500  1
  O  O190  1  0.13219600  0.72099300  0.17621500  1
  O  O191  1  0.23219100  0.50000000  0.25185200  1
  O  O192  1  0.29574400  0.27422100  0.11048100  1
  O  O193  1  0.39046500  0.50000000  0.17361300  1
  O  O194  1  0.29574400  0.72577900  0.11048100  1
  O  O195  1  0.01896700  0.00000000  0.11078400  1
