# generated using pymatgen
data_K4Re2Cl10O
_symmetry_space_group_name_H-M   'P 1'
_cell_length_a   7.17435400
_cell_length_b   7.17435400
_cell_length_c   17.92728800
_cell_angle_alpha   90.00000000
_cell_angle_beta   90.00000000
_cell_angle_gamma   90.00000000
_symmetry_Int_Tables_number   1
_chemical_formula_structural   K4Re2Cl10O
_chemical_formula_sum   'K8 Re4 Cl20 O2'
_cell_volume   922.74181052
_cell_formula_units_Z   2
loop_
 _symmetry_equiv_pos_site_id
 _symmetry_equiv_pos_as_xyz
  1  'x, y, z'
loop_
 _atom_site_type_symbol
 _atom_site_label
 _atom_site_symmetry_multiplicity
 _atom_site_fract_x
 _atom_site_fract_y
 _atom_site_fract_z
 _atom_site_occupancy
  K  K0  1  0.00000000  0.50000000  0.00000000  1
  K  K1  1  0.50000000  0.00000000  0.25000000  1
  K  K2  1  0.00000000  0.50000000  0.25000000  1
  K  K3  1  0.50000000  0.00000000  0.00000000  1
  K  K4  1  0.50000000  0.00000000  0.50000000  1
  K  K5  1  0.00000000  0.50000000  0.75000000  1
  K  K6  1  0.50000000  0.00000000  0.75000000  1
  K  K7  1  0.00000000  0.50000000  0.50000000  1
  Re  Re8  1  0.00000000  0.00000000  0.10355000  1
  Re  Re9  1  0.50000000  0.50000000  0.39645000  1
  Re  Re10  1  0.50000000  0.50000000  0.60355000  1
  Re  Re11  1  0.00000000  0.00000000  0.89645000  1
  Cl  Cl12  1  0.26327250  0.73672750  0.38796050  1
  Cl  Cl13  1  0.00000000  0.00000000  0.23852200  1
  Cl  Cl14  1  0.73672750  0.26327250  0.38796050  1
  Cl  Cl15  1  0.76327250  0.76327250  0.11203950  1
  Cl  Cl16  1  0.73672750  0.73672750  0.38796050  1
  Cl  Cl17  1  0.23672750  0.76327250  0.11203950  1
  Cl  Cl18  1  0.23672750  0.23672750  0.11203950  1
  Cl  Cl19  1  0.50000000  0.50000000  0.26147800  1
  Cl  Cl20  1  0.26327250  0.26327250  0.38796050  1
  Cl  Cl21  1  0.76327250  0.23672750  0.11203950  1
  Cl  Cl22  1  0.76327250  0.23672750  0.88796050  1
  Cl  Cl23  1  0.50000000  0.50000000  0.73852200  1
  Cl  Cl24  1  0.23672750  0.76327250  0.88796050  1
  Cl  Cl25  1  0.26327250  0.26327250  0.61203950  1
  Cl  Cl26  1  0.23672750  0.23672750  0.88796050  1
  Cl  Cl27  1  0.73672750  0.26327250  0.61203950  1
  Cl  Cl28  1  0.73672750  0.73672750  0.61203950  1
  Cl  Cl29  1  0.00000000  0.00000000  0.76147800  1
  Cl  Cl30  1  0.76327250  0.76327250  0.88796050  1
  Cl  Cl31  1  0.26327250  0.73672750  0.61203950  1
  O  O32  1  0.00000000  0.00000000  0.00000000  1
  O  O33  1  0.50000000  0.50000000  0.50000000  1
