# generated using pymatgen
data_K3Sb7(SO3)3
_symmetry_space_group_name_H-M   'P 1'
_cell_length_a   14.60086182
_cell_length_b   14.60086182
_cell_length_c   5.72134600
_cell_angle_alpha   90.00000000
_cell_angle_beta   90.00000000
_cell_angle_gamma   120.00000000
_symmetry_Int_Tables_number   1
_chemical_formula_structural   K3Sb7(SO3)3
_chemical_formula_sum   'K6 Sb14 S6 O18'
_cell_volume   1056.29646479
_cell_formula_units_Z   2
loop_
 _symmetry_equiv_pos_site_id
 _symmetry_equiv_pos_as_xyz
  1  'x, y, z'
loop_
 _atom_site_type_symbol
 _atom_site_label
 _atom_site_symmetry_multiplicity
 _atom_site_fract_x
 _atom_site_fract_y
 _atom_site_fract_z
 _atom_site_occupancy
  K  K0  1  0.89666200  0.19180600  0.14007600  1
  K  K1  1  0.29514400  0.10333800  0.14007600  1
  K  K2  1  0.10333800  0.80819400  0.64007600  1
  K  K3  1  0.19180600  0.29514400  0.64007600  1
  K  K4  1  0.70485600  0.89666200  0.64007600  1
  K  K5  1  0.80819400  0.70485600  0.14007600  1
  Sb  Sb6  1  0.72008300  0.16591800  0.64629300  1
  Sb  Sb7  1  0.55416500  0.72008300  0.14629300  1
  Sb  Sb8  1  0.98540700  0.38583700  0.63581900  1
  Sb  Sb9  1  0.61416300  0.59957000  0.63581900  1
  Sb  Sb10  1  0.01459300  0.61416300  0.13581900  1
  Sb  Sb11  1  0.40043000  0.01459300  0.63581900  1
  Sb  Sb12  1  0.83408200  0.55416500  0.64629300  1
  Sb  Sb13  1  0.38583700  0.40043000  0.13581900  1
  Sb  Sb14  1  0.59957000  0.98540700  0.13581900  1
  Sb  Sb15  1  0.27991700  0.83408200  0.14629300  1
  Sb  Sb16  1  0.44583500  0.27991700  0.64629300  1
  Sb  Sb17  1  0.16591800  0.44583500  0.14629300  1
  Sb  Sb18  1  0.33333333  0.66666667  0.74612000  1
  Sb  Sb19  1  0.66666667  0.33333333  0.24612000  1
  S  S20  1  0.46226000  0.83544000  0.56944700  1
  S  S21  1  0.83544000  0.37318000  0.06944700  1
  S  S22  1  0.53774000  0.16456000  0.06944700  1
  S  S23  1  0.16456000  0.62682000  0.56944700  1
  S  S24  1  0.62682000  0.46226000  0.06944700  1
  S  S25  1  0.37318000  0.53774000  0.56944700  1
  O  O26  1  0.22732200  0.35025000  0.12722600  1
  O  O27  1  0.35780300  0.29462900  0.38965600  1
  O  O28  1  0.12292800  0.77267800  0.12722600  1
  O  O29  1  0.87707200  0.22732200  0.62722600  1
  O  O30  1  0.71285800  0.06444200  0.89047600  1
  O  O31  1  0.70537100  0.06317400  0.38965600  1
  O  O32  1  0.29462900  0.93682600  0.88965600  1
  O  O33  1  0.28714200  0.93555800  0.39047600  1
  O  O34  1  0.93555800  0.64841600  0.89047600  1
  O  O35  1  0.35158400  0.28714200  0.89047600  1
  O  O36  1  0.64975000  0.87707200  0.12722600  1
  O  O37  1  0.77267800  0.64975000  0.62722600  1
  O  O38  1  0.06317400  0.35780300  0.88965600  1
  O  O39  1  0.35025000  0.12292800  0.62722600  1
  O  O40  1  0.06444200  0.35158400  0.39047600  1
  O  O41  1  0.64219700  0.70537100  0.88965600  1
  O  O42  1  0.64841600  0.71285800  0.39047600  1
  O  O43  1  0.93682600  0.64219700  0.38965600  1
