# generated using pymatgen
data_La2CO5
_symmetry_space_group_name_H-M   'P 1'
_cell_length_a   12.28426000
_cell_length_b   7.11036200
_cell_length_c   16.53432051
_cell_angle_alpha   90.00000000
_cell_angle_beta   104.27257024
_cell_angle_gamma   90.00000000
_symmetry_Int_Tables_number   1
_chemical_formula_structural   La2CO5
_chemical_formula_sum   'La24 C12 O60'
_cell_volume   1399.62224052
_cell_formula_units_Z   12
loop_
 _symmetry_equiv_pos_site_id
 _symmetry_equiv_pos_as_xyz
  1  'x, y, z'
loop_
 _atom_site_type_symbol
 _atom_site_label
 _atom_site_symmetry_multiplicity
 _atom_site_fract_x
 _atom_site_fract_y
 _atom_site_fract_z
 _atom_site_occupancy
  La  La0  1  0.55221900  0.41115900  0.90593400  1
  La  La1  1  0.71662400  0.08235600  0.40561600  1
  La  La2  1  0.44778100  0.41115900  0.59406600  1
  La  La3  1  0.44778100  0.58884100  0.09406600  1
  La  La4  1  0.28337600  0.91764400  0.59438400  1
  La  La5  1  0.38680450  0.91800150  0.90364500  1
  La  La6  1  0.38680450  0.08199850  0.40364500  1
  La  La7  1  0.28337600  0.08235600  0.09438400  1
  La  La8  1  0.61319550  0.08199850  0.09635500  1
  La  La9  1  0.61319550  0.91800150  0.59635500  1
  La  La10  1  0.71662400  0.91764400  0.90561600  1
  La  La11  1  0.55221900  0.58884100  0.40593400  1
  La  La12  1  0.05221900  0.91115900  0.90593400  1
  La  La13  1  0.21662400  0.58235600  0.40561600  1
  La  La14  1  0.94778100  0.91115900  0.59406600  1
  La  La15  1  0.94778100  0.08884100  0.09406600  1
  La  La16  1  0.78337600  0.41764400  0.59438400  1
  La  La17  1  0.88680450  0.41800150  0.90364500  1
  La  La18  1  0.88680450  0.58199850  0.40364500  1
  La  La19  1  0.78337600  0.58235600  0.09438400  1
  La  La20  1  0.11319550  0.58199850  0.09635500  1
  La  La21  1  0.11319550  0.41800150  0.59635500  1
  La  La22  1  0.21662400  0.41764400  0.90561600  1
  La  La23  1  0.05221900  0.08884100  0.40593400  1
  C  C24  1  0.50000000  0.69055700  0.75000000  1
  C  C25  1  0.69242000  0.27723500  0.74968400  1
  C  C26  1  0.50000000  0.30944300  0.25000000  1
  C  C27  1  0.69242000  0.72276500  0.24968400  1
  C  C28  1  0.30758000  0.27723500  0.75031600  1
  C  C29  1  0.30758000  0.72276500  0.25031600  1
  C  C30  1  0.00000000  0.19055700  0.75000000  1
  C  C31  1  0.19242000  0.77723500  0.74968400  1
  C  C32  1  0.00000000  0.80944300  0.25000000  1
  C  C33  1  0.19242000  0.22276500  0.24968400  1
  C  C34  1  0.80758000  0.77723500  0.75031600  1
  C  C35  1  0.80758000  0.22276500  0.25031600  1
  O  O36  1  0.10283900  0.91836800  0.05854800  1
  O  O37  1  0.71829100  0.87263100  0.75082800  1
  O  O38  1  0.62529850  0.23092050  0.67872000  1
  O  O39  1  0.89716100  0.08163200  0.94145200  1
  O  O40  1  0.10283900  0.08163200  0.55854800  1
  O  O41  1  0.52388600  0.77843400  0.82110500  1
  O  O42  1  0.22984000  0.08351100  0.94148500  1
  O  O43  1  0.50000000  0.49091500  0.25000000  1
  O  O44  1  0.89716100  0.91836800  0.44145200  1
  O  O45  1  0.67341550  0.76850450  0.32100600  1
  O  O46  1  0.37470150  0.76907950  0.32128000  1
  O  O47  1  0.67341550  0.23149550  0.82100600  1
  O  O48  1  0.56677850  0.91719250  0.44752900  1
  O  O49  1  0.43322150  0.91719250  0.05247100  1
  O  O50  1  0.47611400  0.22156600  0.17889500  1
  O  O51  1  0.22984000  0.91648900  0.44148500  1
  O  O52  1  0.56677850  0.08280750  0.94752900  1
  O  O53  1  0.77016000  0.91648900  0.05851500  1
  O  O54  1  0.77016000  0.08351100  0.55851500  1
  O  O55  1  0.28170900  0.87263100  0.74917200  1
  O  O56  1  0.50000000  0.50908500  0.75000000  1
  O  O57  1  0.47611400  0.77843400  0.67889500  1
  O  O58  1  0.71829100  0.12736900  0.25082800  1
  O  O59  1  0.43322150  0.08280750  0.55247100  1
  O  O60  1  0.28170900  0.12736900  0.24917200  1
  O  O61  1  0.32658450  0.76850450  0.17899400  1
  O  O62  1  0.62529850  0.76907950  0.17872000  1
  O  O63  1  0.52388600  0.22156600  0.32110500  1
  O  O64  1  0.37470150  0.23092050  0.82128000  1
  O  O65  1  0.32658450  0.23149550  0.67899400  1
  O  O66  1  0.60283900  0.41836800  0.05854800  1
  O  O67  1  0.21829100  0.37263100  0.75082800  1
  O  O68  1  0.12529850  0.73092050  0.67872000  1
  O  O69  1  0.39716100  0.58163200  0.94145200  1
  O  O70  1  0.60283900  0.58163200  0.55854800  1
  O  O71  1  0.02388600  0.27843400  0.82110500  1
  O  O72  1  0.72984000  0.58351100  0.94148500  1
  O  O73  1  0.00000000  0.99091500  0.25000000  1
  O  O74  1  0.39716100  0.41836800  0.44145200  1
  O  O75  1  0.17341550  0.26850450  0.32100600  1
  O  O76  1  0.87470150  0.26907950  0.32128000  1
  O  O77  1  0.17341550  0.73149550  0.82100600  1
  O  O78  1  0.06677850  0.41719250  0.44752900  1
  O  O79  1  0.93322150  0.41719250  0.05247100  1
  O  O80  1  0.97611400  0.72156600  0.17889500  1
  O  O81  1  0.72984000  0.41648900  0.44148500  1
  O  O82  1  0.06677850  0.58280750  0.94752900  1
  O  O83  1  0.27016000  0.41648900  0.05851500  1
  O  O84  1  0.27016000  0.58351100  0.55851500  1
  O  O85  1  0.78170900  0.37263100  0.74917200  1
  O  O86  1  0.00000000  0.00908500  0.75000000  1
  O  O87  1  0.97611400  0.27843400  0.67889500  1
  O  O88  1  0.21829100  0.62736900  0.25082800  1
  O  O89  1  0.93322150  0.58280750  0.55247100  1
  O  O90  1  0.78170900  0.62736900  0.24917200  1
  O  O91  1  0.82658450  0.26850450  0.17899400  1
  O  O92  1  0.12529850  0.26907950  0.17872000  1
  O  O93  1  0.02388600  0.72156600  0.32110500  1
  O  O94  1  0.87470150  0.73092050  0.82128000  1
  O  O95  1  0.82658450  0.73149550  0.67899400  1
