# generated using pymatgen
data_K2LiInAs2
_symmetry_space_group_name_H-M   'P 1'
_cell_length_a   13.02282800
_cell_length_b   15.79785200
_cell_length_c   6.45444500
_cell_angle_alpha   90.00000000
_cell_angle_beta   90.00000000
_cell_angle_gamma   90.00000000
_symmetry_Int_Tables_number   1
_chemical_formula_structural   K2LiInAs2
_chemical_formula_sum   'K16 Li8 In8 As16'
_cell_volume   1327.89045730
_cell_formula_units_Z   8
loop_
 _symmetry_equiv_pos_site_id
 _symmetry_equiv_pos_as_xyz
  1  'x, y, z'
loop_
 _atom_site_type_symbol
 _atom_site_label
 _atom_site_symmetry_multiplicity
 _atom_site_fract_x
 _atom_site_fract_y
 _atom_site_fract_z
 _atom_site_occupancy
  K  K0  1  0.75000000  0.17629900  0.75000000  1
  K  K1  1  0.75000000  0.82370100  0.25000000  1
  K  K2  1  0.25000000  0.82370100  0.25000000  1
  K  K3  1  0.25000000  0.17629900  0.75000000  1
  K  K4  1  0.50000000  0.82673100  0.77569300  1
  K  K5  1  0.50000000  0.67326900  0.27569300  1
  K  K6  1  0.50000000  0.17326900  0.22430700  1
  K  K7  1  0.50000000  0.32673100  0.72430700  1
  K  K8  1  0.25000000  0.67629900  0.75000000  1
  K  K9  1  0.25000000  0.32370100  0.25000000  1
  K  K10  1  0.75000000  0.32370100  0.25000000  1
  K  K11  1  0.75000000  0.67629900  0.75000000  1
  K  K12  1  0.00000000  0.32673100  0.77569300  1
  K  K13  1  0.00000000  0.17326900  0.27569300  1
  K  K14  1  0.00000000  0.67326900  0.22430700  1
  K  K15  1  0.00000000  0.82673100  0.72430700  1
  Li  Li16  1  0.62034100  0.00000000  0.00000000  1
  Li  Li17  1  0.87965900  0.00000000  0.50000000  1
  Li  Li18  1  0.37965900  0.00000000  0.00000000  1
  Li  Li19  1  0.12034100  0.00000000  0.50000000  1
  Li  Li20  1  0.12034100  0.50000000  0.00000000  1
  Li  Li21  1  0.37965900  0.50000000  0.50000000  1
  Li  Li22  1  0.87965900  0.50000000  0.00000000  1
  Li  Li23  1  0.62034100  0.50000000  0.50000000  1
  In  In24  1  0.86847300  0.00000000  0.00000000  1
  In  In25  1  0.63152700  0.00000000  0.50000000  1
  In  In26  1  0.13152700  0.00000000  0.00000000  1
  In  In27  1  0.36847300  0.00000000  0.50000000  1
  In  In28  1  0.36847300  0.50000000  0.00000000  1
  In  In29  1  0.13152700  0.50000000  0.50000000  1
  In  In30  1  0.63152700  0.50000000  0.00000000  1
  In  In31  1  0.86847300  0.50000000  0.50000000  1
  As  As32  1  0.25000000  0.89909100  0.75000000  1
  As  As33  1  0.25000000  0.10090900  0.25000000  1
  As  As34  1  0.75000000  0.10090900  0.25000000  1
  As  As35  1  0.75000000  0.89909100  0.75000000  1
  As  As36  1  0.50000000  0.59800700  0.76928900  1
  As  As37  1  0.50000000  0.90199300  0.26928900  1
  As  As38  1  0.50000000  0.40199300  0.23071100  1
  As  As39  1  0.50000000  0.09800700  0.73071100  1
  As  As40  1  0.75000000  0.39909100  0.75000000  1
  As  As41  1  0.75000000  0.60090900  0.25000000  1
  As  As42  1  0.25000000  0.60090900  0.25000000  1
  As  As43  1  0.25000000  0.39909100  0.75000000  1
  As  As44  1  0.00000000  0.09800700  0.76928900  1
  As  As45  1  0.00000000  0.40199300  0.26928900  1
  As  As46  1  0.00000000  0.90199300  0.23071100  1
  As  As47  1  0.00000000  0.59800700  0.73071100  1
