# generated using pymatgen
data_La2CO5
_symmetry_space_group_name_H-M   'P 1'
_cell_length_a   7.10563400
_cell_length_b   12.30085000
_cell_length_c   32.04561900
_cell_angle_alpha   90.00000000
_cell_angle_beta   90.00000000
_cell_angle_gamma   90.00000000
_symmetry_Int_Tables_number   1
_chemical_formula_structural   La2CO5
_chemical_formula_sum   'La48 C24 O120'
_cell_volume   2800.95815976
_cell_formula_units_Z   24
loop_
 _symmetry_equiv_pos_site_id
 _symmetry_equiv_pos_as_xyz
  1  'x, y, z'
loop_
 _atom_site_type_symbol
 _atom_site_label
 _atom_site_symmetry_multiplicity
 _atom_site_fract_x
 _atom_site_fract_y
 _atom_site_fract_z
 _atom_site_occupancy
  La  La0  1  0.82372100  0.16259700  0.42174200  1
  La  La1  1  0.66353800  0.99586700  0.32692900  1
  La  La2  1  0.65650450  0.66806550  0.67219100  1
  La  La3  1  0.66353800  0.00413300  0.67307100  1
  La  La4  1  0.33112550  0.99888350  0.07799000  1
  La  La5  1  0.82372100  0.83740300  0.92174200  1
  La  La6  1  0.82552450  0.16649350  0.57640500  1
  La  La7  1  0.33112550  0.00111650  0.57799000  1
  La  La8  1  0.33112550  0.99888350  0.42201000  1
  La  La9  1  0.82552450  0.16649350  0.92359500  1
  La  La10  1  0.82552450  0.83350650  0.42359500  1
  La  La11  1  0.66353800  0.99586700  0.17307100  1
  La  La12  1  0.66279200  0.33246600  0.67213000  1
  La  La13  1  0.66353800  0.00413300  0.82692900  1
  La  La14  1  0.82372100  0.16259700  0.07825800  1
  La  La15  1  0.82372100  0.83740300  0.57825800  1
  La  La16  1  0.82552450  0.83350650  0.07640500  1
  La  La17  1  0.65650450  0.66806550  0.82780900  1
  La  La18  1  0.66279200  0.33246600  0.82787000  1
  La  La19  1  0.65650450  0.33193450  0.32780900  1
  La  La20  1  0.66279200  0.66753400  0.17213000  1
  La  La21  1  0.65650450  0.33193450  0.17219100  1
  La  La22  1  0.33112550  0.00111650  0.92201000  1
  La  La23  1  0.66279200  0.66753400  0.32787000  1
  La  La24  1  0.32372100  0.66259700  0.42174200  1
  La  La25  1  0.16353800  0.49586700  0.32692900  1
  La  La26  1  0.15650450  0.16806550  0.67219100  1
  La  La27  1  0.16353800  0.50413300  0.67307100  1
  La  La28  1  0.83112550  0.49888350  0.07799000  1
  La  La29  1  0.32372100  0.33740300  0.92174200  1
  La  La30  1  0.32552450  0.66649350  0.57640500  1
  La  La31  1  0.83112550  0.50111650  0.57799000  1
  La  La32  1  0.83112550  0.49888350  0.42201000  1
  La  La33  1  0.32552450  0.66649350  0.92359500  1
  La  La34  1  0.32552450  0.33350650  0.42359500  1
  La  La35  1  0.16353800  0.49586700  0.17307100  1
  La  La36  1  0.16279200  0.83246600  0.67213000  1
  La  La37  1  0.16353800  0.50413300  0.82692900  1
  La  La38  1  0.32372100  0.66259700  0.07825800  1
  La  La39  1  0.32372100  0.33740300  0.57825800  1
  La  La40  1  0.32552450  0.33350650  0.07640500  1
  La  La41  1  0.15650450  0.16806550  0.82780900  1
  La  La42  1  0.16279200  0.83246600  0.82787000  1
  La  La43  1  0.15650450  0.83193450  0.32780900  1
  La  La44  1  0.16279200  0.16753400  0.17213000  1
  La  La45  1  0.15650450  0.83193450  0.17219100  1
  La  La46  1  0.83112550  0.50111650  0.92201000  1
  La  La47  1  0.16279200  0.16753400  0.32787000  1
  C  C48  1  0.52023250  0.86075650  0.75000000  1
  C  C49  1  0.04684800  0.00000000  0.00000000  1
  C  C50  1  0.52023250  0.13924350  0.25000000  1
  C  C51  1  0.46637700  0.80913800  0.50020300  1
  C  C52  1  0.44257850  0.83191350  0.25000000  1
  C  C53  1  0.51938950  0.47462350  0.75000000  1
  C  C54  1  0.51938950  0.52537650  0.25000000  1
  C  C55  1  0.44257850  0.16808650  0.75000000  1
  C  C56  1  0.46637700  0.19086200  0.00020300  1
  C  C57  1  0.04684800  0.00000000  0.50000000  1
  C  C58  1  0.46637700  0.80913800  0.99979700  1
  C  C59  1  0.46637700  0.19086200  0.49979700  1
  C  C60  1  0.02023250  0.36075650  0.75000000  1
  C  C61  1  0.54684800  0.50000000  0.00000000  1
  C  C62  1  0.02023250  0.63924350  0.25000000  1
  C  C63  1  0.96637700  0.30913800  0.50020300  1
  C  C64  1  0.94257850  0.33191350  0.25000000  1
  C  C65  1  0.01938950  0.97462350  0.75000000  1
  C  C66  1  0.01938950  0.02537650  0.25000000  1
  C  C67  1  0.94257850  0.66808650  0.75000000  1
  C  C68  1  0.96637700  0.69086200  0.00020300  1
  C  C69  1  0.54684800  0.50000000  0.50000000  1
  C  C70  1  0.96637700  0.30913800  0.99979700  1
  C  C71  1  0.96637700  0.69086200  0.49979700  1
  O  O72  1  0.82766350  0.16596050  0.15458200  1
  O  O73  1  0.53076050  0.16762550  0.78553400  1
  O  O74  1  0.66349500  0.33229700  0.40435000  1
  O  O75  1  0.65780650  0.33494750  0.90436500  1
  O  O76  1  0.61298050  0.04890450  0.25000000  1
  O  O77  1  0.37210350  0.71949150  0.49851500  1
  O  O78  1  0.26105150  0.16869050  0.75000000  1
  O  O79  1  0.65974900  0.00068600  0.90098500  1
  O  O80  1  0.50732200  0.15119800  0.46323500  1
  O  O81  1  0.65974900  0.00068600  0.59901500  1
  O  O82  1  0.47538600  0.81726300  0.71445000  1
  O  O83  1  0.82766350  0.83403950  0.65458200  1
  O  O84  1  0.32553300  0.00114500  0.65436300  1
  O  O85  1  0.51677950  0.14388850  0.96578000  1
  O  O86  1  0.50732200  0.15119800  0.03676500  1
  O  O87  1  0.65780650  0.33494750  0.59563500  1
  O  O88  1  0.37210350  0.71949150  0.00148500  1
  O  O89  1  0.82766350  0.83403950  0.84541800  1
  O  O90  1  0.51677950  0.14388850  0.53422000  1
  O  O91  1  0.53076050  0.83237450  0.28553400  1
  O  O92  1  0.82766350  0.16596050  0.34541800  1
  O  O93  1  0.95860300  0.00111200  0.96447600  1
  O  O94  1  0.50732200  0.84880200  0.53676500  1
  O  O95  1  0.32553300  0.99885500  0.34563700  1
  O  O96  1  0.95860300  0.99888800  0.46447600  1
  O  O97  1  0.37210350  0.28050850  0.99851500  1
  O  O98  1  0.82914200  0.83066700  0.15080200  1
  O  O99  1  0.60540800  0.38226600  0.75000000  1
  O  O100  1  0.51677950  0.85611150  0.03422000  1
  O  O101  1  0.66349500  0.66770300  0.90435000  1
  O  O102  1  0.50732200  0.84880200  0.96323500  1
  O  O103  1  0.82914200  0.16933300  0.65080200  1
  O  O104  1  0.65974900  0.99931400  0.40098500  1
  O  O105  1  0.47538600  0.18273700  0.21445000  1
  O  O106  1  0.65780650  0.66505250  0.40436500  1
  O  O107  1  0.97764500  0.98052100  0.21446400  1
  O  O108  1  0.60540800  0.61773400  0.25000000  1
  O  O109  1  0.32553300  0.00114500  0.84563700  1
  O  O110  1  0.37210350  0.28050850  0.50148500  1
  O  O111  1  0.97764500  0.98052100  0.28553600  1
  O  O112  1  0.65780650  0.66505250  0.09563500  1
  O  O113  1  0.47538600  0.18273700  0.28555000  1
  O  O114  1  0.66349500  0.66770300  0.59565000  1
  O  O115  1  0.65974900  0.99931400  0.09901500  1
  O  O116  1  0.95860300  0.00111200  0.53552400  1
  O  O117  1  0.22836700  0.00000000  0.50000000  1
  O  O118  1  0.51677950  0.85611150  0.46578000  1
  O  O119  1  0.53076050  0.16762550  0.71446600  1
  O  O120  1  0.26105150  0.83130950  0.25000000  1
  O  O121  1  0.61298050  0.95109550  0.75000000  1
  O  O122  1  0.97764500  0.01947900  0.78553600  1
  O  O123  1  0.82914200  0.83066700  0.34919800  1
  O  O124  1  0.95860300  0.99888800  0.03552400  1
  O  O125  1  0.32553300  0.99885500  0.15436300  1
  O  O126  1  0.53076050  0.83237450  0.21446600  1
  O  O127  1  0.82914200  0.16933300  0.84919800  1
  O  O128  1  0.47538600  0.81726300  0.78555000  1
  O  O129  1  0.22836700  0.00000000  0.00000000  1
  O  O130  1  0.97764500  0.01947900  0.71446400  1
  O  O131  1  0.66349500  0.33229700  0.09565000  1
  O  O132  1  0.32766350  0.66596050  0.15458200  1
  O  O133  1  0.03076050  0.66762550  0.78553400  1
  O  O134  1  0.16349500  0.83229700  0.40435000  1
  O  O135  1  0.15780650  0.83494750  0.90436500  1
  O  O136  1  0.11298050  0.54890450  0.25000000  1
  O  O137  1  0.87210350  0.21949150  0.49851500  1
  O  O138  1  0.76105150  0.66869050  0.75000000  1
  O  O139  1  0.15974900  0.50068600  0.90098500  1
  O  O140  1  0.00732200  0.65119800  0.46323500  1
  O  O141  1  0.15974900  0.50068600  0.59901500  1
  O  O142  1  0.97538600  0.31726300  0.71445000  1
  O  O143  1  0.32766350  0.33403950  0.65458200  1
  O  O144  1  0.82553300  0.50114500  0.65436300  1
  O  O145  1  0.01677950  0.64388850  0.96578000  1
  O  O146  1  0.00732200  0.65119800  0.03676500  1
  O  O147  1  0.15780650  0.83494750  0.59563500  1
  O  O148  1  0.87210350  0.21949150  0.00148500  1
  O  O149  1  0.32766350  0.33403950  0.84541800  1
  O  O150  1  0.01677950  0.64388850  0.53422000  1
  O  O151  1  0.03076050  0.33237450  0.28553400  1
  O  O152  1  0.32766350  0.66596050  0.34541800  1
  O  O153  1  0.45860300  0.50111200  0.96447600  1
  O  O154  1  0.00732200  0.34880200  0.53676500  1
  O  O155  1  0.82553300  0.49885500  0.34563700  1
  O  O156  1  0.45860300  0.49888800  0.46447600  1
  O  O157  1  0.87210350  0.78050850  0.99851500  1
  O  O158  1  0.32914200  0.33066700  0.15080200  1
  O  O159  1  0.10540800  0.88226600  0.75000000  1
  O  O160  1  0.01677950  0.35611150  0.03422000  1
  O  O161  1  0.16349500  0.16770300  0.90435000  1
  O  O162  1  0.00732200  0.34880200  0.96323500  1
  O  O163  1  0.32914200  0.66933300  0.65080200  1
  O  O164  1  0.15974900  0.49931400  0.40098500  1
  O  O165  1  0.97538600  0.68273700  0.21445000  1
  O  O166  1  0.15780650  0.16505250  0.40436500  1
  O  O167  1  0.47764500  0.48052100  0.21446400  1
  O  O168  1  0.10540800  0.11773400  0.25000000  1
  O  O169  1  0.82553300  0.50114500  0.84563700  1
  O  O170  1  0.87210350  0.78050850  0.50148500  1
  O  O171  1  0.47764500  0.48052100  0.28553600  1
  O  O172  1  0.15780650  0.16505250  0.09563500  1
  O  O173  1  0.97538600  0.68273700  0.28555000  1
  O  O174  1  0.16349500  0.16770300  0.59565000  1
  O  O175  1  0.15974900  0.49931400  0.09901500  1
  O  O176  1  0.45860300  0.50111200  0.53552400  1
  O  O177  1  0.72836700  0.50000000  0.50000000  1
  O  O178  1  0.01677950  0.35611150  0.46578000  1
  O  O179  1  0.03076050  0.66762550  0.71446600  1
  O  O180  1  0.76105150  0.33130950  0.25000000  1
  O  O181  1  0.11298050  0.45109550  0.75000000  1
  O  O182  1  0.47764500  0.51947900  0.78553600  1
  O  O183  1  0.32914200  0.33066700  0.34919800  1
  O  O184  1  0.45860300  0.49888800  0.03552400  1
  O  O185  1  0.82553300  0.49885500  0.15436300  1
  O  O186  1  0.03076050  0.33237450  0.21446600  1
  O  O187  1  0.32914200  0.66933300  0.84919800  1
  O  O188  1  0.97538600  0.31726300  0.78555000  1
  O  O189  1  0.72836700  0.50000000  0.00000000  1
  O  O190  1  0.47764500  0.51947900  0.71446400  1
  O  O191  1  0.16349500  0.83229700  0.09565000  1
