# generated using pymatgen
data_Zn3(BO3)2
_symmetry_space_group_name_H-M   'P 1'
_cell_length_a   24.54669200
_cell_length_b   5.08419600
_cell_length_c   8.48526126
_cell_angle_alpha   90.00000000
_cell_angle_beta   103.47283628
_cell_angle_gamma   90.00000000
_symmetry_Int_Tables_number   1
_chemical_formula_structural   Zn3(BO3)2
_chemical_formula_sum   'Zn24 B16 O48'
_cell_volume   1029.82011970
_cell_formula_units_Z   8
loop_
 _symmetry_equiv_pos_site_id
 _symmetry_equiv_pos_as_xyz
  1  'x, y, z'
loop_
 _atom_site_type_symbol
 _atom_site_label
 _atom_site_symmetry_multiplicity
 _atom_site_fract_x
 _atom_site_fract_y
 _atom_site_fract_z
 _atom_site_occupancy
  Zn  Zn0  1  0.37222750  0.81706750  0.37060200  1
  Zn  Zn1  1  0.12606050  0.68321550  0.13033700  1
  Zn  Zn2  1  0.28973600  0.19091500  0.53803300  1
  Zn  Zn3  1  0.44992950  0.32225450  0.57579200  1
  Zn  Zn4  1  0.28973600  0.80908500  0.03803300  1
  Zn  Zn5  1  0.20850250  0.30828250  0.96226300  1
  Zn  Zn6  1  0.12606050  0.31678450  0.63033700  1
  Zn  Zn7  1  0.44992950  0.67774550  0.07579200  1
  Zn  Zn8  1  0.20850250  0.69171750  0.46226300  1
  Zn  Zn9  1  0.37222750  0.18293250  0.87060200  1
  Zn  Zn10  1  0.04756850  0.82761150  0.42534700  1
  Zn  Zn11  1  0.04756850  0.17238850  0.92534700  1
  Zn  Zn12  1  0.87222750  0.31706750  0.37060200  1
  Zn  Zn13  1  0.62606050  0.18321550  0.13033700  1
  Zn  Zn14  1  0.78973600  0.69091500  0.53803300  1
  Zn  Zn15  1  0.94992950  0.82225450  0.57579200  1
  Zn  Zn16  1  0.78973600  0.30908500  0.03803300  1
  Zn  Zn17  1  0.70850250  0.80828250  0.96226300  1
  Zn  Zn18  1  0.62606050  0.81678450  0.63033700  1
  Zn  Zn19  1  0.94992950  0.17774550  0.07579200  1
  Zn  Zn20  1  0.70850250  0.19171750  0.46226300  1
  Zn  Zn21  1  0.87222750  0.68293250  0.87060200  1
  Zn  Zn22  1  0.54756850  0.32761150  0.42534700  1
  Zn  Zn23  1  0.54756850  0.67238850  0.92534700  1
  B  B24  1  0.06410500  0.67199700  0.78823700  1
  B  B25  1  0.31183300  0.68490200  0.73015400  1
  B  B26  1  0.18655450  0.18614350  0.27030100  1
  B  B27  1  0.43349800  0.82051700  0.71317400  1
  B  B28  1  0.43349800  0.17948300  0.21317400  1
  B  B29  1  0.31183300  0.31509800  0.23015400  1
  B  B30  1  0.18655450  0.81385650  0.77030100  1
  B  B31  1  0.06410500  0.32800300  0.28823700  1
  B  B32  1  0.56410500  0.17199700  0.78823700  1
  B  B33  1  0.81183300  0.18490200  0.73015400  1
  B  B34  1  0.68655450  0.68614350  0.27030100  1
  B  B35  1  0.93349800  0.32051700  0.71317400  1
  B  B36  1  0.93349800  0.67948300  0.21317400  1
  B  B37  1  0.81183300  0.81509800  0.23015400  1
  B  B38  1  0.68655450  0.31385650  0.77030100  1
  B  B39  1  0.56410500  0.82800300  0.28823700  1
  O  O40  1  0.08043900  0.58990300  0.29181600  1
  O  O41  1  0.07836800  0.18472500  0.43088700  1
  O  O42  1  0.16285500  0.32639600  0.13009500  1
  O  O43  1  0.41809050  0.08361950  0.71096900  1
  O  O44  1  0.28333250  0.18647150  0.09070700  1
  O  O45  1  0.03488350  0.20611850  0.14931100  1
  O  O46  1  0.03488350  0.79388150  0.64931100  1
  O  O47  1  0.18269550  0.08574750  0.77061400  1
  O  O48  1  0.33555300  0.17488600  0.37058200  1
  O  O49  1  0.21501300  0.68575000  0.90991500  1
  O  O50  1  0.33555300  0.82511400  0.87058200  1
  O  O51  1  0.08043900  0.41009700  0.79181600  1
  O  O52  1  0.07836800  0.81527500  0.93088700  1
  O  O53  1  0.41809050  0.91638050  0.21096900  1
  O  O54  1  0.31567750  0.41313850  0.72963400  1
  O  O55  1  0.16285500  0.67360400  0.63009500  1
  O  O56  1  0.41841750  0.32146250  0.07039600  1
  O  O57  1  0.46263050  0.69564550  0.85108500  1
  O  O58  1  0.31567750  0.58686150  0.22963400  1
  O  O59  1  0.18269550  0.91425250  0.27061400  1
  O  O60  1  0.46263050  0.30435450  0.35108500  1
  O  O61  1  0.28333250  0.81352850  0.59070700  1
  O  O62  1  0.21501300  0.31425000  0.40991500  1
  O  O63  1  0.41841750  0.67853750  0.57039600  1
  O  O64  1  0.58043900  0.08990300  0.29181600  1
  O  O65  1  0.57836800  0.68472500  0.43088700  1
  O  O66  1  0.66285500  0.82639600  0.13009500  1
  O  O67  1  0.91809050  0.58361950  0.71096900  1
  O  O68  1  0.78333250  0.68647150  0.09070700  1
  O  O69  1  0.53488350  0.70611850  0.14931100  1
  O  O70  1  0.53488350  0.29388150  0.64931100  1
  O  O71  1  0.68269550  0.58574750  0.77061400  1
  O  O72  1  0.83555300  0.67488600  0.37058200  1
  O  O73  1  0.71501300  0.18575000  0.90991500  1
  O  O74  1  0.83555300  0.32511400  0.87058200  1
  O  O75  1  0.58043900  0.91009700  0.79181600  1
  O  O76  1  0.57836800  0.31527500  0.93088700  1
  O  O77  1  0.91809050  0.41638050  0.21096900  1
  O  O78  1  0.81567750  0.91313850  0.72963400  1
  O  O79  1  0.66285500  0.17360400  0.63009500  1
  O  O80  1  0.91841750  0.82146250  0.07039600  1
  O  O81  1  0.96263050  0.19564550  0.85108500  1
  O  O82  1  0.81567750  0.08686150  0.22963400  1
  O  O83  1  0.68269550  0.41425250  0.27061400  1
  O  O84  1  0.96263050  0.80435450  0.35108500  1
  O  O85  1  0.78333250  0.31352850  0.59070700  1
  O  O86  1  0.71501300  0.81425000  0.40991500  1
  O  O87  1  0.91841750  0.17853750  0.57039600  1
