# generated using pymatgen
data_La10Se14O
_symmetry_space_group_name_H-M   'P 1'
_cell_length_a   15.99785200
_cell_length_b   15.99785200
_cell_length_c   21.18481000
_cell_angle_alpha   90.00000000
_cell_angle_beta   90.00000000
_cell_angle_gamma   90.00000000
_symmetry_Int_Tables_number   1
_chemical_formula_structural   La10Se14O
_chemical_formula_sum   'La80 Se112 O8'
_cell_volume   5421.85529864
_cell_formula_units_Z   8
loop_
 _symmetry_equiv_pos_site_id
 _symmetry_equiv_pos_as_xyz
  1  'x, y, z'
loop_
 _atom_site_type_symbol
 _atom_site_label
 _atom_site_symmetry_multiplicity
 _atom_site_fract_x
 _atom_site_fract_y
 _atom_site_fract_z
 _atom_site_occupancy
  La  La0  1  0.36651700  0.36651700  0.75000000  1
  La  La1  1  0.87026750  0.22313050  0.17216750  1
  La  La2  1  0.86651700  0.13348300  0.75000000  1
  La  La3  1  0.87026750  0.27686950  0.57783250  1
  La  La4  1  0.49541100  0.87092000  0.31543400  1
  La  La5  1  0.12908000  0.00458900  0.06543400  1
  La  La6  1  0.87092000  0.99541100  0.06543400  1
  La  La7  1  0.12973250  0.22313050  0.67216750  1
  La  La8  1  0.27686950  0.62973250  0.82783250  1
  La  La9  1  0.62973250  0.22313050  0.07783250  1
  La  La10  1  0.49541100  0.62908000  0.43456600  1
  La  La11  1  0.37026750  0.22313050  0.57783250  1
  La  La12  1  0.13348300  0.13348300  0.25000000  1
  La  La13  1  0.27686950  0.37026750  0.32783250  1
  La  La14  1  0.49541100  0.37092000  0.93456600  1
  La  La15  1  0.37092000  0.00458900  0.18456600  1
  La  La16  1  0.77686950  0.37026750  0.42216750  1
  La  La17  1  0.50458900  0.12908000  0.31543400  1
  La  La18  1  0.12908000  0.50458900  0.18456600  1
  La  La19  1  0.62908000  0.99541100  0.18456600  1
  La  La20  1  0.12973250  0.77686950  0.17216750  1
  La  La21  1  0.87092000  0.49541100  0.18456600  1
  La  La22  1  0.00458900  0.37092000  0.31543400  1
  La  La23  1  0.37092000  0.50458900  0.06543400  1
  La  La24  1  0.27686950  0.12973250  0.42216750  1
  La  La25  1  0.99541100  0.62908000  0.31543400  1
  La  La26  1  0.13348300  0.63348300  0.00000000  1
  La  La27  1  0.22313050  0.87026750  0.32783250  1
  La  La28  1  0.72313050  0.12973250  0.92216750  1
  La  La29  1  0.37026750  0.27686950  0.17216750  1
  La  La30  1  0.00458900  0.12908000  0.43456600  1
  La  La31  1  0.72313050  0.62973250  0.32783250  1
  La  La32  1  0.36651700  0.86651700  0.50000000  1
  La  La33  1  0.12973250  0.27686950  0.07783250  1
  La  La34  1  0.36651700  0.13348300  0.00000000  1
  La  La35  1  0.50458900  0.37092000  0.43456600  1
  La  La36  1  0.22313050  0.37026750  0.92216750  1
  La  La37  1  0.13348300  0.86651700  0.75000000  1
  La  La38  1  0.12908000  0.99541100  0.56543400  1
  La  La39  1  0.13348300  0.36651700  0.50000000  1
  La  La40  1  0.86651700  0.86651700  0.25000000  1
  La  La41  1  0.37026750  0.72313050  0.67216750  1
  La  La42  1  0.36651700  0.63348300  0.25000000  1
  La  La43  1  0.37026750  0.77686950  0.07783250  1
  La  La44  1  0.99541100  0.37092000  0.81543400  1
  La  La45  1  0.62908000  0.50458900  0.56543400  1
  La  La46  1  0.37092000  0.49541100  0.56543400  1
  La  La47  1  0.62973250  0.72313050  0.17216750  1
  La  La48  1  0.77686950  0.12973250  0.32783250  1
  La  La49  1  0.12973250  0.72313050  0.57783250  1
  La  La50  1  0.99541100  0.12908000  0.93456600  1
  La  La51  1  0.87026750  0.72313050  0.07783250  1
  La  La52  1  0.63348300  0.63348300  0.75000000  1
  La  La53  1  0.77686950  0.87026750  0.82783250  1
  La  La54  1  0.99541100  0.87092000  0.43456600  1
  La  La55  1  0.87092000  0.50458900  0.68456600  1
  La  La56  1  0.27686950  0.87026750  0.92216750  1
  La  La57  1  0.00458900  0.62908000  0.81543400  1
  La  La58  1  0.62908000  0.00458900  0.68456600  1
  La  La59  1  0.12908000  0.49541100  0.68456600  1
  La  La60  1  0.62973250  0.27686950  0.67216750  1
  La  La61  1  0.37092000  0.99541100  0.68456600  1
  La  La62  1  0.50458900  0.87092000  0.81543400  1
  La  La63  1  0.87092000  0.00458900  0.56543400  1
  La  La64  1  0.77686950  0.62973250  0.92216750  1
  La  La65  1  0.49541100  0.12908000  0.81543400  1
  La  La66  1  0.63348300  0.13348300  0.50000000  1
  La  La67  1  0.72313050  0.37026750  0.82783250  1
  La  La68  1  0.22313050  0.62973250  0.42216750  1
  La  La69  1  0.87026750  0.77686950  0.67216750  1
  La  La70  1  0.50458900  0.62908000  0.93456600  1
  La  La71  1  0.22313050  0.12973250  0.82783250  1
  La  La72  1  0.86651700  0.36651700  0.00000000  1
  La  La73  1  0.62973250  0.77686950  0.57783250  1
  La  La74  1  0.86651700  0.63348300  0.50000000  1
  La  La75  1  0.00458900  0.87092000  0.93456600  1
  La  La76  1  0.72313050  0.87026750  0.42216750  1
  La  La77  1  0.63348300  0.36651700  0.25000000  1
  La  La78  1  0.62908000  0.49541100  0.06543400  1
  La  La79  1  0.63348300  0.86651700  0.00000000  1
  Se  Se80  1  0.36851550  0.52237850  0.37330550  1
  Se  Se81  1  0.32075000  0.46113200  0.20310100  1
  Se  Se82  1  0.17920800  0.84253700  0.46770500  1
  Se  Se83  1  0.02237850  0.63148450  0.12330550  1
  Se  Se84  1  0.35498700  0.75000000  0.37500000  1
  Se  Se85  1  0.13148450  0.02237850  0.37330550  1
  Se  Se86  1  0.32079200  0.65746300  0.96770500  1
  Se  Se87  1  0.82079200  0.34253700  0.28229500  1
  Se  Se88  1  0.36851550  0.47762150  0.87330550  1
  Se  Se89  1  0.25000000  0.35498700  0.62500000  1
  Se  Se90  1  0.25000000  0.14501300  0.12500000  1
  Se  Se91  1  0.32075000  0.53886800  0.70310100  1
  Se  Se92  1  0.17925000  0.46113200  0.04689900  1
  Se  Se93  1  0.25000000  0.85498700  0.62500000  1
  Se  Se94  1  0.34253700  0.67920800  0.53229500  1
  Se  Se95  1  0.34253700  0.32079200  0.03229500  1
  Se  Se96  1  0.97762150  0.36851550  0.12330550  1
  Se  Se97  1  0.46113200  0.32075000  0.29689900  1
  Se  Se98  1  0.17925000  0.96113200  0.20310100  1
  Se  Se99  1  0.14501300  0.25000000  0.37500000  1
  Se  Se100  1  0.52237850  0.36851550  0.12669450  1
  Se  Se101  1  0.02237850  0.13148450  0.12669450  1
  Se  Se102  1  0.03886800  0.17925000  0.79689900  1
  Se  Se103  1  0.86851550  0.52237850  0.37669450  1
  Se  Se104  1  0.46113200  0.17925000  0.45310100  1
  Se  Se105  1  0.32075000  0.96113200  0.04689900  1
  Se  Se106  1  0.53886800  0.17925000  0.95310100  1
  Se  Se107  1  0.97762150  0.13148450  0.62669450  1
  Se  Se108  1  0.53886800  0.32075000  0.79689900  1
  Se  Se109  1  0.17920800  0.15746300  0.96770500  1
  Se  Se110  1  0.14501300  0.75000000  0.87500000  1
  Se  Se111  1  0.96113200  0.32075000  0.45310100  1
  Se  Se112  1  0.84253700  0.67920800  0.21770500  1
  Se  Se113  1  0.32079200  0.34253700  0.46770500  1
  Se  Se114  1  0.32079200  0.15746300  0.28229500  1
  Se  Se115  1  0.47762150  0.13148450  0.12330550  1
  Se  Se116  1  0.15746300  0.32079200  0.21770500  1
  Se  Se117  1  0.25000000  0.64501300  0.12500000  1
  Se  Se118  1  0.63148450  0.47762150  0.37330550  1
  Se  Se119  1  0.34253700  0.82079200  0.21770500  1
  Se  Se120  1  0.13148450  0.52237850  0.87669450  1
  Se  Se121  1  0.65746300  0.17920800  0.21770500  1
  Se  Se122  1  0.02237850  0.36851550  0.62330550  1
  Se  Se123  1  0.53886800  0.82075000  0.45310100  1
  Se  Se124  1  0.17920800  0.65746300  0.28229500  1
  Se  Se125  1  0.67920800  0.84253700  0.28229500  1
  Se  Se126  1  0.97762150  0.86851550  0.12669450  1
  Se  Se127  1  0.15746300  0.17920800  0.53229500  1
  Se  Se128  1  0.96113200  0.17925000  0.29689900  1
  Se  Se129  1  0.17925000  0.03886800  0.70310100  1
  Se  Se130  1  0.32075000  0.03886800  0.54689900  1
  Se  Se131  1  0.35498700  0.25000000  0.87500000  1
  Se  Se132  1  0.67925000  0.03886800  0.04689900  1
  Se  Se133  1  0.15746300  0.82079200  0.03229500  1
  Se  Se134  1  0.13148450  0.47762150  0.37669450  1
  Se  Se135  1  0.36851550  0.97762150  0.37669450  1
  Se  Se136  1  0.86851550  0.02237850  0.87330550  1
  Se  Se137  1  0.82075000  0.96113200  0.70310100  1
  Se  Se138  1  0.67920800  0.34253700  0.96770500  1
  Se  Se139  1  0.52237850  0.13148450  0.62330550  1
  Se  Se140  1  0.85498700  0.25000000  0.87500000  1
  Se  Se141  1  0.63148450  0.52237850  0.87330550  1
  Se  Se142  1  0.82079200  0.15746300  0.46770500  1
  Se  Se143  1  0.32079200  0.84253700  0.78229500  1
  Se  Se144  1  0.86851550  0.97762150  0.37330550  1
  Se  Se145  1  0.75000000  0.85498700  0.12500000  1
  Se  Se146  1  0.75000000  0.64501300  0.62500000  1
  Se  Se147  1  0.82075000  0.03886800  0.20310100  1
  Se  Se148  1  0.67925000  0.96113200  0.54689900  1
  Se  Se149  1  0.75000000  0.35498700  0.12500000  1
  Se  Se150  1  0.84253700  0.17920800  0.03229500  1
  Se  Se151  1  0.84253700  0.82079200  0.53229500  1
  Se  Se152  1  0.47762150  0.86851550  0.62330550  1
  Se  Se153  1  0.96113200  0.82075000  0.79689900  1
  Se  Se154  1  0.67925000  0.46113200  0.70310100  1
  Se  Se155  1  0.64501300  0.75000000  0.87500000  1
  Se  Se156  1  0.02237850  0.86851550  0.62669450  1
  Se  Se157  1  0.52237850  0.63148450  0.62669450  1
  Se  Se158  1  0.53886800  0.67925000  0.29689900  1
  Se  Se159  1  0.36851550  0.02237850  0.87669450  1
  Se  Se160  1  0.96113200  0.67925000  0.95310100  1
  Se  Se161  1  0.82075000  0.46113200  0.54689900  1
  Se  Se162  1  0.03886800  0.67925000  0.45310100  1
  Se  Se163  1  0.47762150  0.63148450  0.12669450  1
  Se  Se164  1  0.03886800  0.82075000  0.29689900  1
  Se  Se165  1  0.67920800  0.65746300  0.46770500  1
  Se  Se166  1  0.64501300  0.25000000  0.37500000  1
  Se  Se167  1  0.46113200  0.82075000  0.95310100  1
  Se  Se168  1  0.34253700  0.17920800  0.71770500  1
  Se  Se169  1  0.82079200  0.84253700  0.96770500  1
  Se  Se170  1  0.82079200  0.65746300  0.78229500  1
  Se  Se171  1  0.97762150  0.63148450  0.62330550  1
  Se  Se172  1  0.65746300  0.82079200  0.71770500  1
  Se  Se173  1  0.75000000  0.14501300  0.62500000  1
  Se  Se174  1  0.13148450  0.97762150  0.87330550  1
  Se  Se175  1  0.84253700  0.32079200  0.71770500  1
  Se  Se176  1  0.63148450  0.02237850  0.37669450  1
  Se  Se177  1  0.15746300  0.67920800  0.71770500  1
  Se  Se178  1  0.52237850  0.86851550  0.12330550  1
  Se  Se179  1  0.03886800  0.32075000  0.95310100  1
  Se  Se180  1  0.67920800  0.15746300  0.78229500  1
  Se  Se181  1  0.17920800  0.34253700  0.78229500  1
  Se  Se182  1  0.47762150  0.36851550  0.62669450  1
  Se  Se183  1  0.65746300  0.67920800  0.03229500  1
  Se  Se184  1  0.46113200  0.67925000  0.79689900  1
  Se  Se185  1  0.67925000  0.53886800  0.20310100  1
  Se  Se186  1  0.82075000  0.53886800  0.04689900  1
  Se  Se187  1  0.85498700  0.75000000  0.37500000  1
  Se  Se188  1  0.17925000  0.53886800  0.54689900  1
  Se  Se189  1  0.65746300  0.32079200  0.53229500  1
  Se  Se190  1  0.63148450  0.97762150  0.87669450  1
  Se  Se191  1  0.86851550  0.47762150  0.87669450  1
  O  O192  1  0.50000000  0.00000000  0.25000000  1
  O  O193  1  0.00000000  0.00000000  0.00000000  1
  O  O194  1  0.00000000  0.50000000  0.25000000  1
  O  O195  1  0.00000000  0.00000000  0.50000000  1
  O  O196  1  0.00000000  0.50000000  0.75000000  1
  O  O197  1  0.50000000  0.50000000  0.50000000  1
  O  O198  1  0.50000000  0.00000000  0.75000000  1
  O  O199  1  0.50000000  0.50000000  0.00000000  1
