# generated using pymatgen
data_SiB3
_symmetry_space_group_name_H-M   'P 1'
_cell_length_a   6.22321600
_cell_length_b   8.38008800
_cell_length_c   12.58439600
_cell_angle_alpha   90.00000000
_cell_angle_beta   90.00000000
_cell_angle_gamma   90.00000000
_symmetry_Int_Tables_number   1
_chemical_formula_structural   SiB3
_chemical_formula_sum   'Si16 B48'
_cell_volume   656.29006558
_cell_formula_units_Z   16
loop_
 _symmetry_equiv_pos_site_id
 _symmetry_equiv_pos_as_xyz
  1  'x, y, z'
loop_
 _atom_site_type_symbol
 _atom_site_label
 _atom_site_symmetry_multiplicity
 _atom_site_fract_x
 _atom_site_fract_y
 _atom_site_fract_z
 _atom_site_occupancy
  Si  Si0  1  0.06387200  0.76933800  0.75000000  1
  Si  Si1  1  0.93612800  0.76933800  0.25000000  1
  Si  Si2  1  0.50221350  0.00000000  0.84553700  1
  Si  Si3  1  0.06387200  0.23066200  0.75000000  1
  Si  Si4  1  0.93612800  0.23066200  0.25000000  1
  Si  Si5  1  0.50221350  0.00000000  0.65446300  1
  Si  Si6  1  0.49778650  0.00000000  0.34553700  1
  Si  Si7  1  0.49778650  0.00000000  0.15446300  1
  Si  Si8  1  0.56387200  0.26933800  0.25000000  1
  Si  Si9  1  0.43612800  0.26933800  0.75000000  1
  Si  Si10  1  0.00221350  0.50000000  0.34553700  1
  Si  Si11  1  0.56387200  0.73066200  0.25000000  1
  Si  Si12  1  0.43612800  0.73066200  0.75000000  1
  Si  Si13  1  0.00221350  0.50000000  0.15446300  1
  Si  Si14  1  0.99778650  0.50000000  0.84553700  1
  Si  Si15  1  0.99778650  0.50000000  0.65446300  1
  B  B16  1  0.22347300  0.00000000  0.42575050  1
  B  B17  1  0.00267150  0.88940650  0.61240900  1
  B  B18  1  0.99732850  0.88940650  0.11240900  1
  B  B19  1  0.99732850  0.11059350  0.38759100  1
  B  B20  1  0.77652700  0.00000000  0.57424950  1
  B  B21  1  0.99732850  0.88940650  0.38759100  1
  B  B22  1  0.15514750  0.82500550  0.49840800  1
  B  B23  1  0.65514750  0.67499450  0.50159200  1
  B  B24  1  0.34485250  0.32500550  0.49840800  1
  B  B25  1  0.77652700  0.00000000  0.92575050  1
  B  B26  1  0.99732850  0.11059350  0.11240900  1
  B  B27  1  0.84485250  0.82500550  0.50159200  1
  B  B28  1  0.84485250  0.17499450  0.50159200  1
  B  B29  1  0.00267150  0.11059350  0.61240900  1
  B  B30  1  0.77169900  0.00000000  0.06911050  1
  B  B31  1  0.77169900  0.00000000  0.43088950  1
  B  B32  1  0.65514750  0.32500550  0.50159200  1
  B  B33  1  0.00267150  0.11059350  0.88759100  1
  B  B34  1  0.15514750  0.17499450  0.49840800  1
  B  B35  1  0.22830100  0.00000000  0.93088950  1
  B  B36  1  0.22830100  0.00000000  0.56911050  1
  B  B37  1  0.00267150  0.88940650  0.88759100  1
  B  B38  1  0.22347300  0.00000000  0.07424950  1
  B  B39  1  0.34485250  0.67499450  0.49840800  1
  B  B40  1  0.72347300  0.50000000  0.92575050  1
  B  B41  1  0.50267150  0.38940650  0.11240900  1
  B  B42  1  0.49732850  0.38940650  0.61240900  1
  B  B43  1  0.49732850  0.61059350  0.88759100  1
  B  B44  1  0.27652700  0.50000000  0.07424950  1
  B  B45  1  0.49732850  0.38940650  0.88759100  1
  B  B46  1  0.65514750  0.32500550  0.99840800  1
  B  B47  1  0.15514750  0.17499450  0.00159200  1
  B  B48  1  0.84485250  0.82500550  0.99840800  1
  B  B49  1  0.27652700  0.50000000  0.42575050  1
  B  B50  1  0.49732850  0.61059350  0.61240900  1
  B  B51  1  0.34485250  0.32500550  0.00159200  1
  B  B52  1  0.34485250  0.67499450  0.00159200  1
  B  B53  1  0.50267150  0.61059350  0.11240900  1
  B  B54  1  0.27169900  0.50000000  0.56911050  1
  B  B55  1  0.27169900  0.50000000  0.93088950  1
  B  B56  1  0.15514750  0.82500550  0.00159200  1
  B  B57  1  0.50267150  0.61059350  0.38759100  1
  B  B58  1  0.65514750  0.67499450  0.99840800  1
  B  B59  1  0.72830100  0.50000000  0.43088950  1
  B  B60  1  0.72830100  0.50000000  0.06911050  1
  B  B61  1  0.50267150  0.38940650  0.38759100  1
  B  B62  1  0.72347300  0.50000000  0.57424950  1
  B  B63  1  0.84485250  0.17499450  0.99840800  1
