# generated using pymatgen
data_Zn2SiO4
_symmetry_space_group_name_H-M   'P 1'
_cell_length_a   7.09603800
_cell_length_b   7.09603800
_cell_length_c   6.55208000
_cell_angle_alpha   90.00000000
_cell_angle_beta   90.00000000
_cell_angle_gamma   90.00000000
_symmetry_Int_Tables_number   1
_chemical_formula_structural   Zn2SiO4
_chemical_formula_sum   'Zn8 Si4 O16'
_cell_volume   329.92183301
_cell_formula_units_Z   4
loop_
 _symmetry_equiv_pos_site_id
 _symmetry_equiv_pos_as_xyz
  1  'x, y, z'
loop_
 _atom_site_type_symbol
 _atom_site_label
 _atom_site_symmetry_multiplicity
 _atom_site_fract_x
 _atom_site_fract_y
 _atom_site_fract_z
 _atom_site_occupancy
  Zn  Zn0  1  0.84225700  0.25000000  0.87500000  1
  Zn  Zn1  1  0.65774300  0.25000000  0.37500000  1
  Zn  Zn2  1  0.25000000  0.15774300  0.12500000  1
  Zn  Zn3  1  0.25000000  0.34225700  0.62500000  1
  Zn  Zn4  1  0.34225700  0.75000000  0.37500000  1
  Zn  Zn5  1  0.15774300  0.75000000  0.87500000  1
  Zn  Zn6  1  0.75000000  0.65774300  0.62500000  1
  Zn  Zn7  1  0.75000000  0.84225700  0.12500000  1
  Si  Si8  1  0.50000000  0.00000000  0.75000000  1
  Si  Si9  1  0.00000000  0.00000000  0.50000000  1
  Si  Si10  1  0.00000000  0.50000000  0.25000000  1
  Si  Si11  1  0.50000000  0.50000000  0.00000000  1
  O  O12  1  0.80657400  0.01239900  0.35947900  1
  O  O13  1  0.98760100  0.80657400  0.64052100  1
  O  O14  1  0.80657400  0.48760100  0.39052100  1
  O  O15  1  0.01239900  0.30657400  0.10947900  1
  O  O16  1  0.48760100  0.19342600  0.60947900  1
  O  O17  1  0.01239900  0.19342600  0.64052100  1
  O  O18  1  0.19342600  0.98760100  0.35947900  1
  O  O19  1  0.69342600  0.01239900  0.89052100  1
  O  O20  1  0.30657400  0.51239900  0.85947900  1
  O  O21  1  0.48760100  0.30657400  0.14052100  1
  O  O22  1  0.30657400  0.98760100  0.89052100  1
  O  O23  1  0.51239900  0.80657400  0.60947900  1
  O  O24  1  0.98760100  0.69342600  0.10947900  1
  O  O25  1  0.51239900  0.69342600  0.14052100  1
  O  O26  1  0.69342600  0.48760100  0.85947900  1
  O  O27  1  0.19342600  0.51239900  0.39052100  1
