# generated using pymatgen
data_SiO2
_symmetry_space_group_name_H-M   'P 1'
_cell_length_a   5.08633800
_cell_length_b   8.30779000
_cell_length_c   10.21953000
_cell_angle_alpha   90.00000000
_cell_angle_beta   90.00000000
_cell_angle_gamma   90.00000000
_symmetry_Int_Tables_number   1
_chemical_formula_structural   SiO2
_chemical_formula_sum   'Si8 O16'
_cell_volume   431.83878946
_cell_formula_units_Z   8
loop_
 _symmetry_equiv_pos_site_id
 _symmetry_equiv_pos_as_xyz
  1  'x, y, z'
loop_
 _atom_site_type_symbol
 _atom_site_label
 _atom_site_symmetry_multiplicity
 _atom_site_fract_x
 _atom_site_fract_y
 _atom_site_fract_z
 _atom_site_occupancy
  Si  Si0  1  0.50058800  0.35588250  0.89949900  1
  Si  Si1  1  0.50058800  0.64411750  0.10050100  1
  Si  Si2  1  0.00058800  0.85588250  0.10050100  1
  Si  Si3  1  0.00058800  0.14411750  0.89949900  1
  Si  Si4  1  0.00058800  0.85588250  0.39949900  1
  Si  Si5  1  0.00058800  0.14411750  0.60050100  1
  Si  Si6  1  0.50058800  0.35588250  0.60050100  1
  Si  Si7  1  0.50058800  0.64411750  0.39949900  1
  O  O8  1  0.70053950  0.20539200  0.92372650  1
  O  O9  1  0.06895600  0.00000000  0.00000000  1
  O  O10  1  0.20053950  0.29460800  0.92372650  1
  O  O11  1  0.70053950  0.79460800  0.07627350  1
  O  O12  1  0.53420800  0.57721450  0.25000000  1
  O  O13  1  0.53420800  0.42278550  0.75000000  1
  O  O14  1  0.56895600  0.50000000  0.00000000  1
  O  O15  1  0.20053950  0.70539200  0.07627350  1
  O  O16  1  0.20053950  0.70539200  0.42372650  1
  O  O17  1  0.56895600  0.50000000  0.50000000  1
  O  O18  1  0.70053950  0.79460800  0.42372650  1
  O  O19  1  0.20053950  0.29460800  0.57627350  1
  O  O20  1  0.03420800  0.07721450  0.75000000  1
  O  O21  1  0.03420800  0.92278550  0.25000000  1
  O  O22  1  0.06895600  0.00000000  0.50000000  1
  O  O23  1  0.70053950  0.20539200  0.57627350  1
