# generated using pymatgen
data_GePdS3
_symmetry_space_group_name_H-M   'P 1'
_cell_length_a   15.11435400
_cell_length_b   3.50043800
_cell_length_c   9.39719999
_cell_angle_alpha   90.00000000
_cell_angle_beta   107.85608620
_cell_angle_gamma   90.00000000
_symmetry_Int_Tables_number   1
_chemical_formula_structural   GePdS3
_chemical_formula_sum   'Ge4 Pd4 S12'
_cell_volume   473.22719994
_cell_formula_units_Z   4
loop_
 _symmetry_equiv_pos_site_id
 _symmetry_equiv_pos_as_xyz
  1  'x, y, z'
loop_
 _atom_site_type_symbol
 _atom_site_label
 _atom_site_symmetry_multiplicity
 _atom_site_fract_x
 _atom_site_fract_y
 _atom_site_fract_z
 _atom_site_occupancy
  Ge  Ge0  1  0.91615000  0.00000000  0.69947800  1
  Ge  Ge1  1  0.58385000  0.50000000  0.30052200  1
  Ge  Ge2  1  0.41615000  0.50000000  0.69947800  1
  Ge  Ge3  1  0.08385000  0.00000000  0.30052200  1
  Pd  Pd4  1  0.60921100  0.00000000  0.97236100  1
  Pd  Pd5  1  0.89078900  0.50000000  0.02763900  1
  Pd  Pd6  1  0.10921100  0.50000000  0.97236100  1
  Pd  Pd7  1  0.39078900  0.00000000  0.02763900  1
  S  S8  1  0.87312100  0.50000000  0.54214400  1
  S  S9  1  0.62687900  0.00000000  0.45785600  1
  S  S10  1  0.82963500  0.00000000  0.85826800  1
  S  S11  1  0.67036500  0.50000000  0.14173200  1
  S  S12  1  0.57284800  0.50000000  0.79690200  1
  S  S13  1  0.92715200  0.00000000  0.20309800  1
  S  S14  1  0.37312100  0.00000000  0.54214400  1
  S  S15  1  0.12687900  0.50000000  0.45785600  1
  S  S16  1  0.32963500  0.50000000  0.85826800  1
  S  S17  1  0.17036500  0.00000000  0.14173200  1
  S  S18  1  0.07284800  0.00000000  0.79690200  1
  S  S19  1  0.42715200  0.50000000  0.20309800  1
