# generated using pymatgen
data_CsPS3
_symmetry_space_group_name_H-M   'P 1'
_cell_length_a   7.34896400
_cell_length_b   9.36145400
_cell_length_c   9.70072600
_cell_angle_alpha   90.00000000
_cell_angle_beta   90.00000000
_cell_angle_gamma   90.00000000
_symmetry_Int_Tables_number   1
_chemical_formula_structural   CsPS3
_chemical_formula_sum   'Cs4 P4 S12'
_cell_volume   667.38073442
_cell_formula_units_Z   4
loop_
 _symmetry_equiv_pos_site_id
 _symmetry_equiv_pos_as_xyz
  1  'x, y, z'
loop_
 _atom_site_type_symbol
 _atom_site_label
 _atom_site_symmetry_multiplicity
 _atom_site_fract_x
 _atom_site_fract_y
 _atom_site_fract_z
 _atom_site_occupancy
  Cs  Cs0  1  0.50000000  0.23899700  0.50000000  1
  Cs  Cs1  1  0.50000000  0.76100300  0.50000000  1
  Cs  Cs2  1  0.00000000  0.73899700  0.00000000  1
  Cs  Cs3  1  0.00000000  0.26100300  0.00000000  1
  P  P4  1  0.00000000  0.00000000  0.65443200  1
  P  P5  1  0.00000000  0.00000000  0.34556800  1
  P  P6  1  0.50000000  0.50000000  0.15443200  1
  P  P7  1  0.50000000  0.50000000  0.84556800  1
  S  S8  1  0.00000000  0.83274000  0.50000000  1
  S  S9  1  0.00000000  0.16726000  0.50000000  1
  S  S10  1  0.23111800  0.00000000  0.75934700  1
  S  S11  1  0.23111800  0.00000000  0.24065300  1
  S  S12  1  0.76888200  0.00000000  0.24065300  1
  S  S13  1  0.76888200  0.00000000  0.75934700  1
  S  S14  1  0.50000000  0.33274000  0.00000000  1
  S  S15  1  0.50000000  0.66726000  0.00000000  1
  S  S16  1  0.73111800  0.50000000  0.25934700  1
  S  S17  1  0.73111800  0.50000000  0.74065300  1
  S  S18  1  0.26888200  0.50000000  0.74065300  1
  S  S19  1  0.26888200  0.50000000  0.25934700  1
