# generated using pymatgen
data_Cs4Sb2O5
_symmetry_space_group_name_H-M   'P 1'
_cell_length_a   10.87376200
_cell_length_b   7.05892000
_cell_length_c   8.30319522
_cell_angle_alpha   90.00000000
_cell_angle_beta   97.73196626
_cell_angle_gamma   90.00000000
_symmetry_Int_Tables_number   1
_chemical_formula_structural   Cs4Sb2O5
_chemical_formula_sum   'Cs8 Sb4 O10'
_cell_volume   631.53408480
_cell_formula_units_Z   2
loop_
 _symmetry_equiv_pos_site_id
 _symmetry_equiv_pos_as_xyz
  1  'x, y, z'
loop_
 _atom_site_type_symbol
 _atom_site_label
 _atom_site_symmetry_multiplicity
 _atom_site_fract_x
 _atom_site_fract_y
 _atom_site_fract_z
 _atom_site_occupancy
  Cs  Cs0  1  0.00506200  0.00000000  0.00470900  1
  Cs  Cs1  1  0.99950700  0.00000000  0.50033800  1
  Cs  Cs2  1  0.66316900  0.00000000  0.15333200  1
  Cs  Cs3  1  0.33424600  0.00000000  0.84661300  1
  Cs  Cs4  1  0.50506200  0.50000000  0.00470900  1
  Cs  Cs5  1  0.49950700  0.50000000  0.50033800  1
  Cs  Cs6  1  0.16316900  0.50000000  0.15333200  1
  Cs  Cs7  1  0.83424600  0.50000000  0.84661300  1
  Sb  Sb8  1  0.64677800  0.00000000  0.67179300  1
  Sb  Sb9  1  0.35191200  0.00000000  0.32995600  1
  Sb  Sb10  1  0.14677800  0.50000000  0.67179300  1
  Sb  Sb11  1  0.85191200  0.50000000  0.32995600  1
  O  O12  1  0.58865150  0.78571350  0.78714200  1
  O  O13  1  0.37792500  0.21343300  0.19123800  1
  O  O14  1  0.37792500  0.78656700  0.19123800  1
  O  O15  1  0.58865150  0.21428650  0.78714200  1
  O  O16  1  0.52309300  0.00000000  0.46521900  1
  O  O17  1  0.08865150  0.28571350  0.78714200  1
  O  O18  1  0.87792500  0.71343300  0.19123800  1
  O  O19  1  0.87792500  0.28656700  0.19123800  1
  O  O20  1  0.08865150  0.71428650  0.78714200  1
  O  O21  1  0.02309300  0.50000000  0.46521900  1
