# generated using pymatgen
data_Sn2SbS2I3
_symmetry_space_group_name_H-M   'P 1'
_cell_length_a   4.34871400
_cell_length_b   14.46510800
_cell_length_c   16.04789600
_cell_angle_alpha   90.00000000
_cell_angle_beta   90.00000000
_cell_angle_gamma   90.00000000
_symmetry_Int_Tables_number   1
_chemical_formula_structural   Sn2SbS2I3
_chemical_formula_sum   'Sn8 Sb4 S8 I12'
_cell_volume   1009.48676231
_cell_formula_units_Z   4
loop_
 _symmetry_equiv_pos_site_id
 _symmetry_equiv_pos_as_xyz
  1  'x, y, z'
loop_
 _atom_site_type_symbol
 _atom_site_label
 _atom_site_symmetry_multiplicity
 _atom_site_fract_x
 _atom_site_fract_y
 _atom_site_fract_z
 _atom_site_occupancy
  Sn  Sn0  1  0.00000000  0.13323800  0.47929900  1
  Sn  Sn1  1  0.50000000  0.36676200  0.97929900  1
  Sn  Sn2  1  0.50000000  0.36676200  0.52070100  1
  Sn  Sn3  1  0.00000000  0.13323800  0.02070100  1
  Sn  Sn4  1  0.50000000  0.63323800  0.47929900  1
  Sn  Sn5  1  0.00000000  0.86676200  0.97929900  1
  Sn  Sn6  1  0.00000000  0.86676200  0.52070100  1
  Sn  Sn7  1  0.50000000  0.63323800  0.02070100  1
  Sb  Sb8  1  0.00000000  0.20412800  0.75000000  1
  Sb  Sb9  1  0.50000000  0.29587200  0.25000000  1
  Sb  Sb10  1  0.50000000  0.70412800  0.75000000  1
  Sb  Sb11  1  0.00000000  0.79587200  0.25000000  1
  S  S12  1  0.50000000  0.22875400  0.08538800  1
  S  S13  1  0.50000000  0.22875400  0.41461200  1
  S  S14  1  0.00000000  0.27124600  0.58538800  1
  S  S15  1  0.00000000  0.27124600  0.91461200  1
  S  S16  1  0.00000000  0.72875400  0.08538800  1
  S  S17  1  0.00000000  0.72875400  0.41461200  1
  S  S18  1  0.50000000  0.77124600  0.58538800  1
  S  S19  1  0.50000000  0.77124600  0.91461200  1
  I  I20  1  0.00000000  0.43268500  0.13241900  1
  I  I21  1  0.50000000  0.06731500  0.63241900  1
  I  I22  1  0.00000000  0.14982200  0.25000000  1
  I  I23  1  0.50000000  0.06731500  0.86758100  1
  I  I24  1  0.00000000  0.43268500  0.36758100  1
  I  I25  1  0.50000000  0.35017800  0.75000000  1
  I  I26  1  0.50000000  0.93268500  0.13241900  1
  I  I27  1  0.00000000  0.56731500  0.63241900  1
  I  I28  1  0.50000000  0.64982200  0.25000000  1
  I  I29  1  0.00000000  0.56731500  0.86758100  1
  I  I30  1  0.50000000  0.93268500  0.36758100  1
  I  I31  1  0.00000000  0.85017800  0.75000000  1
