# generated using pymatgen
data_Rb4H6C2O9
_symmetry_space_group_name_H-M   'P 1'
_cell_length_a   12.63351000
_cell_length_b   13.98790600
_cell_length_c   7.59276494
_cell_angle_alpha   90.00000000
_cell_angle_beta   120.15339363
_cell_angle_gamma   90.00000000
_symmetry_Int_Tables_number   1
_chemical_formula_structural   Rb4H6C2O9
_chemical_formula_sum   'Rb16 H24 C8 O36'
_cell_volume   1160.20292348
_cell_formula_units_Z   4
loop_
 _symmetry_equiv_pos_site_id
 _symmetry_equiv_pos_as_xyz
  1  'x, y, z'
loop_
 _atom_site_type_symbol
 _atom_site_label
 _atom_site_symmetry_multiplicity
 _atom_site_fract_x
 _atom_site_fract_y
 _atom_site_fract_z
 _atom_site_occupancy
  Rb  Rb0  1  0.14437400  0.86161600  0.04143300  1
  Rb  Rb1  1  0.85562600  0.86161600  0.45856700  1
  Rb  Rb2  1  0.85562600  0.13838400  0.95856700  1
  Rb  Rb3  1  0.14437400  0.13838400  0.54143300  1
  Rb  Rb4  1  0.50000000  0.18850000  0.25000000  1
  Rb  Rb5  1  0.50000000  0.81150000  0.75000000  1
  Rb  Rb6  1  0.50000000  0.88160200  0.25000000  1
  Rb  Rb7  1  0.50000000  0.11839800  0.75000000  1
  Rb  Rb8  1  0.64437400  0.36161600  0.04143300  1
  Rb  Rb9  1  0.35562600  0.36161600  0.45856700  1
  Rb  Rb10  1  0.35562600  0.63838400  0.95856700  1
  Rb  Rb11  1  0.64437400  0.63838400  0.54143300  1
  Rb  Rb12  1  0.00000000  0.68850000  0.25000000  1
  Rb  Rb13  1  0.00000000  0.31150000  0.75000000  1
  Rb  Rb14  1  0.00000000  0.38160200  0.25000000  1
  Rb  Rb15  1  0.00000000  0.61839800  0.75000000  1
  H  H16  1  0.70845700  0.06704700  0.53614300  1
  H  H17  1  0.29154300  0.06704700  0.96385700  1
  H  H18  1  0.29154300  0.93295300  0.46385700  1
  H  H19  1  0.70845700  0.93295300  0.03614300  1
  H  H20  1  0.67492000  0.97238600  0.62161900  1
  H  H21  1  0.32508000  0.97238600  0.87838100  1
  H  H22  1  0.32508000  0.02761400  0.37838100  1
  H  H23  1  0.67492000  0.02761400  0.12161900  1
  H  H24  1  0.93318750  0.05887350  0.65533600  1
  H  H25  1  0.06681250  0.05887350  0.84466400  1
  H  H26  1  0.06681250  0.94112650  0.34466400  1
  H  H27  1  0.93318750  0.94112650  0.15533600  1
  H  H28  1  0.20845700  0.56704700  0.53614300  1
  H  H29  1  0.79154300  0.56704700  0.96385700  1
  H  H30  1  0.79154300  0.43295300  0.46385700  1
  H  H31  1  0.20845700  0.43295300  0.03614300  1
  H  H32  1  0.17492000  0.47238600  0.62161900  1
  H  H33  1  0.82508000  0.47238600  0.87838100  1
  H  H34  1  0.82508000  0.52761400  0.37838100  1
  H  H35  1  0.17492000  0.52761400  0.12161900  1
  H  H36  1  0.43318750  0.55887350  0.65533600  1
  H  H37  1  0.56681250  0.55887350  0.84466400  1
  H  H38  1  0.56681250  0.44112650  0.34466400  1
  H  H39  1  0.43318750  0.44112650  0.15533600  1
  C  C40  1  0.80461600  0.16521500  0.34394400  1
  C  C41  1  0.19538400  0.16521500  0.15605600  1
  C  C42  1  0.19538400  0.83478500  0.65605600  1
  C  C43  1  0.80461600  0.83478500  0.84394400  1
  C  C44  1  0.30461600  0.66521500  0.34394400  1
  C  C45  1  0.69538400  0.66521500  0.15605600  1
  C  C46  1  0.69538400  0.33478500  0.65605600  1
  C  C47  1  0.30461600  0.33478500  0.84394400  1
  O  O48  1  0.39123700  0.71686300  0.35049600  1
  O  O49  1  0.60876300  0.71686300  0.14950400  1
  O  O50  1  0.60876300  0.28313700  0.64950400  1
  O  O51  1  0.39123700  0.28313700  0.85049600  1
  O  O52  1  0.70524550  0.14768150  0.16931500  1
  O  O53  1  0.29475450  0.14768150  0.33068500  1
  O  O54  1  0.29475450  0.85231850  0.83068500  1
  O  O55  1  0.70524550  0.85231850  0.66931500  1
  O  O56  1  0.81473250  0.12998950  0.51213100  1
  O  O57  1  0.18526750  0.12998950  0.98786900  1
  O  O58  1  0.18526750  0.87001050  0.48786900  1
  O  O59  1  0.81473250  0.87001050  0.01213100  1
  O  O60  1  0.64786700  0.03911400  0.57115800  1
  O  O61  1  0.35213300  0.03911400  0.92884200  1
  O  O62  1  0.35213300  0.96088600  0.42884200  1
  O  O63  1  0.64786700  0.96088600  0.07115800  1
  O  O64  1  0.50000000  0.51448900  0.75000000  1
  O  O65  1  0.50000000  0.48551100  0.25000000  1
  O  O66  1  0.89123700  0.21686300  0.35049600  1
  O  O67  1  0.10876300  0.21686300  0.14950400  1
  O  O68  1  0.10876300  0.78313700  0.64950400  1
  O  O69  1  0.89123700  0.78313700  0.85049600  1
  O  O70  1  0.20524550  0.64768150  0.16931500  1
  O  O71  1  0.79475450  0.64768150  0.33068500  1
  O  O72  1  0.79475450  0.35231850  0.83068500  1
  O  O73  1  0.20524550  0.35231850  0.66931500  1
  O  O74  1  0.31473250  0.62998950  0.51213100  1
  O  O75  1  0.68526750  0.62998950  0.98786900  1
  O  O76  1  0.68526750  0.37001050  0.48786900  1
  O  O77  1  0.31473250  0.37001050  0.01213100  1
  O  O78  1  0.14786700  0.53911400  0.57115800  1
  O  O79  1  0.85213300  0.53911400  0.92884200  1
  O  O80  1  0.85213300  0.46088600  0.42884200  1
  O  O81  1  0.14786700  0.46088600  0.07115800  1
  O  O82  1  0.00000000  0.01448900  0.75000000  1
  O  O83  1  0.00000000  0.98551100  0.25000000  1
