# generated using pymatgen
data_NaGaSiO4
_symmetry_space_group_name_H-M   'P 1'
_cell_length_a   8.84417596
_cell_length_b   8.84417596
_cell_length_c   8.36032600
_cell_angle_alpha   90.00000000
_cell_angle_beta   90.00000000
_cell_angle_gamma   120.00000000
_symmetry_Int_Tables_number   1
_chemical_formula_structural   NaGaSiO4
_chemical_formula_sum   'Na6 Ga6 Si6 O24'
_cell_volume   566.32872903
_cell_formula_units_Z   6
loop_
 _symmetry_equiv_pos_site_id
 _symmetry_equiv_pos_as_xyz
  1  'x, y, z'
loop_
 _atom_site_type_symbol
 _atom_site_label
 _atom_site_symmetry_multiplicity
 _atom_site_fract_x
 _atom_site_fract_y
 _atom_site_fract_z
 _atom_site_occupancy
  Na  Na0  1  0.33333333  0.66666667  0.56333400  1
  Na  Na1  1  0.00000000  0.00000000  0.56941600  1
  Na  Na2  1  0.66666667  0.33333333  0.06333400  1
  Na  Na3  1  0.33333333  0.66666667  0.99079600  1
  Na  Na4  1  0.00000000  0.00000000  0.06941600  1
  Na  Na5  1  0.66666667  0.33333333  0.49079600  1
  Ga  Ga6  1  0.34280300  0.02753100  0.75021400  1
  Ga  Ga7  1  0.65719700  0.97246900  0.25021400  1
  Ga  Ga8  1  0.68472800  0.65719700  0.75021400  1
  Ga  Ga9  1  0.97246900  0.31527200  0.75021400  1
  Ga  Ga10  1  0.31527200  0.34280300  0.25021400  1
  Ga  Ga11  1  0.02753100  0.68472800  0.25021400  1
  Si  Si12  1  0.31699000  0.34169100  0.86517400  1
  Si  Si13  1  0.65830900  0.97529900  0.86517400  1
  Si  Si14  1  0.34169100  0.02470100  0.36517400  1
  Si  Si15  1  0.97529900  0.31699000  0.36517400  1
  Si  Si16  1  0.02470100  0.68301000  0.86517400  1
  Si  Si17  1  0.68301000  0.65830900  0.36517400  1
  O  O18  1  0.22050300  0.81124800  0.37970600  1
  O  O19  1  0.88623600  0.26745700  0.54413900  1
  O  O20  1  0.40925500  0.22050300  0.87970600  1
  O  O21  1  0.77949700  0.18875200  0.87970600  1
  O  O22  1  0.59074500  0.77949700  0.37970600  1
  O  O23  1  0.53348100  0.08717100  0.28247000  1
  O  O24  1  0.76150400  0.89463900  0.76414800  1
  O  O25  1  0.55369000  0.46651900  0.28247000  1
  O  O26  1  0.38122100  0.11376400  0.54413900  1
  O  O27  1  0.13313500  0.23849600  0.76414800  1
  O  O28  1  0.18875200  0.40925500  0.37970600  1
  O  O29  1  0.11376400  0.73254300  0.04413900  1
  O  O30  1  0.89463900  0.13313500  0.26414800  1
  O  O31  1  0.81124800  0.59074500  0.87970600  1
  O  O32  1  0.73254300  0.61877900  0.54413900  1
  O  O33  1  0.86686500  0.76150400  0.26414800  1
  O  O34  1  0.46651900  0.91282900  0.78247000  1
  O  O35  1  0.44631000  0.53348100  0.78247000  1
  O  O36  1  0.91282900  0.44631000  0.28247000  1
  O  O37  1  0.26745700  0.38122100  0.04413900  1
  O  O38  1  0.10536100  0.86686500  0.76414800  1
  O  O39  1  0.23849600  0.10536100  0.26414800  1
  O  O40  1  0.08717100  0.55369000  0.78247000  1
  O  O41  1  0.61877900  0.88623600  0.04413900  1
