# generated using pymatgen
data_Hg(SbS2)4
_symmetry_space_group_name_H-M   'P 1'
_cell_length_a   22.30058200
_cell_length_b   4.01389400
_cell_length_c   30.76659685
_cell_angle_alpha   90.00000000
_cell_angle_beta   104.11290770
_cell_angle_gamma   90.00000000
_symmetry_Int_Tables_number   1
_chemical_formula_structural   Hg(SbS2)4
_chemical_formula_sum   'Hg8 Sb32 S64'
_cell_volume   2670.86169034
_cell_formula_units_Z   8
loop_
 _symmetry_equiv_pos_site_id
 _symmetry_equiv_pos_as_xyz
  1  'x, y, z'
loop_
 _atom_site_type_symbol
 _atom_site_label
 _atom_site_symmetry_multiplicity
 _atom_site_fract_x
 _atom_site_fract_y
 _atom_site_fract_z
 _atom_site_occupancy
  Hg  Hg0  1  0.00000000  0.50000000  0.00000000  1
  Hg  Hg1  1  0.00000000  0.50000000  0.50000000  1
  Hg  Hg2  1  0.00000000  0.99679800  0.75000000  1
  Hg  Hg3  1  0.00000000  0.00320200  0.25000000  1
  Hg  Hg4  1  0.50000000  0.00000000  0.00000000  1
  Hg  Hg5  1  0.50000000  0.00000000  0.50000000  1
  Hg  Hg6  1  0.50000000  0.49679800  0.75000000  1
  Hg  Hg7  1  0.50000000  0.50320200  0.25000000  1
  Sb  Sb8  1  0.42790950  0.54572250  0.88112600  1
  Sb  Sb9  1  0.07209050  0.04572250  0.61887400  1
  Sb  Sb10  1  0.57209050  0.45427750  0.11887400  1
  Sb  Sb11  1  0.92790950  0.95427750  0.38112600  1
  Sb  Sb12  1  0.28560100  0.54874900  0.95820900  1
  Sb  Sb13  1  0.21439900  0.04874900  0.54179100  1
  Sb  Sb14  1  0.71439900  0.45125100  0.04179100  1
  Sb  Sb15  1  0.78560100  0.95125100  0.45820900  1
  Sb  Sb16  1  0.07250850  0.54887850  0.86880300  1
  Sb  Sb17  1  0.92749150  0.54887850  0.63119700  1
  Sb  Sb18  1  0.92749150  0.45112150  0.13119700  1
  Sb  Sb19  1  0.07250850  0.45112150  0.36880300  1
  Sb  Sb20  1  0.21508050  0.58108950  0.79162400  1
  Sb  Sb21  1  0.28491950  0.08108950  0.70837600  1
  Sb  Sb22  1  0.78491950  0.41891050  0.20837600  1
  Sb  Sb23  1  0.71508050  0.91891050  0.29162400  1
  Sb  Sb24  1  0.92790950  0.04572250  0.88112600  1
  Sb  Sb25  1  0.57209050  0.54572250  0.61887400  1
  Sb  Sb26  1  0.07209050  0.95427750  0.11887400  1
  Sb  Sb27  1  0.42790950  0.45427750  0.38112600  1
  Sb  Sb28  1  0.78560100  0.04874900  0.95820900  1
  Sb  Sb29  1  0.71439900  0.54874900  0.54179100  1
  Sb  Sb30  1  0.21439900  0.95125100  0.04179100  1
  Sb  Sb31  1  0.28560100  0.45125100  0.45820900  1
  Sb  Sb32  1  0.57250850  0.04887850  0.86880300  1
  Sb  Sb33  1  0.42749150  0.04887850  0.63119700  1
  Sb  Sb34  1  0.42749150  0.95112150  0.13119700  1
  Sb  Sb35  1  0.57250850  0.95112150  0.36880300  1
  Sb  Sb36  1  0.71508050  0.08108950  0.79162400  1
  Sb  Sb37  1  0.78491950  0.58108950  0.70837600  1
  Sb  Sb38  1  0.28491950  0.91891050  0.20837600  1
  Sb  Sb39  1  0.21508050  0.41891050  0.29162400  1
  S  S40  1  0.40897750  0.99978250  0.94017200  1
  S  S41  1  0.09102250  0.49978250  0.55982800  1
  S  S42  1  0.59102250  0.00021750  0.05982800  1
  S  S43  1  0.90897750  0.50021750  0.44017200  1
  S  S44  1  0.31657200  0.53196600  0.77131300  1
  S  S45  1  0.18342800  0.03196600  0.72868700  1
  S  S46  1  0.68342800  0.46803400  0.22868700  1
  S  S47  1  0.81657200  0.96803400  0.27131300  1
  S  S48  1  0.96147950  0.51170050  0.82865300  1
  S  S49  1  0.03852050  0.51170050  0.67134700  1
  S  S50  1  0.03852050  0.48829950  0.17134700  1
  S  S51  1  0.96147950  0.48829950  0.32865300  1
  S  S52  1  0.27655800  0.02011300  0.85131700  1
  S  S53  1  0.22344200  0.52011300  0.64868300  1
  S  S54  1  0.72344200  0.97988700  0.14868300  1
  S  S55  1  0.77655800  0.47988700  0.35131700  1
  S  S56  1  0.09111350  0.00266050  0.80974800  1
  S  S57  1  0.90888650  0.00266050  0.69025200  1
  S  S58  1  0.90888650  0.99733950  0.19025200  1
  S  S59  1  0.09111350  0.99733950  0.30974800  1
  S  S60  1  0.18385300  0.50939900  0.97832500  1
  S  S61  1  0.81614700  0.50939900  0.52167500  1
  S  S62  1  0.81614700  0.49060100  0.02167500  1
  S  S63  1  0.18385300  0.49060100  0.47832500  1
  S  S64  1  0.03886750  0.01133750  0.92132200  1
  S  S65  1  0.96113250  0.01133750  0.57867800  1
  S  S66  1  0.96113250  0.98866250  0.07867800  1
  S  S67  1  0.03886750  0.98866250  0.42132200  1
  S  S68  1  0.22433450  0.99146750  0.89869200  1
  S  S69  1  0.27566550  0.49146750  0.60130800  1
  S  S70  1  0.77566550  0.00853250  0.10130800  1
  S  S71  1  0.72433450  0.50853250  0.39869200  1
  S  S72  1  0.90897750  0.49978250  0.94017200  1
  S  S73  1  0.59102250  0.99978250  0.55982800  1
  S  S74  1  0.09102250  0.50021750  0.05982800  1
  S  S75  1  0.40897750  0.00021750  0.44017200  1
  S  S76  1  0.81657200  0.03196600  0.77131300  1
  S  S77  1  0.68342800  0.53196600  0.72868700  1
  S  S78  1  0.18342800  0.96803400  0.22868700  1
  S  S79  1  0.31657200  0.46803400  0.27131300  1
  S  S80  1  0.46147950  0.01170050  0.82865300  1
  S  S81  1  0.53852050  0.01170050  0.67134700  1
  S  S82  1  0.53852050  0.98829950  0.17134700  1
  S  S83  1  0.46147950  0.98829950  0.32865300  1
  S  S84  1  0.77655800  0.52011300  0.85131700  1
  S  S85  1  0.72344200  0.02011300  0.64868300  1
  S  S86  1  0.22344200  0.47988700  0.14868300  1
  S  S87  1  0.27655800  0.97988700  0.35131700  1
  S  S88  1  0.59111350  0.50266050  0.80974800  1
  S  S89  1  0.40888650  0.50266050  0.69025200  1
  S  S90  1  0.40888650  0.49733950  0.19025200  1
  S  S91  1  0.59111350  0.49733950  0.30974800  1
  S  S92  1  0.68385300  0.00939900  0.97832500  1
  S  S93  1  0.31614700  0.00939900  0.52167500  1
  S  S94  1  0.31614700  0.99060100  0.02167500  1
  S  S95  1  0.68385300  0.99060100  0.47832500  1
  S  S96  1  0.53886750  0.51133750  0.92132200  1
  S  S97  1  0.46113250  0.51133750  0.57867800  1
  S  S98  1  0.46113250  0.48866250  0.07867800  1
  S  S99  1  0.53886750  0.48866250  0.42132200  1
  S  S100  1  0.72433450  0.49146750  0.89869200  1
  S  S101  1  0.77566550  0.99146750  0.60130800  1
  S  S102  1  0.27566550  0.50853250  0.10130800  1
  S  S103  1  0.22433450  0.00853250  0.39869200  1
