# generated using pymatgen
data_K3Np(H3O4)2
_symmetry_space_group_name_H-M   'P 1'
_cell_length_a   7.66479100
_cell_length_b   8.46462300
_cell_length_c   7.96821613
_cell_angle_alpha   90.00000000
_cell_angle_beta   117.11639594
_cell_angle_gamma   90.00000000
_symmetry_Int_Tables_number   1
_chemical_formula_structural   K3Np(H3O4)2
_chemical_formula_sum   'K6 Np2 H12 O16'
_cell_volume   460.14982397
_cell_formula_units_Z   2
loop_
 _symmetry_equiv_pos_site_id
 _symmetry_equiv_pos_as_xyz
  1  'x, y, z'
loop_
 _atom_site_type_symbol
 _atom_site_label
 _atom_site_symmetry_multiplicity
 _atom_site_fract_x
 _atom_site_fract_y
 _atom_site_fract_z
 _atom_site_occupancy
  K  K0  1  0.00000000  0.00000000  0.50000000  1
  K  K1  1  0.41294200  0.80964000  0.45772800  1
  K  K2  1  0.58705800  0.19036000  0.54227200  1
  K  K3  1  0.58705800  0.30964000  0.04227200  1
  K  K4  1  0.00000000  0.50000000  0.00000000  1
  K  K5  1  0.41294200  0.69036000  0.95772800  1
  Np  Np6  1  0.00000000  0.50000000  0.50000000  1
  Np  Np7  1  0.00000000  0.00000000  0.00000000  1
  H  H8  1  0.82949300  0.80220400  0.67688800  1
  H  H9  1  0.64552000  0.96789400  0.17050000  1
  H  H10  1  0.17050700  0.30220400  0.82311200  1
  H  H11  1  0.17050700  0.19779600  0.32311200  1
  H  H12  1  0.64552000  0.53210600  0.67050000  1
  H  H13  1  0.42731300  0.01825900  0.12747400  1
  H  H14  1  0.35448000  0.46789400  0.32950000  1
  H  H15  1  0.82949300  0.69779600  0.17688800  1
  H  H16  1  0.35448000  0.03210600  0.82950000  1
  H  H17  1  0.57268700  0.51825900  0.37252600  1
  H  H18  1  0.57268700  0.98174100  0.87252600  1
  H  H19  1  0.42731300  0.48174100  0.62747400  1
  O  O20  1  0.19369800  0.41247800  0.79965800  1
  O  O21  1  0.80630200  0.58752200  0.20034200  1
  O  O22  1  0.79617000  0.56889900  0.57544100  1
  O  O23  1  0.87201200  0.30302900  0.42527100  1
  O  O24  1  0.80630200  0.91247800  0.70034200  1
  O  O25  1  0.20383000  0.43110100  0.42455900  1
  O  O26  1  0.44172100  0.48936300  0.26874600  1
  O  O27  1  0.79617000  0.93110100  0.07544100  1
  O  O28  1  0.12798800  0.80302900  0.07472900  1
  O  O29  1  0.20383000  0.06889900  0.92455900  1
  O  O30  1  0.19369800  0.08752200  0.29965800  1
  O  O31  1  0.12798800  0.69697100  0.57472900  1
  O  O32  1  0.55827900  0.51063700  0.73125400  1
  O  O33  1  0.87201200  0.19697100  0.92527100  1
  O  O34  1  0.55827900  0.98936300  0.23125400  1
  O  O35  1  0.44172100  0.01063700  0.76874600  1
