# generated using pymatgen
data_Tl2Hg2PdCl8
_symmetry_space_group_name_H-M   'P 1'
_cell_length_a   11.59041000
_cell_length_b   6.95908000
_cell_length_c   10.14974177
_cell_angle_alpha   90.00000000
_cell_angle_beta   108.99542861
_cell_angle_gamma   90.00000000
_symmetry_Int_Tables_number   1
_chemical_formula_structural   Tl2Hg2PdCl8
_chemical_formula_sum   'Tl4 Hg4 Pd2 Cl16'
_cell_volume   774.08315402
_cell_formula_units_Z   2
loop_
 _symmetry_equiv_pos_site_id
 _symmetry_equiv_pos_as_xyz
  1  'x, y, z'
loop_
 _atom_site_type_symbol
 _atom_site_label
 _atom_site_symmetry_multiplicity
 _atom_site_fract_x
 _atom_site_fract_y
 _atom_site_fract_z
 _atom_site_occupancy
  Tl  Tl0  1  0.60336400  0.00000000  0.84178500  1
  Tl  Tl1  1  0.39663600  0.00000000  0.15821500  1
  Tl  Tl2  1  0.10336400  0.50000000  0.84178500  1
  Tl  Tl3  1  0.89663600  0.50000000  0.15821500  1
  Hg  Hg4  1  0.86602900  0.00000000  0.59975100  1
  Hg  Hg5  1  0.13397100  0.00000000  0.40024900  1
  Hg  Hg6  1  0.36602900  0.50000000  0.59975100  1
  Hg  Hg7  1  0.63397100  0.50000000  0.40024900  1
  Pd  Pd8  1  0.00000000  0.00000000  0.00000000  1
  Pd  Pd9  1  0.50000000  0.50000000  0.00000000  1
  Cl  Cl10  1  0.36624550  0.26436750  0.87406100  1
  Cl  Cl11  1  0.36624550  0.73563250  0.87406100  1
  Cl  Cl12  1  0.65309300  0.00000000  0.49829700  1
  Cl  Cl13  1  0.63375450  0.73563250  0.12593900  1
  Cl  Cl14  1  0.07990600  0.00000000  0.69143600  1
  Cl  Cl15  1  0.34690700  0.00000000  0.50170300  1
  Cl  Cl16  1  0.63375450  0.26436750  0.12593900  1
  Cl  Cl17  1  0.92009400  0.00000000  0.30856400  1
  Cl  Cl18  1  0.86624550  0.76436750  0.87406100  1
  Cl  Cl19  1  0.86624550  0.23563250  0.87406100  1
  Cl  Cl20  1  0.15309300  0.50000000  0.49829700  1
  Cl  Cl21  1  0.13375450  0.23563250  0.12593900  1
  Cl  Cl22  1  0.57990600  0.50000000  0.69143600  1
  Cl  Cl23  1  0.84690700  0.50000000  0.50170300  1
  Cl  Cl24  1  0.13375450  0.76436750  0.12593900  1
  Cl  Cl25  1  0.42009400  0.50000000  0.30856400  1
