# generated using pymatgen
data_BaZr(BO3)2
_symmetry_space_group_name_H-M   'P 1'
_cell_length_a   5.22324991
_cell_length_b   5.22324991
_cell_length_c   34.69067889
_cell_angle_alpha   90.00000000
_cell_angle_beta   90.00000000
_cell_angle_gamma   120.00000000
_symmetry_Int_Tables_number   1
_chemical_formula_structural   BaZr(BO3)2
_chemical_formula_sum   'Ba6 Zr6 B12 O36'
_cell_volume   819.64357969
_cell_formula_units_Z   6
loop_
 _symmetry_equiv_pos_site_id
 _symmetry_equiv_pos_as_xyz
  1  'x, y, z'
loop_
 _atom_site_type_symbol
 _atom_site_label
 _atom_site_symmetry_multiplicity
 _atom_site_fract_x
 _atom_site_fract_y
 _atom_site_fract_z
 _atom_site_occupancy
  Ba  Ba0  1  0.66666667  0.33333333  0.08333333  1
  Ba  Ba1  1  0.00000000  0.00000000  0.25000000  1
  Ba  Ba2  1  0.33333333  0.66666667  0.41666667  1
  Ba  Ba3  1  0.66666667  0.33333333  0.58333333  1
  Ba  Ba4  1  0.00000000  0.00000000  0.75000000  1
  Ba  Ba5  1  0.33333333  0.66666667  0.91666667  1
  Zr  Zr6  1  0.00000000  0.00000000  0.00000000  1
  Zr  Zr7  1  0.33333333  0.66666667  0.16666667  1
  Zr  Zr8  1  0.66666667  0.33333333  0.33333333  1
  Zr  Zr9  1  0.00000000  0.00000000  0.50000000  1
  Zr  Zr10  1  0.33333333  0.66666667  0.66666667  1
  Zr  Zr11  1  0.66666667  0.33333333  0.83333333  1
  B  B12  1  0.33333333  0.66666667  0.29777767  1
  B  B13  1  0.66666667  0.33333333  0.20222233  1
  B  B14  1  0.33333333  0.66666667  0.03555567  1
  B  B15  1  0.00000000  0.00000000  0.13111100  1
  B  B16  1  0.00000000  0.00000000  0.63111100  1
  B  B17  1  0.33333333  0.66666667  0.53555567  1
  B  B18  1  0.00000000  0.00000000  0.36888900  1
  B  B19  1  0.66666667  0.33333333  0.46444433  1
  B  B20  1  0.66666667  0.33333333  0.96444433  1
  B  B21  1  0.00000000  0.00000000  0.86888900  1
  B  B22  1  0.66666667  0.33333333  0.70222233  1
  B  B23  1  0.33333333  0.66666667  0.79777767  1
  O  O24  1  0.20648333  0.90831667  0.13024067  1
  O  O25  1  0.03516667  0.57498333  0.29690733  1
  O  O26  1  0.12685000  0.36850000  0.03642600  1
  O  O27  1  0.42501667  0.46018333  0.29690733  1
  O  O28  1  0.46018333  0.42501667  0.20309267  1
  O  O29  1  0.24165000  0.87315000  0.03642600  1
  O  O30  1  0.63150000  0.75835000  0.03642600  1
  O  O31  1  0.70183333  0.79351667  0.13024067  1
  O  O32  1  0.96483333  0.53981667  0.20309267  1
  O  O33  1  0.57498333  0.03516667  0.20309267  1
  O  O34  1  0.09168333  0.29816667  0.13024067  1
  O  O35  1  0.53981667  0.96483333  0.29690733  1
  O  O36  1  0.87315000  0.24165000  0.46357400  1
  O  O37  1  0.70183333  0.90831667  0.63024067  1
  O  O38  1  0.79351667  0.70183333  0.36975933  1
  O  O39  1  0.09168333  0.79351667  0.63024067  1
  O  O40  1  0.12685000  0.75835000  0.53642600  1
  O  O41  1  0.90831667  0.20648333  0.36975933  1
  O  O42  1  0.29816667  0.09168333  0.36975933  1
  O  O43  1  0.36850000  0.12685000  0.46357400  1
  O  O44  1  0.63150000  0.87315000  0.53642600  1
  O  O45  1  0.24165000  0.36850000  0.53642600  1
  O  O46  1  0.75835000  0.63150000  0.46357400  1
  O  O47  1  0.20648333  0.29816667  0.63024067  1
  O  O48  1  0.53981667  0.57498333  0.79690733  1
  O  O49  1  0.36850000  0.24165000  0.96357400  1
  O  O50  1  0.46018333  0.03516667  0.70309267  1
  O  O51  1  0.75835000  0.12685000  0.96357400  1
  O  O52  1  0.79351667  0.09168333  0.86975933  1
  O  O53  1  0.57498333  0.53981667  0.70309267  1
  O  O54  1  0.96483333  0.42501667  0.70309267  1
  O  O55  1  0.03516667  0.46018333  0.79690733  1
  O  O56  1  0.29816667  0.20648333  0.86975933  1
  O  O57  1  0.90831667  0.70183333  0.86975933  1
  O  O58  1  0.42501667  0.96483333  0.79690733  1
  O  O59  1  0.87315000  0.63150000  0.96357400  1
