# generated using pymatgen
data_ZnS
_symmetry_space_group_name_H-M   'P 1'
_cell_length_a   3.85264032
_cell_length_b   3.85264032
_cell_length_c   28.34947316
_cell_angle_alpha   90.00000000
_cell_angle_beta   90.00000000
_cell_angle_gamma   120.00000000
_symmetry_Int_Tables_number   1
_chemical_formula_structural   ZnS
_chemical_formula_sum   'Zn9 S9'
_cell_volume   364.41190318
_cell_formula_units_Z   9
loop_
 _symmetry_equiv_pos_site_id
 _symmetry_equiv_pos_as_xyz
  1  'x, y, z'
loop_
 _atom_site_type_symbol
 _atom_site_label
 _atom_site_symmetry_multiplicity
 _atom_site_fract_x
 _atom_site_fract_y
 _atom_site_fract_z
 _atom_site_occupancy
  Zn  Zn0  1  0.66666667  0.33333333  0.33332233  1
  Zn  Zn1  1  0.00000000  0.00000000  0.22222800  1
  Zn  Zn2  1  0.33333333  0.66666667  0.11111167  1
  Zn  Zn3  1  0.33333333  0.66666667  0.66665567  1
  Zn  Zn4  1  0.66666667  0.33333333  0.55556133  1
  Zn  Zn5  1  0.00000000  0.00000000  0.44444500  1
  Zn  Zn6  1  0.00000000  0.00000000  0.99998900  1
  Zn  Zn7  1  0.33333333  0.66666667  0.88889467  1
  Zn  Zn8  1  0.66666667  0.33333333  0.77777833  1
  S  S9  1  0.00000000  0.00000000  0.08333300  1
  S  S10  1  0.33333333  0.66666667  0.19447167  1
  S  S11  1  0.00000000  0.00000000  0.30552500  1
  S  S12  1  0.66666667  0.33333333  0.41666633  1
  S  S13  1  0.00000000  0.00000000  0.52780500  1
  S  S14  1  0.66666667  0.33333333  0.63885833  1
  S  S15  1  0.33333333  0.66666667  0.74999967  1
  S  S16  1  0.66666667  0.33333333  0.86113833  1
  S  S17  1  0.33333333  0.66666667  0.97219167  1
