# generated using pymatgen
data_K6Ge2O7
_symmetry_space_group_name_H-M   'P 1'
_cell_length_a   6.62786000
_cell_length_b   9.20850100
_cell_length_c   11.34519855
_cell_angle_alpha   90.00000000
_cell_angle_beta   124.05199298
_cell_angle_gamma   90.00000000
_symmetry_Int_Tables_number   1
_chemical_formula_structural   K6Ge2O7
_chemical_formula_sum   'K12 Ge4 O14'
_cell_volume   573.69689073
_cell_formula_units_Z   2
loop_
 _symmetry_equiv_pos_site_id
 _symmetry_equiv_pos_as_xyz
  1  'x, y, z'
loop_
 _atom_site_type_symbol
 _atom_site_label
 _atom_site_symmetry_multiplicity
 _atom_site_fract_x
 _atom_site_fract_y
 _atom_site_fract_z
 _atom_site_occupancy
  K  K0  1  0.59628600  0.45920400  0.21862500  1
  K  K1  1  0.40080200  0.96038200  0.27440000  1
  K  K2  1  0.04682800  0.10214100  0.92081500  1
  K  K3  1  0.04682800  0.89785900  0.42081500  1
  K  K4  1  0.20882400  0.27759300  0.45595200  1
  K  K5  1  0.20882400  0.72240700  0.95595200  1
  K  K6  1  0.78978800  0.22163300  0.53692500  1
  K  K7  1  0.78978800  0.77836700  0.03692500  1
  K  K8  1  0.94922300  0.40011100  0.07092100  1
  K  K9  1  0.94922300  0.59988900  0.57092100  1
  K  K10  1  0.40080200  0.03961800  0.77440000  1
  K  K11  1  0.59628600  0.54079600  0.71862500  1
  Ge  Ge12  1  0.31142600  0.60604900  0.36608500  1
  Ge  Ge13  1  0.68422500  0.10754200  0.12651200  1
  Ge  Ge14  1  0.68422500  0.89245800  0.62651200  1
  Ge  Ge15  1  0.31142600  0.39395100  0.86608500  1
  O  O16  1  0.24558300  0.33495200  0.69973100  1
  O  O17  1  0.50800800  0.45339800  0.43073600  1
  O  O18  1  0.49119600  0.25242800  0.00054300  1
  O  O19  1  0.49119600  0.74757200  0.50054300  1
  O  O20  1  0.49004200  0.95384200  0.06010700  1
  O  O21  1  0.49004200  0.04615800  0.56010700  1
  O  O22  1  0.94286900  0.09018600  0.11857600  1
  O  O23  1  0.94286900  0.90981400  0.61857600  1
  O  O24  1  0.75787600  0.15917800  0.29632400  1
  O  O25  1  0.75787600  0.84082200  0.79632400  1
  O  O26  1  0.50800800  0.54660200  0.93073600  1
  O  O27  1  0.04722300  0.58186200  0.36734700  1
  O  O28  1  0.24558300  0.66504800  0.19973100  1
  O  O29  1  0.04722300  0.41813800  0.86734700  1
