# generated using pymatgen
data_Zn(InS2)2
_symmetry_space_group_name_H-M   'P 1'
_cell_length_a   3.92609028
_cell_length_b   3.92609028
_cell_length_c   37.88895524
_cell_angle_alpha   90.00000000
_cell_angle_beta   90.00000000
_cell_angle_gamma   120.00000000
_symmetry_Int_Tables_number   1
_chemical_formula_structural   Zn(InS2)2
_chemical_formula_sum   'Zn3 In6 S12'
_cell_volume   505.78253144
_cell_formula_units_Z   3
loop_
 _symmetry_equiv_pos_site_id
 _symmetry_equiv_pos_as_xyz
  1  'x, y, z'
loop_
 _atom_site_type_symbol
 _atom_site_label
 _atom_site_symmetry_multiplicity
 _atom_site_fract_x
 _atom_site_fract_y
 _atom_site_fract_z
 _atom_site_occupancy
  Zn  Zn0  1  0.33333333  0.66666667  0.05869567  1
  Zn  Zn1  1  0.00000000  0.00000000  0.39202900  1
  Zn  Zn2  1  0.66666667  0.33333333  0.72536233  1
  In  In3  1  0.00000000  0.00000000  0.16272400  1
  In  In4  1  0.66666667  0.33333333  0.26851133  1
  In  In5  1  0.66666667  0.33333333  0.49605733  1
  In  In6  1  0.33333333  0.66666667  0.60184467  1
  In  In7  1  0.33333333  0.66666667  0.82939067  1
  In  In8  1  0.00000000  0.00000000  0.93517800  1
  S  S9  1  0.00000000  0.00000000  0.04525100  1
  S  S10  1  0.00000000  0.00000000  0.29701000  1
  S  S11  1  0.33333333  0.66666667  0.12963067  1
  S  S12  1  0.66666667  0.33333333  0.20357733  1
  S  S13  1  0.66666667  0.33333333  0.37858433  1
  S  S14  1  0.66666667  0.33333333  0.63034333  1
  S  S15  1  0.00000000  0.00000000  0.46296400  1
  S  S16  1  0.33333333  0.66666667  0.53691067  1
  S  S17  1  0.33333333  0.66666667  0.71191767  1
  S  S18  1  0.33333333  0.66666667  0.96367667  1
  S  S19  1  0.66666667  0.33333333  0.79629733  1
  S  S20  1  0.00000000  0.00000000  0.87024400  1
