# generated using pymatgen
data_Si(PbO2)2
_symmetry_space_group_name_H-M   'P 1'
_cell_length_a   12.39447200
_cell_length_b   7.79182200
_cell_length_c   19.80596961
_cell_angle_alpha   90.00000000
_cell_angle_beta   97.14896326
_cell_angle_gamma   90.00000000
_symmetry_Int_Tables_number   1
_chemical_formula_structural   Si(PbO2)2
_chemical_formula_sum   'Si16 Pb32 O64'
_cell_volume   1897.90182161
_cell_formula_units_Z   16
loop_
 _symmetry_equiv_pos_site_id
 _symmetry_equiv_pos_as_xyz
  1  'x, y, z'
loop_
 _atom_site_type_symbol
 _atom_site_label
 _atom_site_symmetry_multiplicity
 _atom_site_fract_x
 _atom_site_fract_y
 _atom_site_fract_z
 _atom_site_occupancy
  Si  Si0  1  0.49529600  0.41356800  0.16909100  1
  Si  Si1  1  0.49559950  0.83763750  0.16919100  1
  Si  Si2  1  0.49529600  0.58643200  0.66909100  1
  Si  Si3  1  0.50440050  0.16236250  0.83080900  1
  Si  Si4  1  0.50470400  0.41356800  0.33090900  1
  Si  Si5  1  0.50470400  0.58643200  0.83090900  1
  Si  Si6  1  0.49559950  0.16236250  0.66919100  1
  Si  Si7  1  0.50440050  0.83763750  0.33080900  1
  Si  Si8  1  0.99529600  0.91356800  0.16909100  1
  Si  Si9  1  0.99559950  0.33763750  0.16919100  1
  Si  Si10  1  0.99529600  0.08643200  0.66909100  1
  Si  Si11  1  0.00440050  0.66236250  0.83080900  1
  Si  Si12  1  0.00470400  0.91356800  0.33090900  1
  Si  Si13  1  0.00470400  0.08643200  0.83090900  1
  Si  Si14  1  0.99559950  0.66236250  0.66919100  1
  Si  Si15  1  0.00440050  0.33763750  0.33080900  1
  Pb  Pb16  1  0.62277850  0.12427350  0.49651500  1
  Pb  Pb17  1  0.62544350  0.37388350  0.00116400  1
  Pb  Pb18  1  0.37455650  0.37388350  0.49883600  1
  Pb  Pb19  1  0.26816800  0.87427500  0.65843100  1
  Pb  Pb20  1  0.73183200  0.12572500  0.34156900  1
  Pb  Pb21  1  0.37455650  0.62611650  0.99883600  1
  Pb  Pb22  1  0.73183200  0.87427500  0.84156900  1
  Pb  Pb23  1  0.62277850  0.87572650  0.99651500  1
  Pb  Pb24  1  0.37722150  0.87572650  0.50348500  1
  Pb  Pb25  1  0.27207000  0.87723000  0.84177400  1
  Pb  Pb26  1  0.27207000  0.12277000  0.34177400  1
  Pb  Pb27  1  0.72793000  0.12277000  0.15822600  1
  Pb  Pb28  1  0.62544350  0.62611650  0.50116400  1
  Pb  Pb29  1  0.72793000  0.87723000  0.65822600  1
  Pb  Pb30  1  0.37722150  0.12427350  0.00348500  1
  Pb  Pb31  1  0.26816800  0.12572500  0.15843100  1
  Pb  Pb32  1  0.12277850  0.62427350  0.49651500  1
  Pb  Pb33  1  0.12544350  0.87388350  0.00116400  1
  Pb  Pb34  1  0.87455650  0.87388350  0.49883600  1
  Pb  Pb35  1  0.76816800  0.37427500  0.65843100  1
  Pb  Pb36  1  0.23183200  0.62572500  0.34156900  1
  Pb  Pb37  1  0.87455650  0.12611650  0.99883600  1
  Pb  Pb38  1  0.23183200  0.37427500  0.84156900  1
  Pb  Pb39  1  0.12277850  0.37572650  0.99651500  1
  Pb  Pb40  1  0.87722150  0.37572650  0.50348500  1
  Pb  Pb41  1  0.77207000  0.37723000  0.84177400  1
  Pb  Pb42  1  0.77207000  0.62277000  0.34177400  1
  Pb  Pb43  1  0.22793000  0.62277000  0.15822600  1
  Pb  Pb44  1  0.12544350  0.12611650  0.50116400  1
  Pb  Pb45  1  0.22793000  0.37723000  0.65822600  1
  Pb  Pb46  1  0.87722150  0.62427350  0.00348500  1
  Pb  Pb47  1  0.76816800  0.62572500  0.15843100  1
  O  O48  1  0.71266850  0.87345550  0.54477800  1
  O  O49  1  0.50897300  0.37498100  0.83291500  1
  O  O50  1  0.21183150  0.12339950  0.04610900  1
  O  O51  1  0.28733150  0.12654450  0.45522200  1
  O  O52  1  0.60770300  0.10515600  0.63894500  1
  O  O53  1  0.61553350  0.91038250  0.37469600  1
  O  O54  1  0.38446650  0.91038250  0.12530400  1
  O  O55  1  0.39229700  0.89484400  0.36105500  1
  O  O56  1  0.60604750  0.64657650  0.63778600  1
  O  O57  1  0.39395250  0.35342350  0.36221400  1
  O  O58  1  0.21183150  0.87660050  0.54610900  1
  O  O59  1  0.61646050  0.34197450  0.37451700  1
  O  O60  1  0.78816850  0.87660050  0.95389100  1
  O  O61  1  0.50000000  0.35455500  0.25000000  1
  O  O62  1  0.60770300  0.89484400  0.13894500  1
  O  O63  1  0.61646050  0.65802550  0.87451700  1
  O  O64  1  0.38353950  0.34197450  0.12548300  1
  O  O65  1  0.38446650  0.08961750  0.62530400  1
  O  O66  1  0.49102700  0.37498100  0.66708500  1
  O  O67  1  0.49102700  0.62501900  0.16708500  1
  O  O68  1  0.78816850  0.12339950  0.45389100  1
  O  O69  1  0.50000000  0.64544500  0.75000000  1
  O  O70  1  0.39229700  0.10515600  0.86105500  1
  O  O71  1  0.61553350  0.08961750  0.87469600  1
  O  O72  1  0.50000000  0.10308100  0.75000000  1
  O  O73  1  0.39395250  0.64657650  0.86221400  1
  O  O74  1  0.28733150  0.87345550  0.95522200  1
  O  O75  1  0.50000000  0.89691900  0.25000000  1
  O  O76  1  0.50897300  0.62501900  0.33291500  1
  O  O77  1  0.71266850  0.12654450  0.04477800  1
  O  O78  1  0.38353950  0.65802550  0.62548300  1
  O  O79  1  0.60604750  0.35342350  0.13778600  1
  O  O80  1  0.21266850  0.37345550  0.54477800  1
  O  O81  1  0.00897300  0.87498100  0.83291500  1
  O  O82  1  0.71183150  0.62339950  0.04610900  1
  O  O83  1  0.78733150  0.62654450  0.45522200  1
  O  O84  1  0.10770300  0.60515600  0.63894500  1
  O  O85  1  0.11553350  0.41038250  0.37469600  1
  O  O86  1  0.88446650  0.41038250  0.12530400  1
  O  O87  1  0.89229700  0.39484400  0.36105500  1
  O  O88  1  0.10604750  0.14657650  0.63778600  1
  O  O89  1  0.89395250  0.85342350  0.36221400  1
  O  O90  1  0.71183150  0.37660050  0.54610900  1
  O  O91  1  0.11646050  0.84197450  0.37451700  1
  O  O92  1  0.28816850  0.37660050  0.95389100  1
  O  O93  1  0.00000000  0.85455500  0.25000000  1
  O  O94  1  0.10770300  0.39484400  0.13894500  1
  O  O95  1  0.11646050  0.15802550  0.87451700  1
  O  O96  1  0.88353950  0.84197450  0.12548300  1
  O  O97  1  0.88446650  0.58961750  0.62530400  1
  O  O98  1  0.99102700  0.87498100  0.66708500  1
  O  O99  1  0.99102700  0.12501900  0.16708500  1
  O  O100  1  0.28816850  0.62339950  0.45389100  1
  O  O101  1  0.00000000  0.14544500  0.75000000  1
  O  O102  1  0.89229700  0.60515600  0.86105500  1
  O  O103  1  0.11553350  0.58961750  0.87469600  1
  O  O104  1  0.00000000  0.60308100  0.75000000  1
  O  O105  1  0.89395250  0.14657650  0.86221400  1
  O  O106  1  0.78733150  0.37345550  0.95522200  1
  O  O107  1  0.00000000  0.39691900  0.25000000  1
  O  O108  1  0.00897300  0.12501900  0.33291500  1
  O  O109  1  0.21266850  0.62654450  0.04477800  1
  O  O110  1  0.88353950  0.15802550  0.62548300  1
  O  O111  1  0.10604750  0.85342350  0.13778600  1
