# generated using pymatgen
data_CaGaBO4
_symmetry_space_group_name_H-M   'P 1'
_cell_length_a   8.49038200
_cell_length_b   15.52861400
_cell_length_c   5.90388200
_cell_angle_alpha   90.00000000
_cell_angle_beta   90.00000000
_cell_angle_gamma   90.00000000
_symmetry_Int_Tables_number   1
_chemical_formula_structural   CaGaBO4
_chemical_formula_sum   'Ca8 Ga8 B8 O32'
_cell_volume   778.39062015
_cell_formula_units_Z   8
loop_
 _symmetry_equiv_pos_site_id
 _symmetry_equiv_pos_as_xyz
  1  'x, y, z'
loop_
 _atom_site_type_symbol
 _atom_site_label
 _atom_site_symmetry_multiplicity
 _atom_site_fract_x
 _atom_site_fract_y
 _atom_site_fract_z
 _atom_site_occupancy
  Ca  Ca0  1  0.64004350  0.09206750  0.10232800  1
  Ca  Ca1  1  0.35995650  0.09206750  0.60232800  1
  Ca  Ca2  1  0.85995650  0.40793250  0.10232800  1
  Ca  Ca3  1  0.14004350  0.40793250  0.60232800  1
  Ca  Ca4  1  0.14004350  0.59206750  0.10232800  1
  Ca  Ca5  1  0.85995650  0.59206750  0.60232800  1
  Ca  Ca6  1  0.35995650  0.90793250  0.10232800  1
  Ca  Ca7  1  0.64004350  0.90793250  0.60232800  1
  Ga  Ga8  1  0.98500650  0.20182650  0.37449500  1
  Ga  Ga9  1  0.48500650  0.29817350  0.87449500  1
  Ga  Ga10  1  0.01499350  0.20182650  0.87449500  1
  Ga  Ga11  1  0.51499350  0.29817350  0.37449500  1
  Ga  Ga12  1  0.48500650  0.70182650  0.37449500  1
  Ga  Ga13  1  0.98500650  0.79817350  0.87449500  1
  Ga  Ga14  1  0.51499350  0.70182650  0.87449500  1
  Ga  Ga15  1  0.01499350  0.79817350  0.37449500  1
  B  B16  1  0.23988550  0.10584150  0.13980600  1
  B  B17  1  0.76011450  0.10584150  0.63980600  1
  B  B18  1  0.26011450  0.39415850  0.13980600  1
  B  B19  1  0.73988550  0.39415850  0.63980600  1
  B  B20  1  0.73988550  0.60584150  0.13980600  1
  B  B21  1  0.26011450  0.60584150  0.63980600  1
  B  B22  1  0.76011450  0.89415850  0.13980600  1
  B  B23  1  0.23988550  0.89415850  0.63980600  1
  O  O24  1  0.84324000  0.12735100  0.83494000  1
  O  O25  1  0.62715600  0.05702500  0.67114900  1
  O  O26  1  0.53708600  0.23188600  0.12036000  1
  O  O27  1  0.12715600  0.44297500  0.17114900  1
  O  O28  1  0.87284400  0.44297500  0.67114900  1
  O  O29  1  0.19249950  0.13071950  0.92292200  1
  O  O30  1  0.46291400  0.23188600  0.62036000  1
  O  O31  1  0.03708600  0.26811400  0.62036000  1
  O  O32  1  0.80750050  0.13071950  0.42292200  1
  O  O33  1  0.15676000  0.12735100  0.33494000  1
  O  O34  1  0.30750050  0.36928050  0.92292200  1
  O  O35  1  0.96291400  0.26811400  0.12036000  1
  O  O36  1  0.34324000  0.37264900  0.33494000  1
  O  O37  1  0.65676000  0.37264900  0.83494000  1
  O  O38  1  0.37284400  0.05702500  0.17114900  1
  O  O39  1  0.69249950  0.36928050  0.42292200  1
  O  O40  1  0.34324000  0.62735100  0.83494000  1
  O  O41  1  0.12715600  0.55702500  0.67114900  1
  O  O42  1  0.03708600  0.73188600  0.12036000  1
  O  O43  1  0.62715600  0.94297500  0.17114900  1
  O  O44  1  0.37284400  0.94297500  0.67114900  1
  O  O45  1  0.69249950  0.63071950  0.92292200  1
  O  O46  1  0.96291400  0.73188600  0.62036000  1
  O  O47  1  0.53708600  0.76811400  0.62036000  1
  O  O48  1  0.30750050  0.63071950  0.42292200  1
  O  O49  1  0.65676000  0.62735100  0.33494000  1
  O  O50  1  0.80750050  0.86928050  0.92292200  1
  O  O51  1  0.46291400  0.76811400  0.12036000  1
  O  O52  1  0.84324000  0.87264900  0.33494000  1
  O  O53  1  0.15676000  0.87264900  0.83494000  1
  O  O54  1  0.87284400  0.55702500  0.17114900  1
  O  O55  1  0.19249950  0.86928050  0.42292200  1
