# generated using pymatgen
data_Ba3Zn6Si4TeO20
_symmetry_space_group_name_H-M   'P 1'
_cell_length_a   16.18286400
_cell_length_b   11.67772400
_cell_length_c   5.20855879
_cell_angle_alpha   90.00000000
_cell_angle_beta   107.33771945
_cell_angle_gamma   90.00000000
_symmetry_Int_Tables_number   1
_chemical_formula_structural   Ba3Zn6Si4TeO20
_chemical_formula_sum   'Ba6 Zn12 Si8 Te2 O40'
_cell_volume   939.58610902
_cell_formula_units_Z   2
loop_
 _symmetry_equiv_pos_site_id
 _symmetry_equiv_pos_as_xyz
  1  'x, y, z'
loop_
 _atom_site_type_symbol
 _atom_site_label
 _atom_site_symmetry_multiplicity
 _atom_site_fract_x
 _atom_site_fract_y
 _atom_site_fract_z
 _atom_site_occupancy
  Ba  Ba0  1  0.78701800  0.00000000  0.25250400  1
  Ba  Ba1  1  0.21298200  0.00000000  0.74749600  1
  Ba  Ba2  1  0.50000000  0.00000000  0.00000000  1
  Ba  Ba3  1  0.28701800  0.50000000  0.25250400  1
  Ba  Ba4  1  0.71298200  0.50000000  0.74749600  1
  Ba  Ba5  1  0.00000000  0.50000000  0.00000000  1
  Zn  Zn6  1  0.50000000  0.34386700  0.50000000  1
  Zn  Zn7  1  0.50000000  0.65613300  0.50000000  1
  Zn  Zn8  1  0.64374050  0.27953950  0.17236800  1
  Zn  Zn9  1  0.35625950  0.27953950  0.82763200  1
  Zn  Zn10  1  0.35625950  0.72046050  0.82763200  1
  Zn  Zn11  1  0.64374050  0.72046050  0.17236800  1
  Zn  Zn12  1  0.00000000  0.84386700  0.50000000  1
  Zn  Zn13  1  0.00000000  0.15613300  0.50000000  1
  Zn  Zn14  1  0.14374050  0.77953950  0.17236800  1
  Zn  Zn15  1  0.85625950  0.77953950  0.82763200  1
  Zn  Zn16  1  0.85625950  0.22046050  0.82763200  1
  Zn  Zn17  1  0.14374050  0.22046050  0.17236800  1
  Si  Si18  1  0.65000800  0.13059400  0.65832500  1
  Si  Si19  1  0.34999200  0.13059400  0.34167500  1
  Si  Si20  1  0.34999200  0.86940600  0.34167500  1
  Si  Si21  1  0.65000800  0.86940600  0.65832500  1
  Si  Si22  1  0.15000800  0.63059400  0.65832500  1
  Si  Si23  1  0.84999200  0.63059400  0.34167500  1
  Si  Si24  1  0.84999200  0.36940600  0.34167500  1
  Si  Si25  1  0.15000800  0.36940600  0.65832500  1
  Te  Te26  1  0.00000000  0.00000000  0.00000000  1
  Te  Te27  1  0.50000000  0.50000000  0.00000000  1
  O  O28  1  0.75044050  0.13362150  0.65862600  1
  O  O29  1  0.24955950  0.13362150  0.34137400  1
  O  O30  1  0.24955950  0.86637850  0.34137400  1
  O  O31  1  0.75044050  0.86637850  0.65862600  1
  O  O32  1  0.59029750  0.22475250  0.44932600  1
  O  O33  1  0.40970250  0.22475250  0.55067400  1
  O  O34  1  0.40970250  0.77524750  0.55067400  1
  O  O35  1  0.59029750  0.77524750  0.44932600  1
  O  O36  1  0.64134650  0.13590150  0.96387000  1
  O  O37  1  0.35865350  0.13590150  0.03613000  1
  O  O38  1  0.35865350  0.86409850  0.03613000  1
  O  O39  1  0.64134650  0.86409850  0.96387000  1
  O  O40  1  0.92993000  0.00000000  0.63304500  1
  O  O41  1  0.07007000  0.00000000  0.36695500  1
  O  O42  1  0.57098950  0.38197850  0.89291900  1
  O  O43  1  0.42901050  0.38197850  0.10708100  1
  O  O44  1  0.42901050  0.61802150  0.10708100  1
  O  O45  1  0.57098950  0.61802150  0.89291900  1
  O  O46  1  0.61004500  0.00000000  0.53639300  1
  O  O47  1  0.38995500  0.00000000  0.46360700  1
  O  O48  1  0.25044050  0.63362150  0.65862600  1
  O  O49  1  0.74955950  0.63362150  0.34137400  1
  O  O50  1  0.74955950  0.36637850  0.34137400  1
  O  O51  1  0.25044050  0.36637850  0.65862600  1
  O  O52  1  0.09029750  0.72475250  0.44932600  1
  O  O53  1  0.90970250  0.72475250  0.55067400  1
  O  O54  1  0.90970250  0.27524750  0.55067400  1
  O  O55  1  0.09029750  0.27524750  0.44932600  1
  O  O56  1  0.14134650  0.63590150  0.96387000  1
  O  O57  1  0.85865350  0.63590150  0.03613000  1
  O  O58  1  0.85865350  0.36409850  0.03613000  1
  O  O59  1  0.14134650  0.36409850  0.96387000  1
  O  O60  1  0.42993000  0.50000000  0.63304500  1
  O  O61  1  0.57007000  0.50000000  0.36695500  1
  O  O62  1  0.07098950  0.88197850  0.89291900  1
  O  O63  1  0.92901050  0.88197850  0.10708100  1
  O  O64  1  0.92901050  0.11802150  0.10708100  1
  O  O65  1  0.07098950  0.11802150  0.89291900  1
  O  O66  1  0.11004500  0.50000000  0.53639300  1
  O  O67  1  0.88995500  0.50000000  0.46360700  1
