# generated using pymatgen
data_Al3Pb5F19
_symmetry_space_group_name_H-M   'P 1'
_cell_length_a   14.58490800
_cell_length_b   14.58490800
_cell_length_c   7.34953600
_cell_angle_alpha   90.00000000
_cell_angle_beta   90.00000000
_cell_angle_gamma   90.00000000
_symmetry_Int_Tables_number   1
_chemical_formula_structural   Al3Pb5F19
_chemical_formula_sum   'Al12 Pb20 F76'
_cell_volume   1563.38992719
_cell_formula_units_Z   4
loop_
 _symmetry_equiv_pos_site_id
 _symmetry_equiv_pos_as_xyz
  1  'x, y, z'
loop_
 _atom_site_type_symbol
 _atom_site_label
 _atom_site_symmetry_multiplicity
 _atom_site_fract_x
 _atom_site_fract_y
 _atom_site_fract_z
 _atom_site_occupancy
  Al  Al0  1  0.33378200  0.83378200  0.00000000  1
  Al  Al1  1  0.33378200  0.16621800  0.50000000  1
  Al  Al2  1  0.66621800  0.16621800  0.00000000  1
  Al  Al3  1  0.00000000  0.00000000  0.75000000  1
  Al  Al4  1  0.00000000  0.00000000  0.25000000  1
  Al  Al5  1  0.66621800  0.83378200  0.50000000  1
  Al  Al6  1  0.83378200  0.33378200  0.50000000  1
  Al  Al7  1  0.83378200  0.66621800  0.00000000  1
  Al  Al8  1  0.16621800  0.66621800  0.50000000  1
  Al  Al9  1  0.50000000  0.50000000  0.25000000  1
  Al  Al10  1  0.50000000  0.50000000  0.75000000  1
  Al  Al11  1  0.16621800  0.33378200  0.00000000  1
  Pb  Pb12  1  0.22865100  0.07272900  0.00000000  1
  Pb  Pb13  1  0.77134900  0.92727100  0.00000000  1
  Pb  Pb14  1  0.42727100  0.72865100  0.50000000  1
  Pb  Pb15  1  0.22865100  0.92727100  0.50000000  1
  Pb  Pb16  1  0.57272900  0.72865100  0.00000000  1
  Pb  Pb17  1  0.42727100  0.27134900  0.00000000  1
  Pb  Pb18  1  0.57272900  0.27134900  0.50000000  1
  Pb  Pb19  1  0.50000000  0.00000000  0.75000000  1
  Pb  Pb20  1  0.77134900  0.07272900  0.50000000  1
  Pb  Pb21  1  0.50000000  0.00000000  0.25000000  1
  Pb  Pb22  1  0.72865100  0.57272900  0.50000000  1
  Pb  Pb23  1  0.27134900  0.42727100  0.50000000  1
  Pb  Pb24  1  0.92727100  0.22865100  0.00000000  1
  Pb  Pb25  1  0.72865100  0.42727100  0.00000000  1
  Pb  Pb26  1  0.07272900  0.22865100  0.50000000  1
  Pb  Pb27  1  0.92727100  0.77134900  0.50000000  1
  Pb  Pb28  1  0.07272900  0.77134900  0.00000000  1
  Pb  Pb29  1  0.00000000  0.50000000  0.25000000  1
  Pb  Pb30  1  0.27134900  0.57272900  0.00000000  1
  Pb  Pb31  1  0.00000000  0.50000000  0.75000000  1
  F  F32  1  0.58802000  0.41198000  0.25000000  1
  F  F33  1  0.58802000  0.58802000  0.75000000  1
  F  F34  1  0.40247200  0.22565900  0.32833300  1
  F  F35  1  0.74516800  0.24516800  0.50000000  1
  F  F36  1  0.59752800  0.77434100  0.32833300  1
  F  F37  1  0.42299400  0.07700600  0.50000000  1
  F  F38  1  0.58802000  0.41198000  0.75000000  1
  F  F39  1  0.00000000  0.00000000  0.50000000  1
  F  F40  1  0.59752800  0.77434100  0.67166700  1
  F  F41  1  0.27434100  0.90247200  0.82833300  1
  F  F42  1  0.72565900  0.09752800  0.82833300  1
  F  F43  1  0.91198000  0.08802000  0.25000000  1
  F  F44  1  0.59752800  0.22565900  0.82833300  1
  F  F45  1  0.91198000  0.08802000  0.75000000  1
  F  F46  1  0.25483200  0.24516800  0.00000000  1
  F  F47  1  0.42299400  0.92299400  0.00000000  1
  F  F48  1  0.40247200  0.22565900  0.67166700  1
  F  F49  1  0.25483200  0.75483200  0.50000000  1
  F  F50  1  0.40247200  0.77434100  0.17166700  1
  F  F51  1  0.91198000  0.91198000  0.75000000  1
  F  F52  1  0.27434100  0.09752800  0.32833300  1
  F  F53  1  0.60650100  0.10650100  0.50000000  1
  F  F54  1  0.27434100  0.09752800  0.67166700  1
  F  F55  1  0.72565900  0.90247200  0.32833300  1
  F  F56  1  0.91198000  0.91198000  0.25000000  1
  F  F57  1  0.72565900  0.09752800  0.17166700  1
  F  F58  1  0.58802000  0.58802000  0.25000000  1
  F  F59  1  0.00000000  0.00000000  0.00000000  1
  F  F60  1  0.72565900  0.90247200  0.67166700  1
  F  F61  1  0.57700600  0.92299400  0.50000000  1
  F  F62  1  0.59752800  0.22565900  0.17166700  1
  F  F63  1  0.57700600  0.07700600  0.00000000  1
  F  F64  1  0.27434100  0.90247200  0.17166700  1
  F  F65  1  0.40247200  0.77434100  0.82833300  1
  F  F66  1  0.39349900  0.10650100  0.00000000  1
  F  F67  1  0.60650100  0.89349900  0.00000000  1
  F  F68  1  0.39349900  0.89349900  0.50000000  1
  F  F69  1  0.74516800  0.75483200  0.00000000  1
  F  F70  1  0.08802000  0.91198000  0.75000000  1
  F  F71  1  0.08802000  0.08802000  0.25000000  1
  F  F72  1  0.90247200  0.72565900  0.82833300  1
  F  F73  1  0.24516800  0.74516800  0.00000000  1
  F  F74  1  0.09752800  0.27434100  0.82833300  1
  F  F75  1  0.92299400  0.57700600  0.00000000  1
  F  F76  1  0.08802000  0.91198000  0.25000000  1
  F  F77  1  0.50000000  0.50000000  0.00000000  1
  F  F78  1  0.09752800  0.27434100  0.17166700  1
  F  F79  1  0.77434100  0.40247200  0.32833300  1
  F  F80  1  0.22565900  0.59752800  0.32833300  1
  F  F81  1  0.41198000  0.58802000  0.75000000  1
  F  F82  1  0.09752800  0.72565900  0.32833300  1
  F  F83  1  0.41198000  0.58802000  0.25000000  1
  F  F84  1  0.75483200  0.74516800  0.50000000  1
  F  F85  1  0.92299400  0.42299400  0.50000000  1
  F  F86  1  0.90247200  0.72565900  0.17166700  1
  F  F87  1  0.75483200  0.25483200  0.00000000  1
  F  F88  1  0.90247200  0.27434100  0.67166700  1
  F  F89  1  0.41198000  0.41198000  0.25000000  1
  F  F90  1  0.77434100  0.59752800  0.82833300  1
  F  F91  1  0.10650100  0.60650100  0.00000000  1
  F  F92  1  0.77434100  0.59752800  0.17166700  1
  F  F93  1  0.22565900  0.40247200  0.82833300  1
  F  F94  1  0.41198000  0.41198000  0.75000000  1
  F  F95  1  0.22565900  0.59752800  0.67166700  1
  F  F96  1  0.08802000  0.08802000  0.75000000  1
  F  F97  1  0.50000000  0.50000000  0.50000000  1
  F  F98  1  0.22565900  0.40247200  0.17166700  1
  F  F99  1  0.07700600  0.42299400  0.00000000  1
  F  F100  1  0.09752800  0.72565900  0.67166700  1
  F  F101  1  0.07700600  0.57700600  0.50000000  1
  F  F102  1  0.77434100  0.40247200  0.67166700  1
  F  F103  1  0.90247200  0.27434100  0.32833300  1
  F  F104  1  0.89349900  0.60650100  0.50000000  1
  F  F105  1  0.10650100  0.39349900  0.50000000  1
  F  F106  1  0.89349900  0.39349900  0.00000000  1
  F  F107  1  0.24516800  0.25483200  0.50000000  1
