# generated using pymatgen
data_YP5O14
_symmetry_space_group_name_H-M   'P 1'
_cell_length_a   13.04977600
_cell_length_b   12.94271400
_cell_length_c   12.62279268
_cell_angle_alpha   90.00000000
_cell_angle_beta   91.52411001
_cell_angle_gamma   90.00000000
_symmetry_Int_Tables_number   1
_chemical_formula_structural   YP5O14
_chemical_formula_sum   'Y8 P40 O112'
_cell_volume   2131.22935498
_cell_formula_units_Z   8
loop_
 _symmetry_equiv_pos_site_id
 _symmetry_equiv_pos_as_xyz
  1  'x, y, z'
loop_
 _atom_site_type_symbol
 _atom_site_label
 _atom_site_symmetry_multiplicity
 _atom_site_fract_x
 _atom_site_fract_y
 _atom_site_fract_z
 _atom_site_occupancy
  Y  Y0  1  0.00000000  0.96787000  0.25000000  1
  Y  Y1  1  0.00000000  0.47876200  0.75000000  1
  Y  Y2  1  0.00000000  0.03213000  0.75000000  1
  Y  Y3  1  0.00000000  0.52123800  0.25000000  1
  Y  Y4  1  0.50000000  0.46787000  0.25000000  1
  Y  Y5  1  0.50000000  0.97876200  0.75000000  1
  Y  Y6  1  0.50000000  0.53213000  0.75000000  1
  Y  Y7  1  0.50000000  0.02123800  0.25000000  1
  P  P8  1  0.68194100  0.63642100  0.39040100  1
  P  P9  1  0.17835550  0.25097050  0.75856400  1
  P  P10  1  0.14602700  0.53267700  0.00032300  1
  P  P11  1  0.97600400  0.15097000  0.46645600  1
  P  P12  1  0.02399600  0.84903000  0.53354400  1
  P  P13  1  0.85397300  0.53267700  0.49967700  1
  P  P14  1  0.68194100  0.36357900  0.89040100  1
  P  P15  1  0.82164450  0.25097050  0.74143600  1
  P  P16  1  0.82164450  0.74902950  0.24143600  1
  P  P17  1  0.02399600  0.15097000  0.03354400  1
  P  P18  1  0.31805900  0.36357900  0.60959900  1
  P  P19  1  0.14825150  0.33190850  0.10474700  1
  P  P20  1  0.85174850  0.66809150  0.89525300  1
  P  P21  1  0.14825150  0.66809150  0.60474700  1
  P  P22  1  0.85174850  0.33190850  0.39525300  1
  P  P23  1  0.85397300  0.46732300  0.99967700  1
  P  P24  1  0.97600400  0.84903000  0.96645600  1
  P  P25  1  0.14602700  0.46732300  0.50032300  1
  P  P26  1  0.31805900  0.63642100  0.10959900  1
  P  P27  1  0.17835550  0.74902950  0.25856400  1
  P  P28  1  0.18194100  0.13642100  0.39040100  1
  P  P29  1  0.67835550  0.75097050  0.75856400  1
  P  P30  1  0.64602700  0.03267700  0.00032300  1
  P  P31  1  0.47600400  0.65097000  0.46645600  1
  P  P32  1  0.52399600  0.34903000  0.53354400  1
  P  P33  1  0.35397300  0.03267700  0.49967700  1
  P  P34  1  0.18194100  0.86357900  0.89040100  1
  P  P35  1  0.32164450  0.75097050  0.74143600  1
  P  P36  1  0.32164450  0.24902950  0.24143600  1
  P  P37  1  0.52399600  0.65097000  0.03354400  1
  P  P38  1  0.81805900  0.86357900  0.60959900  1
  P  P39  1  0.64825150  0.83190850  0.10474700  1
  P  P40  1  0.35174850  0.16809150  0.89525300  1
  P  P41  1  0.64825150  0.16809150  0.60474700  1
  P  P42  1  0.35174850  0.83190850  0.39525300  1
  P  P43  1  0.35397300  0.96732300  0.99967700  1
  P  P44  1  0.47600400  0.34903000  0.96645600  1
  P  P45  1  0.64602700  0.96732300  0.50032300  1
  P  P46  1  0.81805900  0.13642100  0.10959900  1
  P  P47  1  0.67835550  0.24902950  0.25856400  1
  O  O48  1  0.11655400  0.34395900  0.78209700  1
  O  O49  1  0.08541050  0.73962750  0.52462900  1
  O  O50  1  0.87006500  0.15035200  0.76902100  1
  O  O51  1  0.05950400  0.90482300  0.63139000  1
  O  O52  1  0.88344600  0.65604100  0.21790300  1
  O  O53  1  0.92345050  0.43552650  0.91353200  1
  O  O54  1  0.74142250  0.72732550  0.33631300  1
  O  O55  1  0.75680550  0.26280050  0.36157700  1
  O  O56  1  0.12993500  0.15035200  0.73097900  1
  O  O57  1  0.11456950  0.46437650  0.38695500  1
  O  O58  1  0.97518250  0.10391550  0.57330400  1
  O  O59  1  0.07654950  0.56447350  0.08646800  1
  O  O60  1  0.88543050  0.46437650  0.11304500  1
  O  O61  1  0.09201650  0.19738150  0.44429400  1
  O  O62  1  0.24319450  0.73719950  0.63842300  1
  O  O63  1  0.08541050  0.26037250  0.02462900  1
  O  O64  1  0.88344600  0.34395900  0.71790300  1
  O  O65  1  0.88543050  0.53562350  0.61304500  1
  O  O66  1  0.34822600  0.45048700  0.67930500  1
  O  O67  1  0.24319450  0.26280050  0.13842300  1
  O  O68  1  0.65177400  0.45048700  0.82069500  1
  O  O69  1  0.90798350  0.80261850  0.55570600  1
  O  O70  1  0.25857750  0.27267450  0.66368700  1
  O  O71  1  0.08924100  0.37256700  0.19354000  1
  O  O72  1  0.11655400  0.65604100  0.28209700  1
  O  O73  1  0.90798350  0.19738150  0.05570600  1
  O  O74  1  0.87006500  0.84964800  0.26902100  1
  O  O75  1  0.08924100  0.62743300  0.69354000  1
  O  O76  1  0.34822600  0.54951300  0.17930500  1
  O  O77  1  0.09201650  0.80261850  0.94429400  1
  O  O78  1  0.91458950  0.73962750  0.97537100  1
  O  O79  1  0.92345050  0.56447350  0.41353200  1
  O  O80  1  0.25060100  0.60176700  0.00943500  1
  O  O81  1  0.91075900  0.37256700  0.30646000  1
  O  O82  1  0.97518250  0.89608450  0.07330400  1
  O  O83  1  0.19363150  0.58334150  0.52867800  1
  O  O84  1  0.74939900  0.39823300  0.99056500  1
  O  O85  1  0.75680550  0.73719950  0.86157700  1
  O  O86  1  0.91458950  0.26037250  0.47537100  1
  O  O87  1  0.74939900  0.60176700  0.49056500  1
  O  O88  1  0.91075900  0.62743300  0.80646000  1
  O  O89  1  0.12993500  0.84964800  0.23097900  1
  O  O90  1  0.19363150  0.41665850  0.02867800  1
  O  O91  1  0.07654950  0.43552650  0.58646800  1
  O  O92  1  0.25857750  0.72732550  0.16368700  1
  O  O93  1  0.02481750  0.89608450  0.42669600  1
  O  O94  1  0.11456950  0.53562350  0.88695500  1
  O  O95  1  0.65177400  0.54951300  0.32069500  1
  O  O96  1  0.80636850  0.58334150  0.97132200  1
  O  O97  1  0.94049600  0.90482300  0.86861000  1
  O  O98  1  0.80636850  0.41665850  0.47132200  1
  O  O99  1  0.05950400  0.09517700  0.13139000  1
  O  O100  1  0.02481750  0.10391550  0.92669600  1
  O  O101  1  0.94049600  0.09517700  0.36861000  1
  O  O102  1  0.74142250  0.27267450  0.83631300  1
  O  O103  1  0.25060100  0.39823300  0.50943500  1
  O  O104  1  0.61655400  0.84395900  0.78209700  1
  O  O105  1  0.58541050  0.23962750  0.52462900  1
  O  O106  1  0.37006500  0.65035200  0.76902100  1
  O  O107  1  0.55950400  0.40482300  0.63139000  1
  O  O108  1  0.38344600  0.15604100  0.21790300  1
  O  O109  1  0.42345050  0.93552650  0.91353200  1
  O  O110  1  0.24142250  0.22732550  0.33631300  1
  O  O111  1  0.25680550  0.76280050  0.36157700  1
  O  O112  1  0.62993500  0.65035200  0.73097900  1
  O  O113  1  0.61456950  0.96437650  0.38695500  1
  O  O114  1  0.47518250  0.60391550  0.57330400  1
  O  O115  1  0.57654950  0.06447350  0.08646800  1
  O  O116  1  0.38543050  0.96437650  0.11304500  1
  O  O117  1  0.59201650  0.69738150  0.44429400  1
  O  O118  1  0.74319450  0.23719950  0.63842300  1
  O  O119  1  0.58541050  0.76037250  0.02462900  1
  O  O120  1  0.38344600  0.84395900  0.71790300  1
  O  O121  1  0.38543050  0.03562350  0.61304500  1
  O  O122  1  0.84822600  0.95048700  0.67930500  1
  O  O123  1  0.74319450  0.76280050  0.13842300  1
  O  O124  1  0.15177400  0.95048700  0.82069500  1
  O  O125  1  0.40798350  0.30261850  0.55570600  1
  O  O126  1  0.75857750  0.77267450  0.66368700  1
  O  O127  1  0.58924100  0.87256700  0.19354000  1
  O  O128  1  0.61655400  0.15604100  0.28209700  1
  O  O129  1  0.40798350  0.69738150  0.05570600  1
  O  O130  1  0.37006500  0.34964800  0.26902100  1
  O  O131  1  0.58924100  0.12743300  0.69354000  1
  O  O132  1  0.84822600  0.04951300  0.17930500  1
  O  O133  1  0.59201650  0.30261850  0.94429400  1
  O  O134  1  0.41458950  0.23962750  0.97537100  1
  O  O135  1  0.42345050  0.06447350  0.41353200  1
  O  O136  1  0.75060100  0.10176700  0.00943500  1
  O  O137  1  0.41075900  0.87256700  0.30646000  1
  O  O138  1  0.47518250  0.39608450  0.07330400  1
  O  O139  1  0.69363150  0.08334150  0.52867800  1
  O  O140  1  0.24939900  0.89823300  0.99056500  1
  O  O141  1  0.25680550  0.23719950  0.86157700  1
  O  O142  1  0.41458950  0.76037250  0.47537100  1
  O  O143  1  0.24939900  0.10176700  0.49056500  1
  O  O144  1  0.41075900  0.12743300  0.80646000  1
  O  O145  1  0.62993500  0.34964800  0.23097900  1
  O  O146  1  0.69363150  0.91665850  0.02867800  1
  O  O147  1  0.57654950  0.93552650  0.58646800  1
  O  O148  1  0.75857750  0.22732550  0.16368700  1
  O  O149  1  0.52481750  0.39608450  0.42669600  1
  O  O150  1  0.61456950  0.03562350  0.88695500  1
  O  O151  1  0.15177400  0.04951300  0.32069500  1
  O  O152  1  0.30636850  0.08334150  0.97132200  1
  O  O153  1  0.44049600  0.40482300  0.86861000  1
  O  O154  1  0.30636850  0.91665850  0.47132200  1
  O  O155  1  0.55950400  0.59517700  0.13139000  1
  O  O156  1  0.52481750  0.60391550  0.92669600  1
  O  O157  1  0.44049600  0.59517700  0.36861000  1
  O  O158  1  0.24142250  0.77267450  0.83631300  1
  O  O159  1  0.75060100  0.89823300  0.50943500  1
