# generated using pymatgen
data_Mg2PClO4
_symmetry_space_group_name_H-M   'P 1'
_cell_length_a   4.86496100
_cell_length_b   8.01069300
_cell_length_c   11.06794900
_cell_angle_alpha   90.00000000
_cell_angle_beta   90.00000000
_cell_angle_gamma   90.00000000
_symmetry_Int_Tables_number   1
_chemical_formula_structural   Mg2PClO4
_chemical_formula_sum   'Mg8 P4 Cl4 O16'
_cell_volume   431.33688796
_cell_formula_units_Z   4
loop_
 _symmetry_equiv_pos_site_id
 _symmetry_equiv_pos_as_xyz
  1  'x, y, z'
loop_
 _atom_site_type_symbol
 _atom_site_label
 _atom_site_symmetry_multiplicity
 _atom_site_fract_x
 _atom_site_fract_y
 _atom_site_fract_z
 _atom_site_occupancy
  Mg  Mg0  1  0.50720700  0.16327900  0.37248300  1
  Mg  Mg1  1  0.00720700  0.83672100  0.62751700  1
  Mg  Mg2  1  0.00053900  0.40163800  0.62170700  1
  Mg  Mg3  1  0.00720700  0.66327900  0.12751700  1
  Mg  Mg4  1  0.50720700  0.33672100  0.87248300  1
  Mg  Mg5  1  0.50053900  0.90163800  0.87829300  1
  Mg  Mg6  1  0.00053900  0.09836200  0.12170700  1
  Mg  Mg7  1  0.50053900  0.59836200  0.37829300  1
  P  P8  1  0.95285600  0.12050100  0.83364800  1
  P  P9  1  0.45285600  0.87949900  0.16635200  1
  P  P10  1  0.95285600  0.37949900  0.33364800  1
  P  P11  1  0.45285600  0.62050100  0.66635200  1
  Cl  Cl12  1  0.25764500  0.37805000  0.06212400  1
  Cl  Cl13  1  0.75764500  0.62195000  0.93787600  1
  Cl  Cl14  1  0.75764500  0.87805000  0.43787600  1
  Cl  Cl15  1  0.25764500  0.12195000  0.56212400  1
  O  O16  1  0.34728200  0.46019900  0.72955700  1
  O  O17  1  0.34786600  0.77832200  0.73308600  1
  O  O18  1  0.76871100  0.61961200  0.65182200  1
  O  O19  1  0.84786600  0.22167800  0.26691400  1
  O  O20  1  0.79679500  0.12314000  0.95794800  1
  O  O21  1  0.26871100  0.38038800  0.34817800  1
  O  O22  1  0.76871100  0.88038800  0.15182200  1
  O  O23  1  0.84728200  0.53980100  0.27044300  1
  O  O24  1  0.79679500  0.37686000  0.45794800  1
  O  O25  1  0.34786600  0.72167800  0.23308600  1
  O  O26  1  0.29679500  0.62314000  0.54205200  1
  O  O27  1  0.26871100  0.11961200  0.84817800  1
  O  O28  1  0.29679500  0.87686000  0.04205200  1
  O  O29  1  0.84728200  0.96019900  0.77044300  1
  O  O30  1  0.84786600  0.27832200  0.76691400  1
  O  O31  1  0.34728200  0.03980100  0.22955700  1
