# generated using pymatgen
data_Fe(PO3)3
_symmetry_space_group_name_H-M   'P 1'
_cell_length_a   6.70235132
_cell_length_b   6.89783480
_cell_length_c   7.36177452
_cell_angle_alpha   101.59093053
_cell_angle_beta   93.15119414
_cell_angle_gamma   93.78978998
_symmetry_Int_Tables_number   1
_chemical_formula_structural   Fe(PO3)3
_chemical_formula_sum   'Fe2 P6 O18'
_cell_volume   331.86571012
_cell_formula_units_Z   2
loop_
 _symmetry_equiv_pos_site_id
 _symmetry_equiv_pos_as_xyz
  1  'x, y, z'
loop_
 _atom_site_type_symbol
 _atom_site_label
 _atom_site_symmetry_multiplicity
 _atom_site_fract_x
 _atom_site_fract_y
 _atom_site_fract_z
 _atom_site_occupancy
  Fe  Fe0  1  0.83548800  0.90317500  0.14358000  1
  Fe  Fe1  1  0.16451200  0.09682500  0.85642000  1
  P  P2  1  0.85573400  0.79627050  0.55723900  1
  P  P3  1  0.14426600  0.20372950  0.44276100  1
  P  P4  1  0.66748100  0.11573500  0.79847300  1
  P  P5  1  0.33251900  0.88426500  0.20152700  1
  P  P6  1  0.66526350  0.55580600  0.79955300  1
  P  P7  1  0.33473650  0.44419400  0.20044700  1
  O  O8  1  0.95030900  0.14523600  0.32385300  1
  O  O9  1  0.04969100  0.85476400  0.67614700  1
  O  O10  1  0.86943350  0.75761350  0.34989000  1
  O  O11  1  0.13056650  0.24238650  0.65011000  1
  O  O12  1  0.83029550  0.08124800  0.94017900  1
  O  O13  1  0.16970450  0.91875200  0.05982100  1
  O  O14  1  0.81905000  0.66226100  0.95355600  1
  O  O15  1  0.18095000  0.33773900  0.04644400  1
  O  O16  1  0.70209050  0.96928600  0.60523300  1
  O  O17  1  0.29790950  0.03071400  0.39476700  1
  O  O18  1  0.74383750  0.60560800  0.60473100  1
  O  O19  1  0.25616250  0.39439200  0.39526900  1
  O  O20  1  0.71734250  0.32451200  0.75065800  1
  O  O21  1  0.28265750  0.67548800  0.24934200  1
  O  O22  1  0.54938500  0.41824350  0.18692100  1
  O  O23  1  0.45061500  0.58175650  0.81307900  1
  O  O24  1  0.54697400  0.92108550  0.16314300  1
  O  O25  1  0.45302600  0.07891450  0.83685700  1
