# generated using pymatgen
data_Cs2KMnF6
_symmetry_space_group_name_H-M   'P 1'
_cell_length_a   6.42209600
_cell_length_b   6.42209600
_cell_length_c   9.50577200
_cell_angle_alpha   90.00000000
_cell_angle_beta   90.00000000
_cell_angle_gamma   90.00000000
_symmetry_Int_Tables_number   1
_chemical_formula_structural   Cs2KMnF6
_chemical_formula_sum   'Cs4 K2 Mn2 F12'
_cell_volume   392.04956824
_cell_formula_units_Z   2
loop_
 _symmetry_equiv_pos_site_id
 _symmetry_equiv_pos_as_xyz
  1  'x, y, z'
loop_
 _atom_site_type_symbol
 _atom_site_label
 _atom_site_symmetry_multiplicity
 _atom_site_fract_x
 _atom_site_fract_y
 _atom_site_fract_z
 _atom_site_occupancy
  Cs  Cs0  1  0.00000000  0.50000000  0.25000000  1
  Cs  Cs1  1  0.50000000  0.00000000  0.25000000  1
  Cs  Cs2  1  0.50000000  0.00000000  0.75000000  1
  Cs  Cs3  1  0.00000000  0.50000000  0.75000000  1
  K  K4  1  0.50000000  0.50000000  0.00000000  1
  K  K5  1  0.00000000  0.00000000  0.50000000  1
  Mn  Mn6  1  0.00000000  0.00000000  0.00000000  1
  Mn  Mn7  1  0.50000000  0.50000000  0.50000000  1
  F  F8  1  0.50000000  0.50000000  0.27449200  1
  F  F9  1  0.00000000  0.00000000  0.22550800  1
  F  F10  1  0.78962900  0.78962900  0.00000000  1
  F  F11  1  0.21037100  0.78962900  0.00000000  1
  F  F12  1  0.21037100  0.21037100  0.00000000  1
  F  F13  1  0.78962900  0.21037100  0.00000000  1
  F  F14  1  0.00000000  0.00000000  0.77449200  1
  F  F15  1  0.50000000  0.50000000  0.72550800  1
  F  F16  1  0.28962900  0.28962900  0.50000000  1
  F  F17  1  0.71037100  0.28962900  0.50000000  1
  F  F18  1  0.71037100  0.71037100  0.50000000  1
  F  F19  1  0.28962900  0.71037100  0.50000000  1
