# generated using pymatgen
data_LaPS4
_symmetry_space_group_name_H-M   'P 1'
_cell_length_a   11.18700200
_cell_length_b   11.18700200
_cell_length_c   19.58796600
_cell_angle_alpha   90.00000000
_cell_angle_beta   90.00000000
_cell_angle_gamma   90.00000000
_symmetry_Int_Tables_number   1
_chemical_formula_structural   LaPS4
_chemical_formula_sum   'La16 P16 S64'
_cell_volume   2451.41462623
_cell_formula_units_Z   16
loop_
 _symmetry_equiv_pos_site_id
 _symmetry_equiv_pos_as_xyz
  1  'x, y, z'
loop_
 _atom_site_type_symbol
 _atom_site_label
 _atom_site_symmetry_multiplicity
 _atom_site_fract_x
 _atom_site_fract_y
 _atom_site_fract_z
 _atom_site_occupancy
  La  La0  1  0.00000000  0.00000000  0.25000000  1
  La  La1  1  0.50000000  0.50000000  0.25000000  1
  La  La2  1  0.00000000  0.50000000  0.25000000  1
  La  La3  1  0.50000000  0.00000000  0.25000000  1
  La  La4  1  0.00000000  0.00000000  0.00000000  1
  La  La5  1  0.50000000  0.50000000  0.00000000  1
  La  La6  1  0.50000000  0.00000000  0.00000000  1
  La  La7  1  0.00000000  0.50000000  0.00000000  1
  La  La8  1  0.50000000  0.50000000  0.75000000  1
  La  La9  1  0.00000000  0.00000000  0.75000000  1
  La  La10  1  0.50000000  0.00000000  0.75000000  1
  La  La11  1  0.00000000  0.50000000  0.75000000  1
  La  La12  1  0.50000000  0.50000000  0.50000000  1
  La  La13  1  0.00000000  0.00000000  0.50000000  1
  La  La14  1  0.00000000  0.50000000  0.50000000  1
  La  La15  1  0.50000000  0.00000000  0.50000000  1
  P  P16  1  0.75000000  0.96402700  0.12500000  1
  P  P17  1  0.25000000  0.03597300  0.12500000  1
  P  P18  1  0.75000000  0.46402700  0.12500000  1
  P  P19  1  0.25000000  0.53597300  0.12500000  1
  P  P20  1  0.46402700  0.75000000  0.37500000  1
  P  P21  1  0.96402700  0.75000000  0.37500000  1
  P  P22  1  0.53597300  0.25000000  0.37500000  1
  P  P23  1  0.03597300  0.25000000  0.37500000  1
  P  P24  1  0.25000000  0.46402700  0.62500000  1
  P  P25  1  0.75000000  0.53597300  0.62500000  1
  P  P26  1  0.25000000  0.96402700  0.62500000  1
  P  P27  1  0.75000000  0.03597300  0.62500000  1
  P  P28  1  0.96402700  0.25000000  0.87500000  1
  P  P29  1  0.46402700  0.25000000  0.87500000  1
  P  P30  1  0.03597300  0.75000000  0.87500000  1
  P  P31  1  0.53597300  0.75000000  0.87500000  1
  S  S32  1  0.59529750  0.36538750  0.12633650  1
  S  S33  1  0.86538750  0.59529750  0.37633650  1
  S  S34  1  0.25139050  0.43311650  0.03841450  1
  S  S35  1  0.13461250  0.40470250  0.37633650  1
  S  S36  1  0.90470250  0.86538750  0.12633650  1
  S  S37  1  0.86538750  0.90470250  0.37366350  1
  S  S38  1  0.24860950  0.43311650  0.21158550  1
  S  S39  1  0.93311650  0.25139050  0.28841450  1
  S  S40  1  0.36538750  0.59529750  0.37366350  1
  S  S41  1  0.13461250  0.09529750  0.37366350  1
  S  S42  1  0.56688350  0.75139050  0.28841450  1
  S  S43  1  0.74860950  0.06688350  0.21158550  1
  S  S44  1  0.75139050  0.06688350  0.03841450  1
  S  S45  1  0.09529750  0.13461250  0.12633650  1
  S  S46  1  0.90470250  0.36538750  0.12366350  1
  S  S47  1  0.59529750  0.86538750  0.12366350  1
  S  S48  1  0.25139050  0.93311650  0.21158550  1
  S  S49  1  0.56688350  0.74860950  0.46158550  1
  S  S50  1  0.43311650  0.25139050  0.46158550  1
  S  S51  1  0.63461250  0.40470250  0.37366350  1
  S  S52  1  0.36538750  0.90470250  0.37633650  1
  S  S53  1  0.74860950  0.56688350  0.03841450  1
  S  S54  1  0.63461250  0.09529750  0.37633650  1
  S  S55  1  0.06688350  0.74860950  0.28841450  1
  S  S56  1  0.24860950  0.93311650  0.03841450  1
  S  S57  1  0.75139050  0.56688350  0.21158550  1
  S  S58  1  0.40470250  0.63461250  0.12633650  1
  S  S59  1  0.09529750  0.63461250  0.12366350  1
  S  S60  1  0.43311650  0.24860950  0.28841450  1
  S  S61  1  0.06688350  0.75139050  0.46158550  1
  S  S62  1  0.93311650  0.24860950  0.46158550  1
  S  S63  1  0.40470250  0.13461250  0.12366350  1
  S  S64  1  0.09529750  0.86538750  0.62633650  1
  S  S65  1  0.36538750  0.09529750  0.87633650  1
  S  S66  1  0.75139050  0.93311650  0.53841450  1
  S  S67  1  0.63461250  0.90470250  0.87633650  1
  S  S68  1  0.40470250  0.36538750  0.62633650  1
  S  S69  1  0.36538750  0.40470250  0.87366350  1
  S  S70  1  0.74860950  0.93311650  0.71158550  1
  S  S71  1  0.43311650  0.75139050  0.78841450  1
  S  S72  1  0.86538750  0.09529750  0.87366350  1
  S  S73  1  0.63461250  0.59529750  0.87366350  1
  S  S74  1  0.06688350  0.25139050  0.78841450  1
  S  S75  1  0.24860950  0.56688350  0.71158550  1
  S  S76  1  0.25139050  0.56688350  0.53841450  1
  S  S77  1  0.59529750  0.63461250  0.62633650  1
  S  S78  1  0.40470250  0.86538750  0.62366350  1
  S  S79  1  0.09529750  0.36538750  0.62366350  1
  S  S80  1  0.75139050  0.43311650  0.71158550  1
  S  S81  1  0.06688350  0.24860950  0.96158550  1
  S  S82  1  0.93311650  0.75139050  0.96158550  1
  S  S83  1  0.13461250  0.90470250  0.87366350  1
  S  S84  1  0.86538750  0.40470250  0.87633650  1
  S  S85  1  0.24860950  0.06688350  0.53841450  1
  S  S86  1  0.13461250  0.59529750  0.87633650  1
  S  S87  1  0.56688350  0.24860950  0.78841450  1
  S  S88  1  0.74860950  0.43311650  0.53841450  1
  S  S89  1  0.25139050  0.06688350  0.71158550  1
  S  S90  1  0.90470250  0.13461250  0.62633650  1
  S  S91  1  0.59529750  0.13461250  0.62366350  1
  S  S92  1  0.93311650  0.74860950  0.78841450  1
  S  S93  1  0.56688350  0.25139050  0.96158550  1
  S  S94  1  0.43311650  0.74860950  0.96158550  1
  S  S95  1  0.90470250  0.63461250  0.62366350  1
