# generated using pymatgen
data_Cs2Si2Se5
_symmetry_space_group_name_H-M   'P 1'
_cell_length_a   16.82467200
_cell_length_b   16.90588200
_cell_length_c   9.91085737
_cell_angle_alpha   90.00000000
_cell_angle_beta   102.27349481
_cell_angle_gamma   90.00000000
_symmetry_Int_Tables_number   1
_chemical_formula_structural   Cs2Si2Se5
_chemical_formula_sum   'Cs16 Si16 Se40'
_cell_volume   2754.57273067
_cell_formula_units_Z   8
loop_
 _symmetry_equiv_pos_site_id
 _symmetry_equiv_pos_as_xyz
  1  'x, y, z'
loop_
 _atom_site_type_symbol
 _atom_site_label
 _atom_site_symmetry_multiplicity
 _atom_site_fract_x
 _atom_site_fract_y
 _atom_site_fract_z
 _atom_site_occupancy
  Cs  Cs0  1  0.84474350  0.13215350  0.62966600  1
  Cs  Cs1  1  0.15525650  0.13215350  0.87033400  1
  Cs  Cs2  1  0.15525650  0.86784650  0.37033400  1
  Cs  Cs3  1  0.84474350  0.86784650  0.12966600  1
  Cs  Cs4  1  0.62916950  0.07990650  0.12237400  1
  Cs  Cs5  1  0.37083050  0.07990650  0.37762600  1
  Cs  Cs6  1  0.37083050  0.92009350  0.87762600  1
  Cs  Cs7  1  0.62916950  0.92009350  0.62237400  1
  Cs  Cs8  1  0.34474350  0.63215350  0.62966600  1
  Cs  Cs9  1  0.65525650  0.63215350  0.87033400  1
  Cs  Cs10  1  0.65525650  0.36784650  0.37033400  1
  Cs  Cs11  1  0.34474350  0.36784650  0.12966600  1
  Cs  Cs12  1  0.12916950  0.57990650  0.12237400  1
  Cs  Cs13  1  0.87083050  0.57990650  0.37762600  1
  Cs  Cs14  1  0.87083050  0.42009350  0.87762600  1
  Cs  Cs15  1  0.12916950  0.42009350  0.62237400  1
  Si  Si16  1  0.56308100  0.20495000  0.61614600  1
  Si  Si17  1  0.43691900  0.20495000  0.88385400  1
  Si  Si18  1  0.43691900  0.79505000  0.38385400  1
  Si  Si19  1  0.56308100  0.79505000  0.11614600  1
  Si  Si20  1  0.40332550  0.63705150  0.11392300  1
  Si  Si21  1  0.59667450  0.63705150  0.38607700  1
  Si  Si22  1  0.59667450  0.36294850  0.88607700  1
  Si  Si23  1  0.40332550  0.36294850  0.61392300  1
  Si  Si24  1  0.06308100  0.70495000  0.61614600  1
  Si  Si25  1  0.93691900  0.70495000  0.88385400  1
  Si  Si26  1  0.93691900  0.29505000  0.38385400  1
  Si  Si27  1  0.06308100  0.29505000  0.11614600  1
  Si  Si28  1  0.90332550  0.13705150  0.11392300  1
  Si  Si29  1  0.09667450  0.13705150  0.38607700  1
  Si  Si30  1  0.09667450  0.86294850  0.88607700  1
  Si  Si31  1  0.90332550  0.86294850  0.61392300  1
  Se  Se32  1  0.81112350  0.06522150  0.97712800  1
  Se  Se33  1  0.18887650  0.06522150  0.52287200  1
  Se  Se34  1  0.18887650  0.93477850  0.02287200  1
  Se  Se35  1  0.81112350  0.93477850  0.47712800  1
  Se  Se36  1  0.61846750  0.12890050  0.47995000  1
  Se  Se37  1  0.38153250  0.12890050  0.02005000  1
  Se  Se38  1  0.38153250  0.87109950  0.52005000  1
  Se  Se39  1  0.61846750  0.87109950  0.97995000  1
  Se  Se40  1  0.33799700  0.71764600  0.24810400  1
  Se  Se41  1  0.66200300  0.71764600  0.25189600  1
  Se  Se42  1  0.66200300  0.28235400  0.75189600  1
  Se  Se43  1  0.33799700  0.28235400  0.74810400  1
  Se  Se44  1  0.46468450  0.71821450  0.97423500  1
  Se  Se45  1  0.53531550  0.71821450  0.52576500  1
  Se  Se46  1  0.53531550  0.28178550  0.02576500  1
  Se  Se47  1  0.46468450  0.28178550  0.47423500  1
  Se  Se48  1  0.50000000  0.55676400  0.25000000  1
  Se  Se49  1  0.50000000  0.44323600  0.75000000  1
  Se  Se50  1  0.50000000  0.12223400  0.75000000  1
  Se  Se51  1  0.50000000  0.87776600  0.25000000  1
  Se  Se52  1  0.31112350  0.56522150  0.97712800  1
  Se  Se53  1  0.68887650  0.56522150  0.52287200  1
  Se  Se54  1  0.68887650  0.43477850  0.02287200  1
  Se  Se55  1  0.31112350  0.43477850  0.47712800  1
  Se  Se56  1  0.11846750  0.62890050  0.47995000  1
  Se  Se57  1  0.88153250  0.62890050  0.02005000  1
  Se  Se58  1  0.88153250  0.37109950  0.52005000  1
  Se  Se59  1  0.11846750  0.37109950  0.97995000  1
  Se  Se60  1  0.83799700  0.21764600  0.24810400  1
  Se  Se61  1  0.16200300  0.21764600  0.25189600  1
  Se  Se62  1  0.16200300  0.78235400  0.75189600  1
  Se  Se63  1  0.83799700  0.78235400  0.74810400  1
  Se  Se64  1  0.96468450  0.21821450  0.97423500  1
  Se  Se65  1  0.03531550  0.21821450  0.52576500  1
  Se  Se66  1  0.03531550  0.78178550  0.02576500  1
  Se  Se67  1  0.96468450  0.78178550  0.47423500  1
  Se  Se68  1  0.00000000  0.05676400  0.25000000  1
  Se  Se69  1  0.00000000  0.94323600  0.75000000  1
  Se  Se70  1  0.00000000  0.62223400  0.75000000  1
  Se  Se71  1  0.00000000  0.37776600  0.25000000  1
