# generated using pymatgen
data_KSbN(OF)3
_symmetry_space_group_name_H-M   'P 1'
_cell_length_a   8.01511200
_cell_length_b   8.07937700
_cell_length_c   18.42166800
_cell_angle_alpha   90.00000000
_cell_angle_beta   90.00000000
_cell_angle_gamma   90.00000000
_symmetry_Int_Tables_number   1
_chemical_formula_structural   KSbN(OF)3
_chemical_formula_sum   'K8 Sb8 N8 O24 F24'
_cell_volume   1192.93400953
_cell_formula_units_Z   8
loop_
 _symmetry_equiv_pos_site_id
 _symmetry_equiv_pos_as_xyz
  1  'x, y, z'
loop_
 _atom_site_type_symbol
 _atom_site_label
 _atom_site_symmetry_multiplicity
 _atom_site_fract_x
 _atom_site_fract_y
 _atom_site_fract_z
 _atom_site_occupancy
  K  K0  1  0.42720200  0.07557600  0.81597100  1
  K  K1  1  0.92720200  0.92442400  0.68402900  1
  K  K2  1  0.57279800  0.42442400  0.31597100  1
  K  K3  1  0.07279800  0.07557600  0.31597100  1
  K  K4  1  0.07279800  0.57557600  0.18402900  1
  K  K5  1  0.57279800  0.92442400  0.18402900  1
  K  K6  1  0.92720200  0.42442400  0.81597100  1
  K  K7  1  0.42720200  0.57557600  0.68402900  1
  Sb  Sb8  1  0.57250900  0.44593700  0.10774100  1
  Sb  Sb9  1  0.92749100  0.44593700  0.60774100  1
  Sb  Sb10  1  0.92749100  0.94593700  0.89225900  1
  Sb  Sb11  1  0.57250900  0.94593700  0.39225900  1
  Sb  Sb12  1  0.07250900  0.05406300  0.10774100  1
  Sb  Sb13  1  0.42749100  0.05406300  0.60774100  1
  Sb  Sb14  1  0.42749100  0.55406300  0.89225900  1
  Sb  Sb15  1  0.07250900  0.55406300  0.39225900  1
  N  N16  1  0.86784000  0.84987900  0.50330900  1
  N  N17  1  0.36784000  0.15012100  0.99669100  1
  N  N18  1  0.13216000  0.65012100  0.00330900  1
  N  N19  1  0.86784000  0.34987900  0.99669100  1
  N  N20  1  0.13216000  0.15012100  0.49669100  1
  N  N21  1  0.63216000  0.34987900  0.49669100  1
  N  N22  1  0.36784000  0.65012100  0.50330900  1
  N  N23  1  0.63216000  0.84987900  0.00330900  1
  O  O24  1  0.02890900  0.23592800  0.46136300  1
  O  O25  1  0.71112500  0.46658700  0.46786500  1
  O  O26  1  0.47109100  0.23592800  0.96136300  1
  O  O27  1  0.47109100  0.73592800  0.53863700  1
  O  O28  1  0.28887500  0.53341300  0.53213500  1
  O  O29  1  0.97109100  0.26407200  0.96136300  1
  O  O30  1  0.52890900  0.76407200  0.03863700  1
  O  O31  1  0.65502300  0.31755400  0.56497200  1
  O  O32  1  0.21112500  0.53341300  0.03213500  1
  O  O33  1  0.97109100  0.76407200  0.53863700  1
  O  O34  1  0.84497700  0.31755400  0.06497200  1
  O  O35  1  0.52890900  0.26407200  0.46136300  1
  O  O36  1  0.15502300  0.18244600  0.56497200  1
  O  O37  1  0.15502300  0.68244600  0.93502800  1
  O  O38  1  0.34497700  0.68244600  0.43502800  1
  O  O39  1  0.02890900  0.73592800  0.03863700  1
  O  O40  1  0.84497700  0.81755400  0.43502800  1
  O  O41  1  0.78887500  0.96658700  0.53213500  1
  O  O42  1  0.65502300  0.81755400  0.93502800  1
  O  O43  1  0.78887500  0.46658700  0.96786500  1
  O  O44  1  0.71112500  0.96658700  0.03213500  1
  O  O45  1  0.21112500  0.03341300  0.46786500  1
  O  O46  1  0.34497700  0.18244600  0.06497200  1
  O  O47  1  0.28887500  0.03341300  0.96786500  1
  F  F48  1  0.73504900  0.58892000  0.15924700  1
  F  F49  1  0.23504900  0.91108000  0.15924700  1
  F  F50  1  0.88553500  0.26967200  0.68007700  1
  F  F51  1  0.26495100  0.91108000  0.65924700  1
  F  F52  1  0.58818000  0.96403800  0.68162200  1
  F  F53  1  0.61446500  0.76967200  0.31992300  1
  F  F54  1  0.11446500  0.73032800  0.31992300  1
  F  F55  1  0.38553500  0.23032800  0.68007700  1
  F  F56  1  0.11446500  0.23032800  0.18007700  1
  F  F57  1  0.61446500  0.26967200  0.18007700  1
  F  F58  1  0.73504900  0.08892000  0.34075300  1
  F  F59  1  0.76495100  0.08892000  0.84075300  1
  F  F60  1  0.08818000  0.53596200  0.68162200  1
  F  F61  1  0.88553500  0.76967200  0.81992300  1
  F  F62  1  0.91182000  0.46403800  0.31837800  1
  F  F63  1  0.38553500  0.73032800  0.81992300  1
  F  F64  1  0.76495100  0.58892000  0.65924700  1
  F  F65  1  0.26495100  0.41108000  0.84075300  1
  F  F66  1  0.08818000  0.03596200  0.81837800  1
  F  F67  1  0.91182000  0.96403800  0.18162200  1
  F  F68  1  0.41182000  0.03596200  0.31837800  1
  F  F69  1  0.23504900  0.41108000  0.34075300  1
  F  F70  1  0.41182000  0.53596200  0.18162200  1
  F  F71  1  0.58818000  0.46403800  0.81837800  1
