# generated using pymatgen
data_Li5B7S13
_symmetry_space_group_name_H-M   'P 1'
_cell_length_a   17.59134000
_cell_length_b   21.91622000
_cell_length_c   12.44121169
_cell_angle_alpha   90.00000000
_cell_angle_beta   134.94435370
_cell_angle_gamma   90.00000000
_symmetry_Int_Tables_number   1
_chemical_formula_structural   Li5B7S13
_chemical_formula_sum   'Li40 B56 S104'
_cell_volume   3394.95199691
_cell_formula_units_Z   8
loop_
 _symmetry_equiv_pos_site_id
 _symmetry_equiv_pos_as_xyz
  1  'x, y, z'
loop_
 _atom_site_type_symbol
 _atom_site_label
 _atom_site_symmetry_multiplicity
 _atom_site_fract_x
 _atom_site_fract_y
 _atom_site_fract_z
 _atom_site_occupancy
  Li  Li0  1  0.67459450  0.35863050  0.25961700  1
  Li  Li1  1  0.17459450  0.14136950  0.75961700  1
  Li  Li2  1  0.98417500  0.00633200  0.53131200  1
  Li  Li3  1  0.39662400  0.28230700  0.89270300  1
  Li  Li4  1  0.89662400  0.21769300  0.39270300  1
  Li  Li5  1  0.16692700  0.39025900  0.59037200  1
  Li  Li6  1  0.66692700  0.10974100  0.09037200  1
  Li  Li7  1  0.74927150  0.46778550  0.10306800  1
  Li  Li8  1  0.24927150  0.03221450  0.60306800  1
  Li  Li9  1  0.20159550  0.25310350  0.43383100  1
  Li  Li10  1  0.70159550  0.24689650  0.93383100  1
  Li  Li11  1  0.23794400  0.46404400  0.38653900  1
  Li  Li12  1  0.73794400  0.03595600  0.88653900  1
  Li  Li13  1  0.83380650  0.38786650  0.91769500  1
  Li  Li14  1  0.33380650  0.11213350  0.41769500  1
  Li  Li15  1  0.60105250  0.28611050  0.58510600  1
  Li  Li16  1  0.10105250  0.21388950  0.08510600  1
  Li  Li17  1  0.33482850  0.36339850  0.25351300  1
  Li  Li18  1  0.83482850  0.13660150  0.75351300  1
  Li  Li19  1  0.48417500  0.49366800  0.03131200  1
  Li  Li20  1  0.17459450  0.85863050  0.25961700  1
  Li  Li21  1  0.67459450  0.64136950  0.75961700  1
  Li  Li22  1  0.48417500  0.50633200  0.53131200  1
  Li  Li23  1  0.89662400  0.78230700  0.89270300  1
  Li  Li24  1  0.39662400  0.71769300  0.39270300  1
  Li  Li25  1  0.66692700  0.89025900  0.59037200  1
  Li  Li26  1  0.16692700  0.60974100  0.09037200  1
  Li  Li27  1  0.24927150  0.96778550  0.10306800  1
  Li  Li28  1  0.74927150  0.53221450  0.60306800  1
  Li  Li29  1  0.70159550  0.75310350  0.43383100  1
  Li  Li30  1  0.20159550  0.74689650  0.93383100  1
  Li  Li31  1  0.73794400  0.96404400  0.38653900  1
  Li  Li32  1  0.23794400  0.53595600  0.88653900  1
  Li  Li33  1  0.33380650  0.88786650  0.91769500  1
  Li  Li34  1  0.83380650  0.61213350  0.41769500  1
  Li  Li35  1  0.10105250  0.78611050  0.58510600  1
  Li  Li36  1  0.60105250  0.71388950  0.08510600  1
  Li  Li37  1  0.83482850  0.86339850  0.25351300  1
  Li  Li38  1  0.33482850  0.63660150  0.75351300  1
  Li  Li39  1  0.98417500  0.99366800  0.03131200  1
  B  B40  1  0.72030400  0.02673500  0.57472800  1
  B  B41  1  0.33146650  0.12398250  0.13990500  1
  B  B42  1  0.49903200  0.22566400  0.24785900  1
  B  B43  1  0.49954250  0.02444650  0.25025000  1
  B  B44  1  0.66858200  0.12452000  0.36011900  1
  B  B45  1  0.27910600  0.02644000  0.92521300  1
  B  B46  1  0.94160850  0.37466650  0.52307800  1
  B  B47  1  0.44160850  0.12533350  0.02307800  1
  B  B48  1  0.10359550  0.27665650  0.63313100  1
  B  B49  1  0.60359550  0.22334350  0.13313100  1
  B  B50  1  0.40936100  0.42468400  0.73940200  1
  B  B51  1  0.58138850  0.32712450  0.92376400  1
  B  B52  1  0.08138850  0.17287550  0.42376400  1
  B  B53  1  0.90936100  0.07531600  0.23940200  1
  B  B54  1  0.59161250  0.42322450  0.75945000  1
  B  B55  1  0.41950400  0.32552700  0.57962000  1
  B  B56  1  0.91950400  0.17447300  0.07962000  1
  B  B57  1  0.09161250  0.07677550  0.25945000  1
  B  B58  1  0.89510400  0.27607900  0.86643700  1
  B  B59  1  0.39510400  0.22392100  0.36643700  1
  B  B60  1  0.05806250  0.37344550  0.97675100  1
  B  B61  1  0.55806250  0.12655450  0.47675100  1
  B  B62  1  0.22030400  0.47326500  0.07472800  1
  B  B63  1  0.83146650  0.37601750  0.63990500  1
  B  B64  1  0.99954250  0.47555350  0.75025000  1
  B  B65  1  0.99903200  0.27433600  0.74785900  1
  B  B66  1  0.16858200  0.37548000  0.86011900  1
  B  B67  1  0.77910600  0.47356000  0.42521300  1
  B  B68  1  0.22030400  0.52673500  0.57472800  1
  B  B69  1  0.83146650  0.62398250  0.13990500  1
  B  B70  1  0.99903200  0.72566400  0.24785900  1
  B  B71  1  0.99954250  0.52444650  0.25025000  1
  B  B72  1  0.16858200  0.62452000  0.36011900  1
  B  B73  1  0.77910600  0.52644000  0.92521300  1
  B  B74  1  0.44160850  0.87466650  0.52307800  1
  B  B75  1  0.94160850  0.62533350  0.02307800  1
  B  B76  1  0.60359550  0.77665650  0.63313100  1
  B  B77  1  0.10359550  0.72334350  0.13313100  1
  B  B78  1  0.90936100  0.92468400  0.73940200  1
  B  B79  1  0.08138850  0.82712450  0.92376400  1
  B  B80  1  0.58138850  0.67287550  0.42376400  1
  B  B81  1  0.40936100  0.57531600  0.23940200  1
  B  B82  1  0.09161250  0.92322450  0.75945000  1
  B  B83  1  0.91950400  0.82552700  0.57962000  1
  B  B84  1  0.41950400  0.67447300  0.07962000  1
  B  B85  1  0.59161250  0.57677550  0.25945000  1
  B  B86  1  0.39510400  0.77607900  0.86643700  1
  B  B87  1  0.89510400  0.72392100  0.36643700  1
  B  B88  1  0.55806250  0.87344550  0.97675100  1
  B  B89  1  0.05806250  0.62655450  0.47675100  1
  B  B90  1  0.72030400  0.97326500  0.07472800  1
  B  B91  1  0.33146650  0.87601750  0.63990500  1
  B  B92  1  0.49954250  0.97555350  0.75025000  1
  B  B93  1  0.49903200  0.77433600  0.74785900  1
  B  B94  1  0.66858200  0.87548000  0.86011900  1
  B  B95  1  0.27910600  0.97356000  0.42521300  1
  S  S96  1  0.44395950  0.07295250  0.31260400  1
  S  S97  1  0.61756500  0.17775800  0.42305900  1
  S  S98  1  0.21466700  0.07538400  0.97317100  1
  S  S99  1  0.78460150  0.07523650  0.52606600  1
  S  S100  1  0.38159950  0.17683850  0.07512600  1
  S  S101  1  0.54603700  0.27694700  0.18257600  1
  S  S102  1  0.04603700  0.22305300  0.68257600  1
  S  S103  1  0.55611200  0.07268700  0.18850600  1
  S  S104  1  0.22254600  0.32610400  0.80052800  1
  S  S105  1  0.72254600  0.17389600  0.30052800  1
  S  S106  1  0.82754050  0.42407850  0.35511900  1
  S  S107  1  0.32754050  0.07592150  0.85511900  1
  S  S108  1  0.99211950  0.32598250  0.45706500  1
  S  S109  1  0.32151550  0.47356250  0.74824100  1
  S  S110  1  0.49211950  0.17401750  0.95706500  1
  S  S111  1  0.49230000  0.37734600  0.92553400  1
  S  S112  1  0.67771100  0.27657900  0.10615200  1
  S  S113  1  0.17771100  0.22342100  0.60615200  1
  S  S114  1  0.99230000  0.12265400  0.42553400  1
  S  S115  1  0.82151550  0.02643750  0.24824100  1
  S  S116  1  0.11095700  0.47320200  0.41063300  1
  S  S117  1  0.50108050  0.47723850  0.74861200  1
  S  S118  1  0.61095700  0.02679800  0.91063300  1
  S  S119  1  0.68363350  0.37427950  0.94084200  1
  S  S120  1  0.31739300  0.37408800  0.55983700  1
  S  S121  1  0.50019000  0.27303800  0.75340700  1
  S  S122  1  0.00019000  0.22696200  0.25340700  1
  S  S123  1  0.18363350  0.12572050  0.44084200  1
  S  S124  1  0.81739300  0.12591200  0.05983700  1
  S  S125  1  0.88741250  0.47326050  0.09087100  1
  S  S126  1  0.00108050  0.02276150  0.24861200  1
  S  S127  1  0.38741250  0.02673950  0.59087100  1
  S  S128  1  0.67859850  0.47357550  0.75033700  1
  S  S129  1  0.50765250  0.37478550  0.57433000  1
  S  S130  1  0.32289300  0.27681600  0.39497300  1
  S  S131  1  0.82289300  0.22318400  0.89497300  1
  S  S132  1  0.00765250  0.12521450  0.07433000  1
  S  S133  1  0.00867350  0.32418850  0.04388100  1
  S  S134  1  0.17859850  0.02642450  0.25033700  1
  S  S135  1  0.50867350  0.17581150  0.54388100  1
  S  S136  1  0.17279350  0.42262250  0.14532600  1
  S  S137  1  0.67279350  0.07737750  0.64532600  1
  S  S138  1  0.77768100  0.32671800  0.70187100  1
  S  S139  1  0.27768100  0.17328200  0.20187100  1
  S  S140  1  0.94395950  0.42704750  0.81260400  1
  S  S141  1  0.44929300  0.27681000  0.30942900  1
  S  S142  1  0.94929300  0.22319000  0.80942900  1
  S  S143  1  0.11756500  0.32224200  0.92305900  1
  S  S144  1  0.71466700  0.42461600  0.47317100  1
  S  S145  1  0.28460150  0.42476350  0.02606600  1
  S  S146  1  0.88159950  0.32316150  0.57512600  1
  S  S147  1  0.05611200  0.42731300  0.68850600  1
  S  S148  1  0.94395950  0.57295250  0.31260400  1
  S  S149  1  0.11756500  0.67775800  0.42305900  1
  S  S150  1  0.71466700  0.57538400  0.97317100  1
  S  S151  1  0.28460150  0.57523650  0.52606600  1
  S  S152  1  0.88159950  0.67683850  0.07512600  1
  S  S153  1  0.04603700  0.77694700  0.18257600  1
  S  S154  1  0.54603700  0.72305300  0.68257600  1
  S  S155  1  0.05611200  0.57268700  0.18850600  1
  S  S156  1  0.72254600  0.82610400  0.80052800  1
  S  S157  1  0.22254600  0.67389600  0.30052800  1
  S  S158  1  0.32754050  0.92407850  0.35511900  1
  S  S159  1  0.82754050  0.57592150  0.85511900  1
  S  S160  1  0.49211950  0.82598250  0.45706500  1
  S  S161  1  0.82151550  0.97356250  0.74824100  1
  S  S162  1  0.99211950  0.67401750  0.95706500  1
  S  S163  1  0.99230000  0.87734600  0.92553400  1
  S  S164  1  0.17771100  0.77657900  0.10615200  1
  S  S165  1  0.67771100  0.72342100  0.60615200  1
  S  S166  1  0.49230000  0.62265400  0.42553400  1
  S  S167  1  0.32151550  0.52643750  0.24824100  1
  S  S168  1  0.61095700  0.97320200  0.41063300  1
  S  S169  1  0.00108050  0.97723850  0.74861200  1
  S  S170  1  0.11095700  0.52679800  0.91063300  1
  S  S171  1  0.18363350  0.87427950  0.94084200  1
  S  S172  1  0.81739300  0.87408800  0.55983700  1
  S  S173  1  0.00019000  0.77303800  0.75340700  1
  S  S174  1  0.50019000  0.72696200  0.25340700  1
  S  S175  1  0.68363350  0.62572050  0.44084200  1
  S  S176  1  0.31739300  0.62591200  0.05983700  1
  S  S177  1  0.38741250  0.97326050  0.09087100  1
  S  S178  1  0.50108050  0.52276150  0.24861200  1
  S  S179  1  0.88741250  0.52673950  0.59087100  1
  S  S180  1  0.17859850  0.97357550  0.75033700  1
  S  S181  1  0.00765250  0.87478550  0.57433000  1
  S  S182  1  0.82289300  0.77681600  0.39497300  1
  S  S183  1  0.32289300  0.72318400  0.89497300  1
  S  S184  1  0.50765250  0.62521450  0.07433000  1
  S  S185  1  0.50867350  0.82418850  0.04388100  1
  S  S186  1  0.67859850  0.52642450  0.25033700  1
  S  S187  1  0.00867350  0.67581150  0.54388100  1
  S  S188  1  0.67279350  0.92262250  0.14532600  1
  S  S189  1  0.17279350  0.57737750  0.64532600  1
  S  S190  1  0.27768100  0.82671800  0.70187100  1
  S  S191  1  0.77768100  0.67328200  0.20187100  1
  S  S192  1  0.44395950  0.92704750  0.81260400  1
  S  S193  1  0.94929300  0.77681000  0.30942900  1
  S  S194  1  0.44929300  0.72319000  0.80942900  1
  S  S195  1  0.61756500  0.82224200  0.92305900  1
  S  S196  1  0.21466700  0.92461600  0.47317100  1
  S  S197  1  0.78460150  0.92476350  0.02606600  1
  S  S198  1  0.38159950  0.82316150  0.57512600  1
  S  S199  1  0.55611200  0.92731300  0.68850600  1
