# generated using pymatgen
data_Ba5Si(Cl3O2)2
_symmetry_space_group_name_H-M   'P 1'
_cell_length_a   9.66662200
_cell_length_b   15.01453600
_cell_length_c   11.85388612
_cell_angle_alpha   90.00000000
_cell_angle_beta   104.29736049
_cell_angle_gamma   90.00000000
_symmetry_Int_Tables_number   1
_chemical_formula_structural   Ba5Si(Cl3O2)2
_chemical_formula_sum   'Ba20 Si4 Cl24 O16'
_cell_volume   1667.18321645
_cell_formula_units_Z   4
loop_
 _symmetry_equiv_pos_site_id
 _symmetry_equiv_pos_as_xyz
  1  'x, y, z'
loop_
 _atom_site_type_symbol
 _atom_site_label
 _atom_site_symmetry_multiplicity
 _atom_site_fract_x
 _atom_site_fract_y
 _atom_site_fract_z
 _atom_site_occupancy
  Ba  Ba0  1  0.44349700  0.87253200  0.52027900  1
  Ba  Ba1  1  0.50000000  0.70163700  0.25000000  1
  Ba  Ba2  1  0.15554050  0.07811850  0.63385000  1
  Ba  Ba3  1  0.84445950  0.07811850  0.86615000  1
  Ba  Ba4  1  0.55650300  0.12746800  0.47972100  1
  Ba  Ba5  1  0.50000000  0.29836300  0.75000000  1
  Ba  Ba6  1  0.15554050  0.92188150  0.13385000  1
  Ba  Ba7  1  0.84445950  0.92188150  0.36615000  1
  Ba  Ba8  1  0.44349700  0.12746800  0.02027900  1
  Ba  Ba9  1  0.55650300  0.87253200  0.97972100  1
  Ba  Ba10  1  0.94349700  0.37253200  0.52027900  1
  Ba  Ba11  1  0.00000000  0.20163700  0.25000000  1
  Ba  Ba12  1  0.65554050  0.57811850  0.63385000  1
  Ba  Ba13  1  0.34445950  0.57811850  0.86615000  1
  Ba  Ba14  1  0.05650300  0.62746800  0.47972100  1
  Ba  Ba15  1  0.00000000  0.79836300  0.75000000  1
  Ba  Ba16  1  0.65554050  0.42188150  0.13385000  1
  Ba  Ba17  1  0.34445950  0.42188150  0.36615000  1
  Ba  Ba18  1  0.94349700  0.62746800  0.02027900  1
  Ba  Ba19  1  0.05650300  0.37253200  0.97972100  1
  Si  Si20  1  0.50000000  0.07743500  0.75000000  1
  Si  Si21  1  0.50000000  0.92256500  0.25000000  1
  Si  Si22  1  0.00000000  0.57743500  0.75000000  1
  Si  Si23  1  0.00000000  0.42256500  0.25000000  1
  Cl  Cl24  1  0.82735300  0.97082600  0.63383400  1
  Cl  Cl25  1  0.63037400  0.35039200  0.54870500  1
  Cl  Cl26  1  0.63037400  0.64960800  0.04870500  1
  Cl  Cl27  1  0.17264700  0.02917400  0.36616600  1
  Cl  Cl28  1  0.17264700  0.97082600  0.86616600  1
  Cl  Cl29  1  0.50000000  0.74177800  0.75000000  1
  Cl  Cl30  1  0.36962600  0.64960800  0.45129500  1
  Cl  Cl31  1  0.82735300  0.02917400  0.13383400  1
  Cl  Cl32  1  0.50000000  0.25822200  0.25000000  1
  Cl  Cl33  1  0.75000000  0.25000000  0.00000000  1
  Cl  Cl34  1  0.36962600  0.35039200  0.95129500  1
  Cl  Cl35  1  0.75000000  0.75000000  0.50000000  1
  Cl  Cl36  1  0.32735300  0.47082600  0.63383400  1
  Cl  Cl37  1  0.13037400  0.85039200  0.54870500  1
  Cl  Cl38  1  0.13037400  0.14960800  0.04870500  1
  Cl  Cl39  1  0.67264700  0.52917400  0.36616600  1
  Cl  Cl40  1  0.67264700  0.47082600  0.86616600  1
  Cl  Cl41  1  0.00000000  0.24177800  0.75000000  1
  Cl  Cl42  1  0.86962600  0.14960800  0.45129500  1
  Cl  Cl43  1  0.32735300  0.52917400  0.13383400  1
  Cl  Cl44  1  0.00000000  0.75822200  0.25000000  1
  Cl  Cl45  1  0.25000000  0.75000000  0.00000000  1
  Cl  Cl46  1  0.86962600  0.85039200  0.95129500  1
  Cl  Cl47  1  0.25000000  0.25000000  0.50000000  1
  O  O48  1  0.57752350  0.02036150  0.86755100  1
  O  O49  1  0.62024650  0.14349950  0.71397700  1
  O  O50  1  0.42247650  0.02036150  0.63244900  1
  O  O51  1  0.62024650  0.85650050  0.21397700  1
  O  O52  1  0.37975350  0.14349950  0.78602300  1
  O  O53  1  0.57752350  0.97963850  0.36755100  1
  O  O54  1  0.37975350  0.85650050  0.28602300  1
  O  O55  1  0.42247650  0.97963850  0.13244900  1
  O  O56  1  0.07752350  0.52036150  0.86755100  1
  O  O57  1  0.12024650  0.64349950  0.71397700  1
  O  O58  1  0.92247650  0.52036150  0.63244900  1
  O  O59  1  0.12024650  0.35650050  0.21397700  1
  O  O60  1  0.87975350  0.64349950  0.78602300  1
  O  O61  1  0.07752350  0.47963850  0.36755100  1
  O  O62  1  0.87975350  0.35650050  0.28602300  1
  O  O63  1  0.92247650  0.47963850  0.13244900  1
