# generated using pymatgen
data_MgBeAl4O8
_symmetry_space_group_name_H-M   'P 1'
_cell_length_a   5.66261207
_cell_length_b   5.66261207
_cell_length_c   18.31749600
_cell_angle_alpha   90.00000000
_cell_angle_beta   90.00000000
_cell_angle_gamma   120.00000000
_symmetry_Int_Tables_number   1
_chemical_formula_structural   MgBeAl4O8
_chemical_formula_sum   'Mg4 Be4 Al16 O32'
_cell_volume   508.66324483
_cell_formula_units_Z   4
loop_
 _symmetry_equiv_pos_site_id
 _symmetry_equiv_pos_as_xyz
  1  'x, y, z'
loop_
 _atom_site_type_symbol
 _atom_site_label
 _atom_site_symmetry_multiplicity
 _atom_site_fract_x
 _atom_site_fract_y
 _atom_site_fract_z
 _atom_site_occupancy
  Mg  Mg0  1  0.00000000  0.00000000  0.65554700  1
  Mg  Mg1  1  0.66666667  0.33333333  0.90541500  1
  Mg  Mg2  1  0.33333333  0.66666667  0.40541500  1
  Mg  Mg3  1  0.00000000  0.00000000  0.15554700  1
  Be  Be4  1  0.33333333  0.66666667  0.21808200  1
  Be  Be5  1  0.66666667  0.33333333  0.45465900  1
  Be  Be6  1  0.33333333  0.66666667  0.95465900  1
  Be  Be7  1  0.66666667  0.33333333  0.71808200  1
  Al  Al8  1  0.83666400  0.67332800  0.31348700  1
  Al  Al9  1  0.00294700  0.50147350  0.56239500  1
  Al  Al10  1  0.50147350  0.49852650  0.06239500  1
  Al  Al11  1  0.67332800  0.83666400  0.81348700  1
  Al  Al12  1  0.00000000  0.00000000  0.44586500  1
  Al  Al13  1  0.66666667  0.33333333  0.18711300  1
  Al  Al14  1  0.16333600  0.32667200  0.81348700  1
  Al  Al15  1  0.99705300  0.49852650  0.06239500  1
  Al  Al16  1  0.16333600  0.83666400  0.81348700  1
  Al  Al17  1  0.49852650  0.50147350  0.56239500  1
  Al  Al18  1  0.49852650  0.99705300  0.56239500  1
  Al  Al19  1  0.32667200  0.16333600  0.31348700  1
  Al  Al20  1  0.00000000  0.00000000  0.94586500  1
  Al  Al21  1  0.33333333  0.66666667  0.68711300  1
  Al  Al22  1  0.50147350  0.00294700  0.06239500  1
  Al  Al23  1  0.83666400  0.16333600  0.31348700  1
  O  O24  1  0.18024950  0.81975050  0.99986000  1
  O  O25  1  0.18407300  0.81592700  0.62144300  1
  O  O26  1  0.36049900  0.18024950  0.49986000  1
  O  O27  1  0.66666667  0.33333333  0.00957900  1
  O  O28  1  0.14742800  0.29485600  0.37456000  1
  O  O29  1  0.66666667  0.33333333  0.62150500  1
  O  O30  1  0.00000000  0.00000000  0.76007800  1
  O  O31  1  0.33333333  0.66666667  0.12150500  1
  O  O32  1  0.01302000  0.50651000  0.75168900  1
  O  O33  1  0.81975050  0.18024950  0.49986000  1
  O  O34  1  0.33333333  0.66666667  0.86685700  1
  O  O35  1  0.36814600  0.18407300  0.12144300  1
  O  O36  1  0.18407300  0.36814600  0.62144300  1
  O  O37  1  0.29485600  0.14742800  0.87456000  1
  O  O38  1  0.81592700  0.63185400  0.12144300  1
  O  O39  1  0.81592700  0.18407300  0.12144300  1
  O  O40  1  0.49349000  0.98698000  0.75168900  1
  O  O41  1  0.63185400  0.81592700  0.62144300  1
  O  O42  1  0.85257200  0.70514400  0.87456000  1
  O  O43  1  0.85257200  0.14742800  0.87456000  1
  O  O44  1  0.14742800  0.85257200  0.37456000  1
  O  O45  1  0.50651000  0.49349000  0.25168900  1
  O  O46  1  0.50651000  0.01302000  0.25168900  1
  O  O47  1  0.63950100  0.81975050  0.99986000  1
  O  O48  1  0.33333333  0.66666667  0.50957900  1
  O  O49  1  0.98698000  0.49349000  0.25168900  1
  O  O50  1  0.18024950  0.36049900  0.99986000  1
  O  O51  1  0.81975050  0.63950100  0.49986000  1
  O  O52  1  0.66666667  0.33333333  0.36685700  1
  O  O53  1  0.49349000  0.50651000  0.75168900  1
  O  O54  1  0.70514400  0.85257200  0.37456000  1
  O  O55  1  0.00000000  0.00000000  0.26007800  1
