# generated using pymatgen
data_WOF4
_symmetry_space_group_name_H-M   'P 1'
_cell_length_a   9.78137000
_cell_length_b   14.53180400
_cell_length_c   5.43221949
_cell_angle_alpha   90.00000000
_cell_angle_beta   93.16454122
_cell_angle_gamma   90.00000000
_symmetry_Int_Tables_number   1
_chemical_formula_structural   WOF4
_chemical_formula_sum   'W8 O8 F32'
_cell_volume   770.96342495
_cell_formula_units_Z   8
loop_
 _symmetry_equiv_pos_site_id
 _symmetry_equiv_pos_as_xyz
  1  'x, y, z'
loop_
 _atom_site_type_symbol
 _atom_site_label
 _atom_site_symmetry_multiplicity
 _atom_site_fract_x
 _atom_site_fract_y
 _atom_site_fract_z
 _atom_site_occupancy
  W  W0  1  0.23940600  0.00000000  0.76720600  1
  W  W1  1  0.76059400  0.00000000  0.23279400  1
  W  W2  1  0.50000000  0.68640000  0.00000000  1
  W  W3  1  0.50000000  0.31360000  0.00000000  1
  W  W4  1  0.73940600  0.50000000  0.76720600  1
  W  W5  1  0.26059400  0.50000000  0.23279400  1
  W  W6  1  0.00000000  0.18640000  0.00000000  1
  W  W7  1  0.00000000  0.81360000  0.00000000  1
  O  O8  1  0.88053450  0.09361250  0.11907200  1
  O  O9  1  0.11946550  0.09361250  0.88092800  1
  O  O10  1  0.11946550  0.90638750  0.88092800  1
  O  O11  1  0.88053450  0.90638750  0.11907200  1
  O  O12  1  0.38053450  0.59361250  0.11907200  1
  O  O13  1  0.61946550  0.59361250  0.88092800  1
  O  O14  1  0.61946550  0.40638750  0.88092800  1
  O  O15  1  0.38053450  0.40638750  0.11907200  1
  F  F16  1  0.64329200  0.09129300  0.34828300  1
  F  F17  1  0.34149700  0.00000000  0.07152900  1
  F  F18  1  0.60217850  0.31091050  0.30463600  1
  F  F19  1  0.38576900  0.22099100  0.11947500  1
  F  F20  1  0.61423100  0.77900900  0.88052500  1
  F  F21  1  0.38576900  0.77900900  0.11947500  1
  F  F22  1  0.35670800  0.90870700  0.65171700  1
  F  F23  1  0.85654400  0.00000000  0.54514000  1
  F  F24  1  0.35670800  0.09129300  0.65171700  1
  F  F25  1  0.64329200  0.90870700  0.34828300  1
  F  F26  1  0.61423100  0.22099100  0.88052500  1
  F  F27  1  0.14345600  0.00000000  0.45486000  1
  F  F28  1  0.65850300  0.00000000  0.92847100  1
  F  F29  1  0.39782150  0.68908950  0.69536400  1
  F  F30  1  0.39782150  0.31091050  0.69536400  1
  F  F31  1  0.60217850  0.68908950  0.30463600  1
  F  F32  1  0.14329200  0.59129300  0.34828300  1
  F  F33  1  0.84149700  0.50000000  0.07152900  1
  F  F34  1  0.10217850  0.81091050  0.30463600  1
  F  F35  1  0.88576900  0.72099100  0.11947500  1
  F  F36  1  0.11423100  0.27900900  0.88052500  1
  F  F37  1  0.88576900  0.27900900  0.11947500  1
  F  F38  1  0.85670800  0.40870700  0.65171700  1
  F  F39  1  0.35654400  0.50000000  0.54514000  1
  F  F40  1  0.85670800  0.59129300  0.65171700  1
  F  F41  1  0.14329200  0.40870700  0.34828300  1
  F  F42  1  0.11423100  0.72099100  0.88052500  1
  F  F43  1  0.64345600  0.50000000  0.45486000  1
  F  F44  1  0.15850300  0.50000000  0.92847100  1
  F  F45  1  0.89782150  0.18908950  0.69536400  1
  F  F46  1  0.89782150  0.81091050  0.69536400  1
  F  F47  1  0.10217850  0.18908950  0.30463600  1
