# generated using pymatgen
data_BaZr4(PO4)6
_symmetry_space_group_name_H-M   'P 1'
_cell_length_a   8.85325237
_cell_length_b   8.85325237
_cell_length_c   24.14799174
_cell_angle_alpha   90.00000000
_cell_angle_beta   90.00000000
_cell_angle_gamma   120.00000000
_symmetry_Int_Tables_number   1
_chemical_formula_structural   BaZr4(PO4)6
_chemical_formula_sum   'Ba3 Zr12 P18 O72'
_cell_volume   1639.14487107
_cell_formula_units_Z   3
loop_
 _symmetry_equiv_pos_site_id
 _symmetry_equiv_pos_as_xyz
  1  'x, y, z'
loop_
 _atom_site_type_symbol
 _atom_site_label
 _atom_site_symmetry_multiplicity
 _atom_site_fract_x
 _atom_site_fract_y
 _atom_site_fract_z
 _atom_site_occupancy
  Ba  Ba0  1  0.00000000  0.00000000  0.00000000  1
  Ba  Ba1  1  0.66666667  0.33333333  0.33333333  1
  Ba  Ba2  1  0.33333333  0.66666667  0.66666667  1
  Zr  Zr3  1  0.33333333  0.66666667  0.31218567  1
  Zr  Zr4  1  0.33333333  0.66666667  0.02114767  1
  Zr  Zr5  1  0.66666667  0.33333333  0.18232233  1
  Zr  Zr6  1  0.00000000  0.00000000  0.15101100  1
  Zr  Zr7  1  0.00000000  0.00000000  0.64551900  1
  Zr  Zr8  1  0.00000000  0.00000000  0.35448100  1
  Zr  Zr9  1  0.33333333  0.66666667  0.51565567  1
  Zr  Zr10  1  0.66666667  0.33333333  0.48434433  1
  Zr  Zr11  1  0.66666667  0.33333333  0.97885233  1
  Zr  Zr12  1  0.66666667  0.33333333  0.68781433  1
  Zr  Zr13  1  0.00000000  0.00000000  0.84898900  1
  Zr  Zr14  1  0.33333333  0.66666667  0.81767767  1
  P  P15  1  0.28851700  0.00478700  0.25167000  1
  P  P16  1  0.37814967  0.32854633  0.08166333  1
  P  P17  1  0.99521300  0.28373000  0.25167000  1
  P  P18  1  0.67145367  0.04960333  0.08166333  1
  P  P19  1  0.71627000  0.71148300  0.25167000  1
  P  P20  1  0.95039667  0.62185033  0.08166333  1
  P  P21  1  0.95518367  0.33812033  0.58500333  1
  P  P22  1  0.04481633  0.66187967  0.41499667  1
  P  P23  1  0.66187967  0.61706333  0.58500333  1
  P  P24  1  0.33812033  0.38293667  0.41499667  1
  P  P25  1  0.38293667  0.04481633  0.58500333  1
  P  P26  1  0.61706333  0.95518367  0.41499667  1
  P  P27  1  0.62185033  0.67145367  0.91833667  1
  P  P28  1  0.71148300  0.99521300  0.74833000  1
  P  P29  1  0.32854633  0.95039667  0.91833667  1
  P  P30  1  0.00478700  0.71627000  0.74833000  1
  P  P31  1  0.04960333  0.37814967  0.91833667  1
  P  P32  1  0.28373000  0.28851700  0.74833000  1
  O  O33  1  0.82557933  0.55109767  0.03152367  1
  O  O34  1  0.94114833  0.15891267  0.30180967  1
  O  O35  1  0.86652100  0.51416800  0.13447300  1
  O  O36  1  0.80014567  0.81916533  0.19886033  1
  O  O37  1  0.84637533  0.32537267  0.24110767  1
  O  O38  1  0.44890233  0.27448167  0.03152367  1
  O  O39  1  0.18083467  0.98098033  0.19886033  1
  O  O40  1  0.67462733  0.52100267  0.24110767  1
  O  O41  1  0.12017533  0.62113767  0.06888567  1
  O  O42  1  0.82029133  0.00796067  0.09222567  1
  O  O43  1  0.47899733  0.15362467  0.24110767  1
  O  O44  1  0.99203933  0.81233067  0.09222567  1
  O  O45  1  0.54649133  0.71219567  0.26444767  1
  O  O46  1  0.50096233  0.87982467  0.06888567  1
  O  O47  1  0.18766933  0.17970867  0.09222567  1
  O  O48  1  0.01901967  0.19985433  0.19886033  1
  O  O49  1  0.64764700  0.13347900  0.13447300  1
  O  O50  1  0.28780433  0.83429567  0.26444767  1
  O  O51  1  0.72551833  0.17442067  0.03152367  1
  O  O52  1  0.21776433  0.05885167  0.30180967  1
  O  O53  1  0.48583200  0.35235300  0.13447300  1
  O  O54  1  0.84108733  0.78223567  0.30180967  1
  O  O55  1  0.37886233  0.49903767  0.06888567  1
  O  O56  1  0.16570433  0.45350867  0.26444767  1
  O  O57  1  0.49224600  0.88443100  0.36485700  1
  O  O58  1  0.60781500  0.49224600  0.63514300  1
  O  O59  1  0.53318767  0.84750133  0.46780633  1
  O  O60  1  0.46681233  0.15249867  0.53219367  1
  O  O61  1  0.51304200  0.65870600  0.57444100  1
  O  O62  1  0.11556900  0.60781500  0.36485700  1
  O  O63  1  0.84750133  0.31431367  0.53219367  1
  O  O64  1  0.34129400  0.85433600  0.57444100  1
  O  O65  1  0.78684200  0.95447100  0.40221900  1
  O  O66  1  0.48695800  0.34129400  0.42555900  1
  O  O67  1  0.14566400  0.48695800  0.57444100  1
  O  O68  1  0.65870600  0.14566400  0.42555900  1
  O  O69  1  0.21315800  0.04552900  0.59778100  1
  O  O70  1  0.16762900  0.21315800  0.40221900  1
  O  O71  1  0.85433600  0.51304200  0.42555900  1
  O  O72  1  0.68568633  0.53318767  0.53219367  1
  O  O73  1  0.31431367  0.46681233  0.46780633  1
  O  O74  1  0.95447100  0.16762900  0.59778100  1
  O  O75  1  0.39218500  0.50775400  0.36485700  1
  O  O76  1  0.88443100  0.39218500  0.63514300  1
  O  O77  1  0.15249867  0.68568633  0.46780633  1
  O  O78  1  0.50775400  0.11556900  0.63514300  1
  O  O79  1  0.04552900  0.83237100  0.40221900  1
  O  O80  1  0.83237100  0.78684200  0.59778100  1
  O  O81  1  0.15891267  0.21776433  0.69819033  1
  O  O82  1  0.27448167  0.82557933  0.96847633  1
  O  O83  1  0.19985433  0.18083467  0.80113967  1
  O  O84  1  0.13347900  0.48583200  0.86552700  1
  O  O85  1  0.17970867  0.99203933  0.90777433  1
  O  O86  1  0.78223567  0.94114833  0.69819033  1
  O  O87  1  0.51416800  0.64764700  0.86552700  1
  O  O88  1  0.00796067  0.18766933  0.90777433  1
  O  O89  1  0.45350867  0.28780433  0.73555233  1
  O  O90  1  0.15362467  0.67462733  0.75889233  1
  O  O91  1  0.81233067  0.82029133  0.90777433  1
  O  O92  1  0.32537267  0.47899733  0.75889233  1
  O  O93  1  0.87982467  0.37886233  0.93111433  1
  O  O94  1  0.83429567  0.54649133  0.73555233  1
  O  O95  1  0.52100267  0.84637533  0.75889233  1
  O  O96  1  0.35235300  0.86652100  0.86552700  1
  O  O97  1  0.98098033  0.80014567  0.80113967  1
  O  O98  1  0.62113767  0.50096233  0.93111433  1
  O  O99  1  0.05885167  0.84108733  0.69819033  1
  O  O100  1  0.55109767  0.72551833  0.96847633  1
  O  O101  1  0.81916533  0.01901967  0.80113967  1
  O  O102  1  0.17442067  0.44890233  0.96847633  1
  O  O103  1  0.71219567  0.16570433  0.73555233  1
  O  O104  1  0.49903767  0.12017533  0.93111433  1
