# generated using pymatgen
data_BaCuB2O5
_symmetry_space_group_name_H-M   'P 1'
_cell_length_a   6.53214200
_cell_length_b   9.25467800
_cell_length_c   4.11280104
_cell_angle_alpha   90.00000000
_cell_angle_beta   96.47649686
_cell_angle_gamma   90.00000000
_symmetry_Int_Tables_number   1
_chemical_formula_structural   BaCuB2O5
_chemical_formula_sum   'Ba2 Cu2 B4 O10'
_cell_volume   247.04392123
_cell_formula_units_Z   2
loop_
 _symmetry_equiv_pos_site_id
 _symmetry_equiv_pos_as_xyz
  1  'x, y, z'
loop_
 _atom_site_type_symbol
 _atom_site_label
 _atom_site_symmetry_multiplicity
 _atom_site_fract_x
 _atom_site_fract_y
 _atom_site_fract_z
 _atom_site_occupancy
  Ba  Ba0  1  0.50000000  0.50250300  0.00000000  1
  Ba  Ba1  1  0.00000000  0.00250300  0.00000000  1
  Cu  Cu2  1  0.50000000  0.09262500  0.50000000  1
  Cu  Cu3  1  0.00000000  0.59262500  0.50000000  1
  B  B4  1  0.32154050  0.80765650  0.59534100  1
  B  B5  1  0.67845950  0.80765650  0.40465900  1
  B  B6  1  0.82154050  0.30765650  0.59534100  1
  B  B7  1  0.17845950  0.30765650  0.40465900  1
  O  O8  1  0.50000000  0.73823400  0.50000000  1
  O  O9  1  0.71626700  0.95124500  0.46695000  1
  O  O10  1  0.28373300  0.95124500  0.53305000  1
  O  O11  1  0.68884950  0.22781250  0.75414200  1
  O  O12  1  0.31115050  0.22781250  0.24585800  1
  O  O13  1  0.00000000  0.23823400  0.50000000  1
  O  O14  1  0.21626700  0.45124500  0.46695000  1
  O  O15  1  0.78373300  0.45124500  0.53305000  1
  O  O16  1  0.18884950  0.72781250  0.75414200  1
  O  O17  1  0.81115050  0.72781250  0.24585800  1
