# generated using pymatgen
data_NaGaO2
_symmetry_space_group_name_H-M   'P 1'
_cell_length_a   5.39804700
_cell_length_b   10.78252700
_cell_length_c   14.90975700
_cell_angle_alpha   90.00000000
_cell_angle_beta   90.00000000
_cell_angle_gamma   90.00000000
_symmetry_Int_Tables_number   1
_chemical_formula_structural   NaGaO2
_chemical_formula_sum   'Na16 Ga16 O32'
_cell_volume   867.81625628
_cell_formula_units_Z   16
loop_
 _symmetry_equiv_pos_site_id
 _symmetry_equiv_pos_as_xyz
  1  'x, y, z'
loop_
 _atom_site_type_symbol
 _atom_site_label
 _atom_site_symmetry_multiplicity
 _atom_site_fract_x
 _atom_site_fract_y
 _atom_site_fract_z
 _atom_site_occupancy
  Na  Na0  1  0.28014900  0.48422200  0.43693900  1
  Na  Na1  1  0.18537600  0.72684200  0.81045600  1
  Na  Na2  1  0.21985100  0.51577800  0.93693900  1
  Na  Na3  1  0.18537600  0.77315800  0.31045600  1
  Na  Na4  1  0.28014900  0.01577800  0.93693900  1
  Na  Na5  1  0.81462400  0.27315800  0.18954400  1
  Na  Na6  1  0.78014900  0.01577800  0.56306100  1
  Na  Na7  1  0.71985100  0.51577800  0.56306100  1
  Na  Na8  1  0.78014900  0.48422200  0.06306100  1
  Na  Na9  1  0.31462400  0.27315800  0.31045600  1
  Na  Na10  1  0.71985100  0.98422200  0.06306100  1
  Na  Na11  1  0.81462400  0.22684200  0.68954400  1
  Na  Na12  1  0.68537600  0.72684200  0.68954400  1
  Na  Na13  1  0.21985100  0.98422200  0.43693900  1
  Na  Na14  1  0.68537600  0.77315800  0.18954400  1
  Na  Na15  1  0.31462400  0.22684200  0.81045600  1
  Ga  Ga16  1  0.19575800  0.72260300  0.56209100  1
  Ga  Ga17  1  0.19575800  0.77739700  0.06209100  1
  Ga  Ga18  1  0.80330900  0.52459000  0.31289700  1
  Ga  Ga19  1  0.69575800  0.77739700  0.43790900  1
  Ga  Ga20  1  0.69669100  0.02459000  0.31289700  1
  Ga  Ga21  1  0.19669100  0.02459000  0.18710300  1
  Ga  Ga22  1  0.69575800  0.72260300  0.93790900  1
  Ga  Ga23  1  0.80424200  0.27739700  0.43790900  1
  Ga  Ga24  1  0.69669100  0.47541000  0.81289700  1
  Ga  Ga25  1  0.80330900  0.97541000  0.81289700  1
  Ga  Ga26  1  0.19669100  0.47541000  0.68710300  1
  Ga  Ga27  1  0.30330900  0.52459000  0.18710300  1
  Ga  Ga28  1  0.30424200  0.27739700  0.06209100  1
  Ga  Ga29  1  0.30330900  0.97541000  0.68710300  1
  Ga  Ga30  1  0.30424200  0.22260300  0.56209100  1
  Ga  Ga31  1  0.80424200  0.22260300  0.93790900  1
  O  O32  1  0.27688000  0.80468000  0.66831900  1
  O  O33  1  0.13342800  0.02053300  0.79107400  1
  O  O34  1  0.36657200  0.52053300  0.79107400  1
  O  O35  1  0.86657200  0.52053300  0.70892600  1
  O  O36  1  0.79299000  0.94283600  0.41764900  1
  O  O37  1  0.63342800  0.47946700  0.20892600  1
  O  O38  1  0.20701000  0.44283600  0.08235100  1
  O  O39  1  0.35210000  0.72772900  0.95642300  1
  O  O40  1  0.79299000  0.55716400  0.91764900  1
  O  O41  1  0.36657200  0.97946700  0.29107400  1
  O  O42  1  0.85210000  0.77227100  0.04357700  1
  O  O43  1  0.64790000  0.27227100  0.04357700  1
  O  O44  1  0.64790000  0.22772900  0.54357700  1
  O  O45  1  0.22312000  0.19532000  0.16831900  1
  O  O46  1  0.70701000  0.05716400  0.91764900  1
  O  O47  1  0.70701000  0.44283600  0.41764900  1
  O  O48  1  0.85210000  0.72772900  0.54357700  1
  O  O49  1  0.63342800  0.02053300  0.70892600  1
  O  O50  1  0.27688000  0.69532000  0.16831900  1
  O  O51  1  0.77688000  0.80468000  0.83168100  1
  O  O52  1  0.72312000  0.19532000  0.33168100  1
  O  O53  1  0.20701000  0.05716400  0.58235100  1
  O  O54  1  0.35210000  0.77227100  0.45642300  1
  O  O55  1  0.14790000  0.27227100  0.45642300  1
  O  O56  1  0.29299000  0.94283600  0.08235100  1
  O  O57  1  0.14790000  0.22772900  0.95642300  1
  O  O58  1  0.13342800  0.47946700  0.29107400  1
  O  O59  1  0.77688000  0.69532000  0.33168100  1
  O  O60  1  0.86657200  0.97946700  0.20892600  1
  O  O61  1  0.72312000  0.30468000  0.83168100  1
  O  O62  1  0.22312000  0.30468000  0.66831900  1
  O  O63  1  0.29299000  0.55716400  0.58235100  1
