# generated using pymatgen
data_Na3B(PO4)2
_symmetry_space_group_name_H-M   'P 1'
_cell_length_a   12.71059000
_cell_length_b   10.39879000
_cell_length_c   10.33790007
_cell_angle_alpha   90.00000000
_cell_angle_beta   92.36587244
_cell_angle_gamma   90.00000000
_symmetry_Int_Tables_number   1
_chemical_formula_structural   Na3B(PO4)2
_chemical_formula_sum   'Na24 B8 P16 O64'
_cell_volume   1365.24468802
_cell_formula_units_Z   8
loop_
 _symmetry_equiv_pos_site_id
 _symmetry_equiv_pos_as_xyz
  1  'x, y, z'
loop_
 _atom_site_type_symbol
 _atom_site_label
 _atom_site_symmetry_multiplicity
 _atom_site_fract_x
 _atom_site_fract_y
 _atom_site_fract_z
 _atom_site_occupancy
  Na  Na0  1  0.74679450  0.11030650  0.73181100  1
  Na  Na1  1  0.50000000  0.54210700  0.75000000  1
  Na  Na2  1  0.41138200  0.88506000  0.62004600  1
  Na  Na3  1  0.25320550  0.11030650  0.76818900  1
  Na  Na4  1  0.58861800  0.11494000  0.37995400  1
  Na  Na5  1  0.41138200  0.11494000  0.12004600  1
  Na  Na6  1  0.50000000  0.15280400  0.75000000  1
  Na  Na7  1  0.25320550  0.88969350  0.26818900  1
  Na  Na8  1  0.50000000  0.45789300  0.25000000  1
  Na  Na9  1  0.58861800  0.88506000  0.87995400  1
  Na  Na10  1  0.74679450  0.88969350  0.23181100  1
  Na  Na11  1  0.50000000  0.84719600  0.25000000  1
  Na  Na12  1  0.24679450  0.61030650  0.73181100  1
  Na  Na13  1  0.00000000  0.04210700  0.75000000  1
  Na  Na14  1  0.91138200  0.38506000  0.62004600  1
  Na  Na15  1  0.75320550  0.61030650  0.76818900  1
  Na  Na16  1  0.08861800  0.61494000  0.37995400  1
  Na  Na17  1  0.91138200  0.61494000  0.12004600  1
  Na  Na18  1  0.00000000  0.65280400  0.75000000  1
  Na  Na19  1  0.75320550  0.38969350  0.26818900  1
  Na  Na20  1  0.00000000  0.95789300  0.25000000  1
  Na  Na21  1  0.08861800  0.38506000  0.87995400  1
  Na  Na22  1  0.24679450  0.38969350  0.23181100  1
  Na  Na23  1  0.00000000  0.34719600  0.25000000  1
  B  B24  1  0.13352900  0.11161900  0.49859900  1
  B  B25  1  0.86647100  0.88838100  0.50140100  1
  B  B26  1  0.86647100  0.11161900  0.00140100  1
  B  B27  1  0.13352900  0.88838100  0.99859900  1
  B  B28  1  0.63352900  0.61161900  0.49859900  1
  B  B29  1  0.36647100  0.38838100  0.50140100  1
  B  B30  1  0.36647100  0.61161900  0.00140100  1
  B  B31  1  0.63352900  0.38838100  0.99859900  1
  P  P32  1  0.41384250  0.64090450  0.45775000  1
  P  P33  1  0.66047600  0.87064700  0.56134100  1
  P  P34  1  0.66047600  0.12935300  0.06134100  1
  P  P35  1  0.58615750  0.64090450  0.04225000  1
  P  P36  1  0.33952400  0.12935300  0.43865900  1
  P  P37  1  0.58615750  0.35909550  0.54225000  1
  P  P38  1  0.41384250  0.35909550  0.95775000  1
  P  P39  1  0.33952400  0.87064700  0.93865900  1
  P  P40  1  0.91384250  0.14090450  0.45775000  1
  P  P41  1  0.16047600  0.37064700  0.56134100  1
  P  P42  1  0.16047600  0.62935300  0.06134100  1
  P  P43  1  0.08615750  0.14090450  0.04225000  1
  P  P44  1  0.83952400  0.62935300  0.43865900  1
  P  P45  1  0.08615750  0.85909550  0.54225000  1
  P  P46  1  0.91384250  0.85909550  0.95775000  1
  P  P47  1  0.83952400  0.37064700  0.93865900  1
  O  O48  1  0.40370700  0.33910400  0.10257400  1
  O  O49  1  0.40370700  0.66089600  0.60257400  1
  O  O50  1  0.53457600  0.37582200  0.91994800  1
  O  O51  1  0.46542400  0.62417800  0.08005200  1
  O  O52  1  0.59629300  0.66089600  0.89742600  1
  O  O53  1  0.62928850  0.09785250  0.92159900  1
  O  O54  1  0.65023750  0.27996850  0.08958500  1
  O  O55  1  0.40083200  0.94065400  0.83679700  1
  O  O56  1  0.65023750  0.72003150  0.58958500  1
  O  O57  1  0.36719000  0.25342000  0.87371800  1
  O  O58  1  0.34976250  0.72003150  0.91041500  1
  O  O59  1  0.78149450  0.09748950  0.09344800  1
  O  O60  1  0.63281000  0.74658000  0.12628200  1
  O  O61  1  0.63281000  0.25342000  0.62628200  1
  O  O62  1  0.86583200  0.99574800  0.91314900  1
  O  O63  1  0.34976250  0.27996850  0.41041500  1
  O  O64  1  0.21850550  0.09748950  0.40655200  1
  O  O65  1  0.59916800  0.05934600  0.16320300  1
  O  O66  1  0.46542400  0.37582200  0.58005200  1
  O  O67  1  0.13416800  0.99574800  0.58685100  1
  O  O68  1  0.37071150  0.90214750  0.07840100  1
  O  O69  1  0.62928850  0.90214750  0.42159900  1
  O  O70  1  0.78149450  0.90251050  0.59344800  1
  O  O71  1  0.36719000  0.74658000  0.37371800  1
  O  O72  1  0.53457600  0.62417800  0.41994800  1
  O  O73  1  0.37071150  0.09785250  0.57840100  1
  O  O74  1  0.40083200  0.05934600  0.33679700  1
  O  O75  1  0.59629300  0.33910400  0.39742600  1
  O  O76  1  0.13416800  0.00425200  0.08685100  1
  O  O77  1  0.59916800  0.94065400  0.66320300  1
  O  O78  1  0.86583200  0.00425200  0.41314900  1
  O  O79  1  0.21850550  0.90251050  0.90655200  1
  O  O80  1  0.90370700  0.83910400  0.10257400  1
  O  O81  1  0.90370700  0.16089600  0.60257400  1
  O  O82  1  0.03457600  0.87582200  0.91994800  1
  O  O83  1  0.96542400  0.12417800  0.08005200  1
  O  O84  1  0.09629300  0.16089600  0.89742600  1
  O  O85  1  0.12928850  0.59785250  0.92159900  1
  O  O86  1  0.15023750  0.77996850  0.08958500  1
  O  O87  1  0.90083200  0.44065400  0.83679700  1
  O  O88  1  0.15023750  0.22003150  0.58958500  1
  O  O89  1  0.86719000  0.75342000  0.87371800  1
  O  O90  1  0.84976250  0.22003150  0.91041500  1
  O  O91  1  0.28149450  0.59748950  0.09344800  1
  O  O92  1  0.13281000  0.24658000  0.12628200  1
  O  O93  1  0.13281000  0.75342000  0.62628200  1
  O  O94  1  0.36583200  0.49574800  0.91314900  1
  O  O95  1  0.84976250  0.77996850  0.41041500  1
  O  O96  1  0.71850550  0.59748950  0.40655200  1
  O  O97  1  0.09916800  0.55934600  0.16320300  1
  O  O98  1  0.96542400  0.87582200  0.58005200  1
  O  O99  1  0.63416800  0.49574800  0.58685100  1
  O  O100  1  0.87071150  0.40214750  0.07840100  1
  O  O101  1  0.12928850  0.40214750  0.42159900  1
  O  O102  1  0.28149450  0.40251050  0.59344800  1
  O  O103  1  0.86719000  0.24658000  0.37371800  1
  O  O104  1  0.03457600  0.12417800  0.41994800  1
  O  O105  1  0.87071150  0.59785250  0.57840100  1
  O  O106  1  0.90083200  0.55934600  0.33679700  1
  O  O107  1  0.09629300  0.83910400  0.39742600  1
  O  O108  1  0.63416800  0.50425200  0.08685100  1
  O  O109  1  0.09916800  0.44065400  0.66320300  1
  O  O110  1  0.36583200  0.50425200  0.41314900  1
  O  O111  1  0.71850550  0.40251050  0.90655200  1
