# generated using pymatgen
data_Na2U2Si(O4F)2
_symmetry_space_group_name_H-M   'P 1'
_cell_length_a   7.02847800
_cell_length_b   7.02847800
_cell_length_c   18.57707800
_cell_angle_alpha   90.00000000
_cell_angle_beta   90.00000000
_cell_angle_gamma   90.00000000
_symmetry_Int_Tables_number   1
_chemical_formula_structural   Na2U2Si(O4F)2
_chemical_formula_sum   'Na8 U8 Si4 O32 F8'
_cell_volume   917.69842033
_cell_formula_units_Z   4
loop_
 _symmetry_equiv_pos_site_id
 _symmetry_equiv_pos_as_xyz
  1  'x, y, z'
loop_
 _atom_site_type_symbol
 _atom_site_label
 _atom_site_symmetry_multiplicity
 _atom_site_fract_x
 _atom_site_fract_y
 _atom_site_fract_z
 _atom_site_occupancy
  Na  Na0  1  0.00000000  0.25000000  0.12500000  1
  Na  Na1  1  0.75000000  0.50000000  0.37500000  1
  Na  Na2  1  0.00000000  0.75000000  0.12500000  1
  Na  Na3  1  0.25000000  0.50000000  0.37500000  1
  Na  Na4  1  0.50000000  0.75000000  0.62500000  1
  Na  Na5  1  0.25000000  0.00000000  0.87500000  1
  Na  Na6  1  0.50000000  0.25000000  0.62500000  1
  Na  Na7  1  0.75000000  0.00000000  0.87500000  1
  U  U8  1  0.50000000  0.50000000  0.17374100  1
  U  U9  1  0.50000000  0.00000000  0.07625900  1
  U  U10  1  0.50000000  0.00000000  0.42374100  1
  U  U11  1  0.00000000  0.00000000  0.32625900  1
  U  U12  1  0.00000000  0.00000000  0.67374100  1
  U  U13  1  0.00000000  0.50000000  0.57625900  1
  U  U14  1  0.00000000  0.50000000  0.92374100  1
  U  U15  1  0.50000000  0.50000000  0.82625900  1
  Si  Si16  1  0.50000000  0.00000000  0.25000000  1
  Si  Si17  1  0.50000000  0.50000000  0.00000000  1
  Si  Si18  1  0.00000000  0.50000000  0.75000000  1
  Si  Si19  1  0.00000000  0.00000000  0.50000000  1
  O  O20  1  0.17693400  0.00000000  0.44245700  1
  O  O21  1  0.50000000  0.17693400  0.19245700  1
  O  O22  1  0.76215500  0.50000000  0.17269500  1
  O  O23  1  0.00000000  0.26215500  0.32730500  1
  O  O24  1  0.76215500  0.00000000  0.07730500  1
  O  O25  1  0.50000000  0.32306600  0.05754300  1
  O  O26  1  0.00000000  0.73784500  0.32730500  1
  O  O27  1  0.82306600  0.00000000  0.44245700  1
  O  O28  1  0.50000000  0.26215500  0.42269500  1
  O  O29  1  0.50000000  0.82306600  0.19245700  1
  O  O30  1  0.50000000  0.73784500  0.42269500  1
  O  O31  1  0.67693400  0.00000000  0.30754300  1
  O  O32  1  0.23784500  0.50000000  0.17269500  1
  O  O33  1  0.32306600  0.00000000  0.30754300  1
  O  O34  1  0.50000000  0.67693400  0.05754300  1
  O  O35  1  0.23784500  0.00000000  0.07730500  1
  O  O36  1  0.67693400  0.50000000  0.94245700  1
  O  O37  1  0.00000000  0.67693400  0.69245700  1
  O  O38  1  0.26215500  0.00000000  0.67269500  1
  O  O39  1  0.50000000  0.76215500  0.82730500  1
  O  O40  1  0.26215500  0.50000000  0.57730500  1
  O  O41  1  0.00000000  0.82306600  0.55754300  1
  O  O42  1  0.50000000  0.23784500  0.82730500  1
  O  O43  1  0.32306600  0.50000000  0.94245700  1
  O  O44  1  0.00000000  0.76215500  0.92269500  1
  O  O45  1  0.00000000  0.32306600  0.69245700  1
  O  O46  1  0.00000000  0.23784500  0.92269500  1
  O  O47  1  0.17693400  0.50000000  0.80754300  1
  O  O48  1  0.73784500  0.00000000  0.67269500  1
  O  O49  1  0.82306600  0.50000000  0.80754300  1
  O  O50  1  0.00000000  0.17693400  0.55754300  1
  O  O51  1  0.73784500  0.50000000  0.57730500  1
  F  F52  1  0.00000000  0.50000000  0.45727600  1
  F  F53  1  0.00000000  0.50000000  0.04272400  1
  F  F54  1  0.50000000  0.50000000  0.29272400  1
  F  F55  1  0.00000000  0.00000000  0.20727600  1
  F  F56  1  0.50000000  0.00000000  0.95727600  1
  F  F57  1  0.50000000  0.00000000  0.54272400  1
  F  F58  1  0.00000000  0.00000000  0.79272400  1
  F  F59  1  0.50000000  0.50000000  0.70727600  1
