# generated using pymatgen
data_K2Te(WO4)3
_symmetry_space_group_name_H-M   'P 1'
_cell_length_a   7.40762400
_cell_length_b   11.99203200
_cell_length_c   12.85770400
_cell_angle_alpha   90.00000000
_cell_angle_beta   90.00000000
_cell_angle_gamma   90.00000000
_symmetry_Int_Tables_number   1
_chemical_formula_structural   K2Te(WO4)3
_chemical_formula_sum   'K8 Te4 W12 O48'
_cell_volume   1142.18152837
_cell_formula_units_Z   4
loop_
 _symmetry_equiv_pos_site_id
 _symmetry_equiv_pos_as_xyz
  1  'x, y, z'
loop_
 _atom_site_type_symbol
 _atom_site_label
 _atom_site_symmetry_multiplicity
 _atom_site_fract_x
 _atom_site_fract_y
 _atom_site_fract_z
 _atom_site_occupancy
  K  K0  1  0.25000000  0.04458900  0.41668400  1
  K  K1  1  0.25000000  0.54458900  0.08331600  1
  K  K2  1  0.25000000  0.43719900  0.38313600  1
  K  K3  1  0.25000000  0.93719900  0.11686400  1
  K  K4  1  0.75000000  0.06280100  0.88313600  1
  K  K5  1  0.75000000  0.95541100  0.58331600  1
  K  K6  1  0.75000000  0.45541100  0.91668400  1
  K  K7  1  0.75000000  0.56280100  0.61686400  1
  Te  Te8  1  0.75000000  0.50589300  0.19974600  1
  Te  Te9  1  0.25000000  0.49410700  0.80025400  1
  Te  Te10  1  0.25000000  0.99410700  0.69974600  1
  Te  Te11  1  0.75000000  0.00589300  0.30025400  1
  W  W12  1  0.49783400  0.75283700  0.32963000  1
  W  W13  1  0.50216600  0.74716300  0.82963000  1
  W  W14  1  0.75000000  0.79524000  0.07847400  1
  W  W15  1  0.49783400  0.25283700  0.17037000  1
  W  W16  1  0.00216600  0.25283700  0.17037000  1
  W  W17  1  0.00216600  0.75283700  0.32963000  1
  W  W18  1  0.99783400  0.24716300  0.67037000  1
  W  W19  1  0.99783400  0.74716300  0.82963000  1
  W  W20  1  0.75000000  0.29524000  0.42152600  1
  W  W21  1  0.50216600  0.24716300  0.67037000  1
  W  W22  1  0.25000000  0.70476000  0.57847400  1
  W  W23  1  0.25000000  0.20476000  0.92152600  1
  O  O24  1  0.75000000  0.44110900  0.44651100  1
  O  O25  1  0.93766100  0.42068600  0.13248000  1
  O  O26  1  0.93766100  0.92068600  0.36752000  1
  O  O27  1  0.95178900  0.88757300  0.78780500  1
  O  O28  1  0.75000000  0.11811700  0.40339000  1
  O  O29  1  0.25000000  0.38188300  0.90339000  1
  O  O30  1  0.56440300  0.76217500  0.97255700  1
  O  O31  1  0.06583300  0.19707000  0.81412800  1
  O  O32  1  0.25000000  0.77653200  0.85512500  1
  O  O33  1  0.75000000  0.72346800  0.35512500  1
  O  O34  1  0.06233900  0.07931400  0.63248000  1
  O  O35  1  0.25000000  0.55889100  0.55348900  1
  O  O36  1  0.93559700  0.76217500  0.97255700  1
  O  O37  1  0.25000000  0.05889100  0.94651100  1
  O  O38  1  0.54821100  0.38757300  0.71219500  1
  O  O39  1  0.43559700  0.73782500  0.47255700  1
  O  O40  1  0.25000000  0.27653200  0.64487500  1
  O  O41  1  0.75000000  0.61811700  0.09661000  1
  O  O42  1  0.43766100  0.57931400  0.86752000  1
  O  O43  1  0.43559700  0.23782500  0.02744300  1
  O  O44  1  0.06583300  0.69707000  0.68587200  1
  O  O45  1  0.56583300  0.30293000  0.31412800  1
  O  O46  1  0.25000000  0.30885300  0.19751200  1
  O  O47  1  0.56233900  0.42068600  0.13248000  1
  O  O48  1  0.45178900  0.61242700  0.28780500  1
  O  O49  1  0.75000000  0.94110900  0.05348900  1
  O  O50  1  0.75000000  0.22346800  0.14487500  1
  O  O51  1  0.75000000  0.69114700  0.80248800  1
  O  O52  1  0.43766100  0.07931400  0.63248000  1
  O  O53  1  0.04821100  0.11242700  0.21219500  1
  O  O54  1  0.45178900  0.11242700  0.21219500  1
  O  O55  1  0.43416700  0.69707000  0.68587200  1
  O  O56  1  0.06440300  0.73782500  0.47255700  1
  O  O57  1  0.56233900  0.92068600  0.36752000  1
  O  O58  1  0.06233900  0.57931400  0.86752000  1
  O  O59  1  0.25000000  0.88188300  0.59661000  1
  O  O60  1  0.93416700  0.80293000  0.18587200  1
  O  O61  1  0.04821100  0.61242700  0.28780500  1
  O  O62  1  0.93416700  0.30293000  0.31412800  1
  O  O63  1  0.25000000  0.80885300  0.30248800  1
  O  O64  1  0.43416700  0.19707000  0.81412800  1
  O  O65  1  0.56440300  0.26217500  0.52744300  1
  O  O66  1  0.95178900  0.38757300  0.71219500  1
  O  O67  1  0.75000000  0.19114700  0.69751200  1
  O  O68  1  0.06440300  0.23782500  0.02744300  1
  O  O69  1  0.93559700  0.26217500  0.52744300  1
  O  O70  1  0.54821100  0.88757300  0.78780500  1
  O  O71  1  0.56583300  0.80293000  0.18587200  1
