# generated using pymatgen
data_Li5ReO6
_symmetry_space_group_name_H-M   'P 1'
_cell_length_a   5.11819400
_cell_length_b   8.82082000
_cell_length_c   5.08413575
_cell_angle_alpha   90.00000000
_cell_angle_beta   110.14041614
_cell_angle_gamma   90.00000000
_symmetry_Int_Tables_number   1
_chemical_formula_structural   Li5ReO6
_chemical_formula_sum   'Li10 Re2 O12'
_cell_volume   215.49628788
_cell_formula_units_Z   2
loop_
 _symmetry_equiv_pos_site_id
 _symmetry_equiv_pos_as_xyz
  1  'x, y, z'
loop_
 _atom_site_type_symbol
 _atom_site_label
 _atom_site_symmetry_multiplicity
 _atom_site_fract_x
 _atom_site_fract_y
 _atom_site_fract_z
 _atom_site_occupancy
  Li  Li0  1  0.50000000  0.16637900  0.00000000  1
  Li  Li1  1  0.50000000  0.83362100  0.00000000  1
  Li  Li2  1  0.50000000  0.00000000  0.50000000  1
  Li  Li3  1  0.50000000  0.32370500  0.50000000  1
  Li  Li4  1  0.50000000  0.67629500  0.50000000  1
  Li  Li5  1  0.00000000  0.66637900  0.00000000  1
  Li  Li6  1  0.00000000  0.33362100  0.00000000  1
  Li  Li7  1  0.00000000  0.50000000  0.50000000  1
  Li  Li8  1  0.00000000  0.82370500  0.50000000  1
  Li  Li9  1  0.00000000  0.17629500  0.50000000  1
  Re  Re10  1  0.00000000  0.00000000  0.00000000  1
  Re  Re11  1  0.50000000  0.50000000  0.00000000  1
  O  O12  1  0.23010300  0.84703200  0.23396100  1
  O  O13  1  0.23010300  0.15296800  0.23396100  1
  O  O14  1  0.76989700  0.84703200  0.76603900  1
  O  O15  1  0.76989700  0.15296800  0.76603900  1
  O  O16  1  0.22771000  0.00000000  0.77404400  1
  O  O17  1  0.77229000  0.00000000  0.22595600  1
  O  O18  1  0.73010300  0.34703200  0.23396100  1
  O  O19  1  0.73010300  0.65296800  0.23396100  1
  O  O20  1  0.26989700  0.34703200  0.76603900  1
  O  O21  1  0.26989700  0.65296800  0.76603900  1
  O  O22  1  0.72771000  0.50000000  0.77404400  1
  O  O23  1  0.27229000  0.50000000  0.22595600  1
