# generated using pymatgen
data_K2Sn(HO)6
_symmetry_space_group_name_H-M   'P 1'
_cell_length_a   6.68020598
_cell_length_b   6.68020598
_cell_length_c   12.69358140
_cell_angle_alpha   90.00000000
_cell_angle_beta   90.00000000
_cell_angle_gamma   120.00000000
_symmetry_Int_Tables_number   1
_chemical_formula_structural   K2Sn(HO)6
_chemical_formula_sum   'K6 Sn3 H18 O18'
_cell_volume   490.56268617
_cell_formula_units_Z   3
loop_
 _symmetry_equiv_pos_site_id
 _symmetry_equiv_pos_as_xyz
  1  'x, y, z'
loop_
 _atom_site_type_symbol
 _atom_site_label
 _atom_site_symmetry_multiplicity
 _atom_site_fract_x
 _atom_site_fract_y
 _atom_site_fract_z
 _atom_site_occupancy
  K  K0  1  0.33333333  0.66666667  0.95743067  1
  K  K1  1  0.33333333  0.66666667  0.37590267  1
  K  K2  1  0.00000000  0.00000000  0.29076400  1
  K  K3  1  0.00000000  0.00000000  0.70923600  1
  K  K4  1  0.66666667  0.33333333  0.62409733  1
  K  K5  1  0.66666667  0.33333333  0.04256933  1
  Sn  Sn6  1  0.00000000  0.00000000  0.00000000  1
  Sn  Sn7  1  0.66666667  0.33333333  0.33333333  1
  Sn  Sn8  1  0.33333333  0.66666667  0.66666667  1
  H  H9  1  0.67324733  0.89619867  0.13766367  1
  H  H10  1  0.22295133  0.32675267  0.13766367  1
  H  H11  1  0.10380133  0.77704867  0.13766367  1
  H  H12  1  0.99341933  0.43713467  0.19566967  1
  H  H13  1  0.44371533  0.00658067  0.19566967  1
  H  H14  1  0.56286533  0.55628467  0.19566967  1
  H  H15  1  0.33991400  0.22953200  0.47099700  1
  H  H16  1  0.88961800  0.66008600  0.47099700  1
  H  H17  1  0.77046800  0.11038200  0.47099700  1
  H  H18  1  0.66008600  0.77046800  0.52900300  1
  H  H19  1  0.11038200  0.33991400  0.52900300  1
  H  H20  1  0.22953200  0.88961800  0.52900300  1
  H  H21  1  0.00658067  0.56286533  0.80433033  1
  H  H22  1  0.55628467  0.99341933  0.80433033  1
  H  H23  1  0.43713467  0.44371533  0.80433033  1
  H  H24  1  0.32675267  0.10380133  0.86233633  1
  H  H25  1  0.77704867  0.67324733  0.86233633  1
  H  H26  1  0.89619867  0.22295133  0.86233633  1
  O  O27  1  0.70764733  0.79444067  0.09382767  1
  O  O28  1  0.08679333  0.29235267  0.09382767  1
  O  O29  1  0.20555933  0.91320667  0.09382767  1
  O  O30  1  0.95901933  0.53889267  0.23950567  1
  O  O31  1  0.57987333  0.04098067  0.23950567  1
  O  O32  1  0.46110733  0.42012667  0.23950567  1
  O  O33  1  0.37431400  0.12777400  0.42716100  1
  O  O34  1  0.75346000  0.62568600  0.42716100  1
  O  O35  1  0.87222600  0.24654000  0.42716100  1
  O  O36  1  0.62568600  0.87222600  0.57283900  1
  O  O37  1  0.24654000  0.37431400  0.57283900  1
  O  O38  1  0.12777400  0.75346000  0.57283900  1
  O  O39  1  0.04098067  0.46110733  0.76049433  1
  O  O40  1  0.42012667  0.95901933  0.76049433  1
  O  O41  1  0.53889267  0.57987333  0.76049433  1
  O  O42  1  0.29235267  0.20555933  0.90617233  1
  O  O43  1  0.91320667  0.70764733  0.90617233  1
  O  O44  1  0.79444067  0.08679333  0.90617233  1
