# generated using pymatgen
data_Li6Zr2O7
_symmetry_space_group_name_H-M   'P 1'
_cell_length_a   10.55861800
_cell_length_b   6.06101600
_cell_length_c   10.32763400
_cell_angle_alpha   90.00000000
_cell_angle_beta   100.32224067
_cell_angle_gamma   90.00000000
_symmetry_Int_Tables_number   1
_chemical_formula_structural   Li6Zr2O7
_chemical_formula_sum   'Li24 Zr8 O28'
_cell_volume   650.23004481
_cell_formula_units_Z   4
loop_
 _symmetry_equiv_pos_site_id
 _symmetry_equiv_pos_as_xyz
  1  'x, y, z'
loop_
 _atom_site_type_symbol
 _atom_site_label
 _atom_site_symmetry_multiplicity
 _atom_site_fract_x
 _atom_site_fract_y
 _atom_site_fract_z
 _atom_site_occupancy
  Li  Li0  1  0.93956100  0.64410500  0.41429500  1
  Li  Li1  1  0.56043900  0.14410500  0.08570500  1
  Li  Li2  1  0.56043900  0.85589500  0.58570500  1
  Li  Li3  1  0.56775750  0.60016450  0.10212500  1
  Li  Li4  1  0.70644950  0.12789950  0.89490200  1
  Li  Li5  1  0.79355050  0.62789950  0.60509800  1
  Li  Li6  1  0.79355050  0.37210050  0.10509800  1
  Li  Li7  1  0.70644950  0.87210050  0.39490200  1
  Li  Li8  1  0.56775750  0.39983550  0.60212500  1
  Li  Li9  1  0.93224250  0.89983550  0.89787500  1
  Li  Li10  1  0.93224250  0.10016450  0.39787500  1
  Li  Li11  1  0.93956100  0.35589500  0.91429500  1
  Li  Li12  1  0.43956100  0.14410500  0.41429500  1
  Li  Li13  1  0.06043900  0.64410500  0.08570500  1
  Li  Li14  1  0.06043900  0.35589500  0.58570500  1
  Li  Li15  1  0.06775750  0.10016450  0.10212500  1
  Li  Li16  1  0.20644950  0.62789950  0.89490200  1
  Li  Li17  1  0.29355050  0.12789950  0.60509800  1
  Li  Li18  1  0.29355050  0.87210050  0.10509800  1
  Li  Li19  1  0.20644950  0.37210050  0.39490200  1
  Li  Li20  1  0.06775750  0.89983550  0.60212500  1
  Li  Li21  1  0.43224250  0.39983550  0.89787500  1
  Li  Li22  1  0.43224250  0.60016450  0.39787500  1
  Li  Li23  1  0.43956100  0.85589500  0.91429500  1
  Zr  Zr24  1  0.81653300  0.87920100  0.13516400  1
  Zr  Zr25  1  0.68346700  0.37920100  0.36483600  1
  Zr  Zr26  1  0.68346700  0.62079900  0.86483600  1
  Zr  Zr27  1  0.81653300  0.12079900  0.63516400  1
  Zr  Zr28  1  0.31653300  0.37920100  0.13516400  1
  Zr  Zr29  1  0.18346700  0.87920100  0.36483600  1
  Zr  Zr30  1  0.18346700  0.12079900  0.86483600  1
  Zr  Zr31  1  0.31653300  0.62079900  0.63516400  1
  O  O32  1  0.74666900  0.38851500  0.74273900  1
  O  O33  1  0.75333100  0.88851500  0.75726100  1
  O  O34  1  0.75333100  0.11148500  0.25726100  1
  O  O35  1  0.74666900  0.61148500  0.24273900  1
  O  O36  1  0.00000000  0.15852700  0.75000000  1
  O  O37  1  0.00000000  0.84147300  0.25000000  1
  O  O38  1  0.86733100  0.36862000  0.49747300  1
  O  O39  1  0.63266900  0.86862000  0.00252700  1
  O  O40  1  0.63266900  0.13138000  0.50252700  1
  O  O41  1  0.86733100  0.63138000  0.99747300  1
  O  O42  1  0.62115850  0.37708350  0.97745800  1
  O  O43  1  0.87884150  0.87708350  0.52254200  1
  O  O44  1  0.87884150  0.12291650  0.02254200  1
  O  O45  1  0.62115850  0.62291650  0.47745800  1
  O  O46  1  0.24666900  0.88851500  0.74273900  1
  O  O47  1  0.25333100  0.38851500  0.75726100  1
  O  O48  1  0.25333100  0.61148500  0.25726100  1
  O  O49  1  0.24666900  0.11148500  0.24273900  1
  O  O50  1  0.50000000  0.65852700  0.75000000  1
  O  O51  1  0.50000000  0.34147300  0.25000000  1
  O  O52  1  0.36733100  0.86862000  0.49747300  1
  O  O53  1  0.13266900  0.36862000  0.00252700  1
  O  O54  1  0.13266900  0.63138000  0.50252700  1
  O  O55  1  0.36733100  0.13138000  0.99747300  1
  O  O56  1  0.12115850  0.87708350  0.97745800  1
  O  O57  1  0.37884150  0.37708350  0.52254200  1
  O  O58  1  0.37884150  0.62291650  0.02254200  1
  O  O59  1  0.12115850  0.12291650  0.47745800  1
