# generated using pymatgen
data_TiH8C4NO10
_symmetry_space_group_name_H-M   'P 1'
_cell_length_a   8.97252835
_cell_length_b   8.97252835
_cell_length_c   11.01895200
_cell_angle_alpha   90.00000000
_cell_angle_beta   90.00000000
_cell_angle_gamma   120.00000000
_symmetry_Int_Tables_number   1
_chemical_formula_structural   TiH8C4NO10
_chemical_formula_sum   'Ti3 H24 C12 N3 O30'
_cell_volume   768.24652003
_cell_formula_units_Z   3
loop_
 _symmetry_equiv_pos_site_id
 _symmetry_equiv_pos_as_xyz
  1  'x, y, z'
loop_
 _atom_site_type_symbol
 _atom_site_label
 _atom_site_symmetry_multiplicity
 _atom_site_fract_x
 _atom_site_fract_y
 _atom_site_fract_z
 _atom_site_occupancy
  Ti  Ti0  1  0.50000000  0.50000000  0.16666667  1
  Ti  Ti1  1  0.50000000  0.00000000  0.50000000  1
  Ti  Ti2  1  0.00000000  0.50000000  0.83333333  1
  H  H3  1  0.97482800  0.07944100  0.44562933  1
  H  H4  1  0.63860300  0.73981700  0.65319333  1
  H  H5  1  0.07944100  0.97482800  0.88770400  1
  H  H6  1  0.73981700  0.63860300  0.68014000  1
  H  H7  1  0.10121400  0.73981700  0.34680667  1
  H  H8  1  0.02517200  0.10461300  0.22103733  1
  H  H9  1  0.07944100  0.10461300  0.77896267  1
  H  H10  1  0.02517200  0.92055900  0.44562933  1
  H  H11  1  0.92055900  0.02517200  0.88770400  1
  H  H12  1  0.36139700  0.26018300  0.65319333  1
  H  H13  1  0.10461300  0.07944100  0.55437067  1
  H  H14  1  0.26018300  0.89878600  0.98652667  1
  H  H15  1  0.89878600  0.26018300  0.34680667  1
  H  H16  1  0.10121400  0.36139700  0.31986000  1
  H  H17  1  0.73981700  0.10121400  0.98652667  1
  H  H18  1  0.10461300  0.02517200  0.11229600  1
  H  H19  1  0.92055900  0.89538700  0.77896267  1
  H  H20  1  0.89538700  0.92055900  0.55437067  1
  H  H21  1  0.36139700  0.10121400  0.01347333  1
  H  H22  1  0.89878600  0.63860300  0.31986000  1
  H  H23  1  0.89538700  0.97482800  0.11229600  1
  H  H24  1  0.63860300  0.89878600  0.01347333  1
  H  H25  1  0.26018300  0.36139700  0.68014000  1
  H  H26  1  0.97482800  0.89538700  0.22103733  1
  C  C27  1  0.21429700  0.78570300  0.66666667  1
  C  C28  1  0.62137800  0.31068900  0.33333333  1
  C  C29  1  0.78570300  0.21429700  0.66666667  1
  C  C30  1  0.21429700  0.42859400  0.00000000  1
  C  C31  1  0.68931100  0.31068900  0.66666667  1
  C  C32  1  0.31068900  0.62137800  0.00000000  1
  C  C33  1  0.78570300  0.57140600  0.00000000  1
  C  C34  1  0.68931100  0.37862200  0.00000000  1
  C  C35  1  0.31068900  0.68931100  0.66666667  1
  C  C36  1  0.42859400  0.21429700  0.33333333  1
  C  C37  1  0.37862200  0.68931100  0.33333333  1
  C  C38  1  0.57140600  0.78570300  0.33333333  1
  N  N39  1  0.00000000  0.00000000  0.16666667  1
  N  N40  1  0.00000000  0.00000000  0.50000000  1
  N  N41  1  0.00000000  0.00000000  0.83333333  1
  O  O42  1  0.23999900  0.54771300  0.72468533  1
  O  O43  1  0.23999900  0.69228600  0.94198133  1
  O  O44  1  0.72273200  0.64544300  0.06267233  1
  O  O45  1  0.75338800  0.75338800  0.66666667  1
  O  O46  1  0.54771300  0.23999900  0.60864800  1
  O  O47  1  0.30771400  0.54771300  0.27531467  1
  O  O48  1  0.64544300  0.92271100  0.39600567  1
  O  O49  1  0.69228600  0.23999900  0.39135200  1
  O  O50  1  0.00000000  0.24661200  0.33333333  1
  O  O51  1  0.64544300  0.72273200  0.27066100  1
  O  O52  1  0.45228700  0.69228600  0.05801867  1
  O  O53  1  0.72273200  0.07728900  0.60399433  1
  O  O54  1  0.92271100  0.64544300  0.93732767  1
  O  O55  1  0.35455700  0.07728900  0.39600567  1
  O  O56  1  0.07728900  0.72273200  0.72933900  1
  O  O57  1  0.45228700  0.76000100  0.60864800  1
  O  O58  1  0.75338800  0.00000000  0.00000000  1
  O  O59  1  0.76000100  0.30771400  0.94198133  1
  O  O60  1  0.24661200  0.24661200  0.66666667  1
  O  O61  1  0.00000000  0.75338800  0.33333333  1
  O  O62  1  0.27726800  0.35455700  0.06267233  1
  O  O63  1  0.27726800  0.92271100  0.60399433  1
  O  O64  1  0.07728900  0.35455700  0.93732767  1
  O  O65  1  0.69228600  0.45228700  0.27531467  1
  O  O66  1  0.54771300  0.30771400  0.05801867  1
  O  O67  1  0.24661200  0.00000000  0.00000000  1
  O  O68  1  0.35455700  0.27726800  0.27066100  1
  O  O69  1  0.30771400  0.76000100  0.39135200  1
  O  O70  1  0.76000100  0.45228700  0.72468533  1
  O  O71  1  0.92271100  0.27726800  0.72933900  1
