# generated using pymatgen
data_KTiPSe5
_symmetry_space_group_name_H-M   'P 1'
_cell_length_a   18.79375200
_cell_length_b   7.48534600
_cell_length_c   6.90934136
_cell_angle_alpha   90.00000000
_cell_angle_beta   98.91226429
_cell_angle_gamma   90.00000000
_symmetry_Int_Tables_number   1
_chemical_formula_structural   KTiPSe5
_chemical_formula_sum   'K4 Ti4 P4 Se20'
_cell_volume   960.25539620
_cell_formula_units_Z   4
loop_
 _symmetry_equiv_pos_site_id
 _symmetry_equiv_pos_as_xyz
  1  'x, y, z'
loop_
 _atom_site_type_symbol
 _atom_site_label
 _atom_site_symmetry_multiplicity
 _atom_site_fract_x
 _atom_site_fract_y
 _atom_site_fract_z
 _atom_site_occupancy
  K  K0  1  0.73125300  0.00000000  0.23349600  1
  K  K1  1  0.76874700  0.50000000  0.76650400  1
  K  K2  1  0.23125300  0.50000000  0.23349600  1
  K  K3  1  0.26874700  0.00000000  0.76650400  1
  Ti  Ti4  1  0.00000000  0.27684300  0.00000000  1
  Ti  Ti5  1  0.00000000  0.72315700  0.00000000  1
  Ti  Ti6  1  0.50000000  0.77684300  0.00000000  1
  Ti  Ti7  1  0.50000000  0.22315700  0.00000000  1
  P  P8  1  0.86390700  0.00000000  0.78869300  1
  P  P9  1  0.63609300  0.50000000  0.21130700  1
  P  P10  1  0.36390700  0.50000000  0.78869300  1
  P  P11  1  0.13609300  0.00000000  0.21130700  1
  Se  Se12  1  0.58349700  0.50000000  0.89381100  1
  Se  Se13  1  0.55822800  0.00000000  0.81706800  1
  Se  Se14  1  0.58516400  0.26033500  0.32733300  1
  Se  Se15  1  0.91650300  0.00000000  0.10618900  1
  Se  Se16  1  0.91483600  0.23966500  0.67266700  1
  Se  Se17  1  0.58516400  0.73966500  0.32733300  1
  Se  Se18  1  0.94177200  0.50000000  0.18293200  1
  Se  Se19  1  0.74677600  0.00000000  0.74241700  1
  Se  Se20  1  0.91483600  0.76033500  0.67266700  1
  Se  Se21  1  0.75322400  0.50000000  0.25758300  1
  Se  Se22  1  0.08349700  0.00000000  0.89381100  1
  Se  Se23  1  0.05822800  0.50000000  0.81706800  1
  Se  Se24  1  0.08516400  0.76033500  0.32733300  1
  Se  Se25  1  0.41650300  0.50000000  0.10618900  1
  Se  Se26  1  0.41483600  0.73966500  0.67266700  1
  Se  Se27  1  0.08516400  0.23966500  0.32733300  1
  Se  Se28  1  0.44177200  0.00000000  0.18293200  1
  Se  Se29  1  0.24677600  0.50000000  0.74241700  1
  Se  Se30  1  0.41483600  0.26033500  0.67266700  1
  Se  Se31  1  0.25322400  0.00000000  0.25758300  1
