# generated using pymatgen
data_Hg9(PO4)4
_symmetry_space_group_name_H-M   'P 1'
_cell_length_a   16.87519553
_cell_length_b   16.87519553
_cell_length_c   10.90528130
_cell_angle_alpha   90.00000000
_cell_angle_beta   90.00000000
_cell_angle_gamma   120.00000000
_symmetry_Int_Tables_number   1
_chemical_formula_structural   Hg9(PO4)4
_chemical_formula_sum   'Hg54 P24 O96'
_cell_volume   2689.46026283
_cell_formula_units_Z   6
loop_
 _symmetry_equiv_pos_site_id
 _symmetry_equiv_pos_as_xyz
  1  'x, y, z'
loop_
 _atom_site_type_symbol
 _atom_site_label
 _atom_site_symmetry_multiplicity
 _atom_site_fract_x
 _atom_site_fract_y
 _atom_site_fract_z
 _atom_site_occupancy
  Hg  Hg0  1  0.05795133  0.89047467  0.34666767  1
  Hg  Hg1  1  0.83252333  0.94204867  0.34666767  1
  Hg  Hg2  1  0.10952533  0.16747667  0.34666767  1
  Hg  Hg3  1  0.10952533  0.94204867  0.84666767  1
  Hg  Hg4  1  0.83252333  0.89047467  0.84666767  1
  Hg  Hg5  1  0.05795133  0.16747667  0.84666767  1
  Hg  Hg6  1  0.80949767  0.09040433  0.37124033  1
  Hg  Hg7  1  0.28090667  0.19050233  0.37124033  1
  Hg  Hg8  1  0.90959567  0.71909333  0.37124033  1
  Hg  Hg9  1  0.24292900  0.85716900  0.53790700  1
  Hg  Hg10  1  0.61424000  0.75707100  0.53790700  1
  Hg  Hg11  1  0.14283100  0.38576000  0.53790700  1
  Hg  Hg12  1  0.87314100  0.49195300  0.47453500  1
  Hg  Hg13  1  0.61881200  0.12685900  0.47453500  1
  Hg  Hg14  1  0.50804700  0.38118800  0.47453500  1
  Hg  Hg15  1  0.84138033  0.79352567  0.64120167  1
  Hg  Hg16  1  0.95214533  0.15861967  0.64120167  1
  Hg  Hg17  1  0.20647433  0.04785467  0.64120167  1
  Hg  Hg18  1  0.72461800  0.22380800  0.68000100  1
  Hg  Hg19  1  0.49919000  0.27538200  0.68000100  1
  Hg  Hg20  1  0.77619200  0.50081000  0.68000100  1
  Hg  Hg21  1  0.77619200  0.27538200  0.18000100  1
  Hg  Hg22  1  0.49919000  0.22380800  0.18000100  1
  Hg  Hg23  1  0.72461800  0.50081000  0.18000100  1
  Hg  Hg24  1  0.47616433  0.42373767  0.70457367  1
  Hg  Hg25  1  0.94757333  0.52383567  0.70457367  1
  Hg  Hg26  1  0.57626233  0.05242667  0.70457367  1
  Hg  Hg27  1  0.90959567  0.19050233  0.87124033  1
  Hg  Hg28  1  0.28090667  0.09040433  0.87124033  1
  Hg  Hg29  1  0.80949767  0.71909333  0.87124033  1
  Hg  Hg30  1  0.53980767  0.82528633  0.80786833  1
  Hg  Hg31  1  0.28547867  0.46019233  0.80786833  1
  Hg  Hg32  1  0.17471367  0.71452133  0.80786833  1
  Hg  Hg33  1  0.50804700  0.12685900  0.97453500  1
  Hg  Hg34  1  0.61881200  0.49195300  0.97453500  1
  Hg  Hg35  1  0.87314100  0.38118800  0.97453500  1
  Hg  Hg36  1  0.39128467  0.55714133  0.01333433  1
  Hg  Hg37  1  0.16585667  0.60871533  0.01333433  1
  Hg  Hg38  1  0.44285867  0.83414333  0.01333433  1
  Hg  Hg39  1  0.44285867  0.60871533  0.51333433  1
  Hg  Hg40  1  0.16585667  0.55714133  0.51333433  1
  Hg  Hg41  1  0.39128467  0.83414333  0.51333433  1
  Hg  Hg42  1  0.14283100  0.75707100  0.03790700  1
  Hg  Hg43  1  0.61424000  0.85716900  0.03790700  1
  Hg  Hg44  1  0.24292900  0.38576000  0.03790700  1
  Hg  Hg45  1  0.57626233  0.52383567  0.20457367  1
  Hg  Hg46  1  0.94757333  0.42373767  0.20457367  1
  Hg  Hg47  1  0.47616433  0.05242667  0.20457367  1
  Hg  Hg48  1  0.20647433  0.15861967  0.14120167  1
  Hg  Hg49  1  0.95214533  0.79352567  0.14120167  1
  Hg  Hg50  1  0.84138033  0.04785467  0.14120167  1
  Hg  Hg51  1  0.17471367  0.46019233  0.30786833  1
  Hg  Hg52  1  0.28547867  0.82528633  0.30786833  1
  Hg  Hg53  1  0.53980767  0.71452133  0.30786833  1
  P  P54  1  0.90057733  0.30436367  0.47809067  1
  P  P55  1  0.40378633  0.09942267  0.47809067  1
  P  P56  1  0.69563633  0.59621367  0.47809067  1
  P  P57  1  0.02896967  0.76608933  0.64475733  1
  P  P58  1  0.73711967  0.97103033  0.64475733  1
  P  P59  1  0.23391067  0.26288033  0.64475733  1
  P  P60  1  0.00000000  0.00000000  0.05581000  1
  P  P61  1  0.00000000  0.00000000  0.55581000  1
  P  P62  1  0.56724400  0.63769700  0.81142400  1
  P  P63  1  0.07045300  0.43275600  0.81142400  1
  P  P64  1  0.36230300  0.92954700  0.81142400  1
  P  P65  1  0.69563633  0.09942267  0.97809067  1
  P  P66  1  0.40378633  0.30436367  0.97809067  1
  P  P67  1  0.90057733  0.59621367  0.97809067  1
  P  P68  1  0.66666667  0.33333333  0.38914333  1
  P  P69  1  0.66666667  0.33333333  0.88914333  1
  P  P70  1  0.23391067  0.97103033  0.14475733  1
  P  P71  1  0.73711967  0.76608933  0.14475733  1
  P  P72  1  0.02896967  0.26288033  0.14475733  1
  P  P73  1  0.36230300  0.43275600  0.31142400  1
  P  P74  1  0.07045300  0.63769700  0.31142400  1
  P  P75  1  0.56724400  0.92954700  0.31142400  1
  P  P76  1  0.33333333  0.66666667  0.72247667  1
  P  P77  1  0.33333333  0.66666667  0.22247667  1
  O  O78  1  0.42375400  0.74906600  0.66628900  1
  O  O79  1  0.32531200  0.57624600  0.66628900  1
  O  O80  1  0.25093400  0.67468800  0.66628900  1
  O  O81  1  0.91760067  0.90957933  0.49962233  1
  O  O82  1  0.99197867  0.08239933  0.49962233  1
  O  O83  1  0.09042067  0.00802133  0.49962233  1
  O  O84  1  0.82679167  0.23130233  0.38903233  1
  O  O85  1  0.40451067  0.17320833  0.38903233  1
  O  O86  1  0.76869767  0.59548933  0.38903233  1
  O  O87  1  0.10203100  0.83987500  0.55569900  1
  O  O88  1  0.73784400  0.89796900  0.55569900  1
  O  O89  1  0.16012500  0.26215600  0.55569900  1
  O  O90  1  0.19062233  0.98359267  0.26329467  1
  O  O91  1  0.79297033  0.80937767  0.26329467  1
  O  O92  1  0.01640733  0.20702967  0.26329467  1
  O  O93  1  0.01640733  0.80937767  0.76329467  1
  O  O94  1  0.79297033  0.98359267  0.76329467  1
  O  O95  1  0.19062233  0.20702967  0.76329467  1
  O  O96  1  0.94829467  0.40098333  0.41426233  1
  O  O97  1  0.45268867  0.05170533  0.41426233  1
  O  O98  1  0.59901667  0.54731133  0.41426233  1
  O  O99  1  0.93235000  0.71837200  0.58092900  1
  O  O100  1  0.78602200  0.06765000  0.58092900  1
  O  O101  1  0.28162800  0.21397800  0.58092900  1
  O  O102  1  0.63628033  0.94309667  0.67547867  1
  O  O103  1  0.30681633  0.36371967  0.67547867  1
  O  O104  1  0.05690333  0.69318367  0.67547867  1
  O  O105  1  0.72357000  0.69705300  0.50881200  1
  O  O106  1  0.97348300  0.27643000  0.50881200  1
  O  O107  1  0.30294700  0.02651700  0.50881200  1
  O  O108  1  0.00000000  0.00000000  0.19548900  1
  O  O109  1  0.00000000  0.00000000  0.69548900  1
  O  O110  1  0.09042067  0.08239933  0.99962233  1
  O  O111  1  0.99197867  0.90957933  0.99962233  1
  O  O112  1  0.91760067  0.00802133  0.99962233  1
  O  O113  1  0.58426733  0.24291267  0.83295567  1
  O  O114  1  0.65864533  0.41573267  0.83295567  1
  O  O115  1  0.75708733  0.34135467  0.83295567  1
  O  O116  1  0.49345833  0.56463567  0.72236567  1
  O  O117  1  0.07117733  0.50654167  0.72236567  1
  O  O118  1  0.43536433  0.92882267  0.72236567  1
  O  O119  1  0.76869767  0.17320833  0.88903233  1
  O  O120  1  0.40451067  0.23130233  0.88903233  1
  O  O121  1  0.82679167  0.59548933  0.88903233  1
  O  O122  1  0.85728900  0.31692600  0.59662800  1
  O  O123  1  0.45963700  0.14271100  0.59662800  1
  O  O124  1  0.68307400  0.54036300  0.59662800  1
  O  O125  1  0.68307400  0.14271100  0.09662800  1
  O  O126  1  0.45963700  0.31692600  0.09662800  1
  O  O127  1  0.85728900  0.54036300  0.09662800  1
  O  O128  1  0.61496133  0.73431667  0.74759567  1
  O  O129  1  0.11935533  0.38503867  0.74759567  1
  O  O130  1  0.26568333  0.88064467  0.74759567  1
  O  O131  1  0.59901667  0.05170533  0.91426233  1
  O  O132  1  0.45268867  0.40098333  0.91426233  1
  O  O133  1  0.94829467  0.54731133  0.91426233  1
  O  O134  1  0.30294700  0.27643000  0.00881200  1
  O  O135  1  0.97348300  0.69705300  0.00881200  1
  O  O136  1  0.72357000  0.02651700  0.00881200  1
  O  O137  1  0.39023667  0.03038633  0.84214533  1
  O  O138  1  0.64014967  0.60976333  0.84214533  1
  O  O139  1  0.96961367  0.35985033  0.84214533  1
  O  O140  1  0.66666667  0.33333333  0.52882233  1
  O  O141  1  0.66666667  0.33333333  0.02882233  1
  O  O142  1  0.75708733  0.41573267  0.33295567  1
  O  O143  1  0.65864533  0.24291267  0.33295567  1
  O  O144  1  0.58426733  0.34135467  0.33295567  1
  O  O145  1  0.25093400  0.57624600  0.16628900  1
  O  O146  1  0.32531200  0.74906600  0.16628900  1
  O  O147  1  0.42375400  0.67468800  0.16628900  1
  O  O148  1  0.16012500  0.89796900  0.05569900  1
  O  O149  1  0.73784400  0.83987500  0.05569900  1
  O  O150  1  0.10203100  0.26215600  0.05569900  1
  O  O151  1  0.43536433  0.50654167  0.22236567  1
  O  O152  1  0.07117733  0.56463567  0.22236567  1
  O  O153  1  0.49345833  0.92882267  0.22236567  1
  O  O154  1  0.52395567  0.65025933  0.92996133  1
  O  O155  1  0.12630367  0.47604433  0.92996133  1
  O  O156  1  0.34974067  0.87369633  0.92996133  1
  O  O157  1  0.34974067  0.47604433  0.42996133  1
  O  O158  1  0.12630367  0.65025933  0.42996133  1
  O  O159  1  0.52395567  0.87369633  0.42996133  1
  O  O160  1  0.28162800  0.06765000  0.08092900  1
  O  O161  1  0.78602200  0.71837200  0.08092900  1
  O  O162  1  0.93235000  0.21397800  0.08092900  1
  O  O163  1  0.26568333  0.38503867  0.24759567  1
  O  O164  1  0.11935533  0.73431667  0.24759567  1
  O  O165  1  0.61496133  0.88064467  0.24759567  1
  O  O166  1  0.96961367  0.60976333  0.34214533  1
  O  O167  1  0.64014967  0.03038633  0.34214533  1
  O  O168  1  0.39023667  0.35985033  0.34214533  1
  O  O169  1  0.05690333  0.36371967  0.17547867  1
  O  O170  1  0.30681633  0.94309667  0.17547867  1
  O  O171  1  0.63628033  0.69318367  0.17547867  1
  O  O172  1  0.33333333  0.66666667  0.86215567  1
  O  O173  1  0.33333333  0.66666667  0.36215567  1
