# generated using pymatgen
data_KLa(PO3)4
_symmetry_space_group_name_H-M   'P 1'
_cell_length_a   7.40810800
_cell_length_b   8.65512400
_cell_length_c   8.19082384
_cell_angle_alpha   90.00000000
_cell_angle_beta   91.99361917
_cell_angle_gamma   90.00000000
_symmetry_Int_Tables_number   1
_chemical_formula_structural   KLa(PO3)4
_chemical_formula_sum   'K2 La2 P8 O24'
_cell_volume   524.86212030
_cell_formula_units_Z   2
loop_
 _symmetry_equiv_pos_site_id
 _symmetry_equiv_pos_as_xyz
  1  'x, y, z'
loop_
 _atom_site_type_symbol
 _atom_site_label
 _atom_site_symmetry_multiplicity
 _atom_site_fract_x
 _atom_site_fract_y
 _atom_site_fract_z
 _atom_site_occupancy
  K  K0  1  0.72707400  0.94469900  0.28128900  1
  K  K1  1  0.27292600  0.44469900  0.71871100  1
  La  La2  1  0.23450300  0.75189900  0.24224400  1
  La  La3  1  0.76549700  0.25189900  0.75775600  1
  P  P4  1  0.89625500  0.67602400  0.89278200  1
  P  P5  1  0.10374500  0.17602400  0.10721800  1
  P  P6  1  0.56610900  0.87541400  0.90039800  1
  P  P7  1  0.43389100  0.37541400  0.09960200  1
  P  P8  1  0.62358600  0.50471500  0.39414100  1
  P  P9  1  0.37641400  0.00471500  0.60585900  1
  P  P10  1  0.99815300  0.89923600  0.61907000  1
  P  P11  1  0.00184700  0.39923600  0.38093000  1
  O  O12  1  0.91481800  0.51725900  0.82219200  1
  O  O13  1  0.08518200  0.01725900  0.17780800  1
  O  O14  1  0.68646500  0.72290000  0.86835900  1
  O  O15  1  0.31353500  0.22290000  0.13164100  1
  O  O16  1  0.00755500  0.79679700  0.78304900  1
  O  O17  1  0.99244500  0.29679700  0.21695100  1
  O  O18  1  0.83158200  0.99831000  0.61209100  1
  O  O19  1  0.16841800  0.49831000  0.38790900  1
  O  O20  1  0.31686500  0.51554200  0.07513500  1
  O  O21  1  0.68313500  0.01554200  0.92486500  1
  O  O22  1  0.43968900  0.84185400  0.03566100  1
  O  O23  1  0.56031100  0.34185400  0.96433900  1
  O  O24  1  0.03005300  0.79929800  0.47277800  1
  O  O25  1  0.96994700  0.29929800  0.52722200  1
  O  O26  1  0.16785800  0.01184400  0.65601300  1
  O  O27  1  0.83214200  0.51184400  0.34398700  1
  O  O28  1  0.45390900  0.87122500  0.72838600  1
  O  O29  1  0.54609100  0.37122500  0.27161400  1
  O  O30  1  0.54106800  0.65757100  0.34868300  1
  O  O31  1  0.45893200  0.15757100  0.65131700  1
  O  O32  1  0.96000000  0.70657900  0.06613300  1
  O  O33  1  0.04000000  0.20657900  0.93386700  1
  O  O34  1  0.38963400  0.94563300  0.43460500  1
  O  O35  1  0.61036600  0.44563300  0.56539500  1
