# generated using pymatgen
data_Zn3(BO3)2
_symmetry_space_group_name_H-M   'P 1'
_cell_length_a   24.56085200
_cell_length_b   5.08611400
_cell_length_c   8.48316326
_cell_angle_alpha   90.00000000
_cell_angle_beta   103.45655594
_cell_angle_gamma   90.00000000
_symmetry_Int_Tables_number   1
_chemical_formula_structural   Zn3(BO3)2
_chemical_formula_sum   'Zn24 B16 O48'
_cell_volume   1030.61814702
_cell_formula_units_Z   8
loop_
 _symmetry_equiv_pos_site_id
 _symmetry_equiv_pos_as_xyz
  1  'x, y, z'
loop_
 _atom_site_type_symbol
 _atom_site_label
 _atom_site_symmetry_multiplicity
 _atom_site_fract_x
 _atom_site_fract_y
 _atom_site_fract_z
 _atom_site_occupancy
  Zn  Zn0  1  0.12719250  0.68273250  0.37988500  1
  Zn  Zn1  1  0.37280750  0.18273250  0.12011500  1
  Zn  Zn2  1  0.37280750  0.81726750  0.62011500  1
  Zn  Zn3  1  0.12719250  0.31726750  0.87988500  1
  Zn  Zn4  1  0.04897350  0.17510550  0.17490700  1
  Zn  Zn5  1  0.45102650  0.67510550  0.32509300  1
  Zn  Zn6  1  0.45102650  0.32489450  0.82509300  1
  Zn  Zn7  1  0.04897350  0.82489450  0.67490700  1
  Zn  Zn8  1  0.20960100  0.69109000  0.71221200  1
  Zn  Zn9  1  0.29039900  0.19109000  0.78778800  1
  Zn  Zn10  1  0.29039900  0.80891000  0.28778800  1
  Zn  Zn11  1  0.20960100  0.30891000  0.21221200  1
  Zn  Zn12  1  0.62719250  0.18273250  0.37988500  1
  Zn  Zn13  1  0.87280750  0.68273250  0.12011500  1
  Zn  Zn14  1  0.87280750  0.31726750  0.62011500  1
  Zn  Zn15  1  0.62719250  0.81726750  0.87988500  1
  Zn  Zn16  1  0.54897350  0.67510550  0.17490700  1
  Zn  Zn17  1  0.95102650  0.17510550  0.32509300  1
  Zn  Zn18  1  0.95102650  0.82489450  0.82509300  1
  Zn  Zn19  1  0.54897350  0.32489450  0.67490700  1
  Zn  Zn20  1  0.70960100  0.19109000  0.71221200  1
  Zn  Zn21  1  0.79039900  0.69109000  0.78778800  1
  Zn  Zn22  1  0.79039900  0.30891000  0.28778800  1
  Zn  Zn23  1  0.70960100  0.80891000  0.21221200  1
  B  B24  1  0.43469800  0.82387800  0.96272400  1
  B  B25  1  0.06530200  0.32387800  0.53727600  1
  B  B26  1  0.06530200  0.67612200  0.03727600  1
  B  B27  1  0.43469800  0.17612200  0.46272400  1
  B  B28  1  0.18739250  0.18511250  0.52017800  1
  B  B29  1  0.31260750  0.68511250  0.97982200  1
  B  B30  1  0.31260750  0.31488750  0.47982200  1
  B  B31  1  0.18739250  0.81488750  0.02017800  1
  B  B32  1  0.93469800  0.32387800  0.96272400  1
  B  B33  1  0.56530200  0.82387800  0.53727600  1
  B  B34  1  0.56530200  0.17612200  0.03727600  1
  B  B35  1  0.93469800  0.67612200  0.46272400  1
  B  B36  1  0.68739250  0.68511250  0.52017800  1
  B  B37  1  0.81260750  0.18511250  0.97982200  1
  B  B38  1  0.81260750  0.81488750  0.47982200  1
  B  B39  1  0.68739250  0.31488750  0.02017800  1
  O  O40  1  0.46395650  0.70038350  0.10094600  1
  O  O41  1  0.03604350  0.20038350  0.39905400  1
  O  O42  1  0.03604350  0.79961650  0.89905400  1
  O  O43  1  0.46395650  0.29961650  0.60094600  1
  O  O44  1  0.08103200  0.58654900  0.53984300  1
  O  O45  1  0.41896800  0.08654900  0.96015700  1
  O  O46  1  0.41896800  0.91345100  0.46015700  1
  O  O47  1  0.08103200  0.41345100  0.03984300  1
  O  O48  1  0.08036400  0.81882800  0.18003700  1
  O  O49  1  0.41963600  0.31882800  0.31996300  1
  O  O50  1  0.41963600  0.68117200  0.81996300  1
  O  O51  1  0.08036400  0.18117200  0.68003700  1
  O  O52  1  0.16373700  0.32523300  0.37978400  1
  O  O53  1  0.33626300  0.82523300  0.12021600  1
  O  O54  1  0.33626300  0.17476700  0.62021600  1
  O  O55  1  0.16373700  0.67476700  0.87978400  1
  O  O56  1  0.28442300  0.81330100  0.83994400  1
  O  O57  1  0.21557700  0.31330100  0.66005600  1
  O  O58  1  0.21557700  0.68669900  0.16005600  1
  O  O59  1  0.28442300  0.18669900  0.33994400  1
  O  O60  1  0.18375450  0.91323650  0.52044100  1
  O  O61  1  0.31624550  0.41323650  0.97955900  1
  O  O62  1  0.31624550  0.58676350  0.47955900  1
  O  O63  1  0.18375450  0.08676350  0.02044100  1
  O  O64  1  0.96395650  0.20038350  0.10094600  1
  O  O65  1  0.53604350  0.70038350  0.39905400  1
  O  O66  1  0.53604350  0.29961650  0.89905400  1
  O  O67  1  0.96395650  0.79961650  0.60094600  1
  O  O68  1  0.58103200  0.08654900  0.53984300  1
  O  O69  1  0.91896800  0.58654900  0.96015700  1
  O  O70  1  0.91896800  0.41345100  0.46015700  1
  O  O71  1  0.58103200  0.91345100  0.03984300  1
  O  O72  1  0.58036400  0.31882800  0.18003700  1
  O  O73  1  0.91963600  0.81882800  0.31996300  1
  O  O74  1  0.91963600  0.18117200  0.81996300  1
  O  O75  1  0.58036400  0.68117200  0.68003700  1
  O  O76  1  0.66373700  0.82523300  0.37978400  1
  O  O77  1  0.83626300  0.32523300  0.12021600  1
  O  O78  1  0.83626300  0.67476700  0.62021600  1
  O  O79  1  0.66373700  0.17476700  0.87978400  1
  O  O80  1  0.78442300  0.31330100  0.83994400  1
  O  O81  1  0.71557700  0.81330100  0.66005600  1
  O  O82  1  0.71557700  0.18669900  0.16005600  1
  O  O83  1  0.78442300  0.68669900  0.33994400  1
  O  O84  1  0.68375450  0.41323650  0.52044100  1
  O  O85  1  0.81624550  0.91323650  0.97955900  1
  O  O86  1  0.81624550  0.08676350  0.47955900  1
  O  O87  1  0.68375450  0.58676350  0.02044100  1
