# generated using pymatgen
data_Cs2Ta6PbCl18
_symmetry_space_group_name_H-M   'P 1'
_cell_length_a   9.68635166
_cell_length_b   9.68635166
_cell_length_c   26.71279776
_cell_angle_alpha   90.00000000
_cell_angle_beta   90.00000000
_cell_angle_gamma   120.00000000
_symmetry_Int_Tables_number   1
_chemical_formula_structural   Cs2Ta6PbCl18
_chemical_formula_sum   'Cs6 Ta18 Pb3 Cl54'
_cell_volume   2170.55338217
_cell_formula_units_Z   3
loop_
 _symmetry_equiv_pos_site_id
 _symmetry_equiv_pos_as_xyz
  1  'x, y, z'
loop_
 _atom_site_type_symbol
 _atom_site_label
 _atom_site_symmetry_multiplicity
 _atom_site_fract_x
 _atom_site_fract_y
 _atom_site_fract_z
 _atom_site_occupancy
  Cs  Cs0  1  0.00000000  0.00000000  0.27663700  1
  Cs  Cs1  1  0.66666667  0.33333333  0.05669633  1
  Cs  Cs2  1  0.66666667  0.33333333  0.60997033  1
  Cs  Cs3  1  0.33333333  0.66666667  0.39002967  1
  Cs  Cs4  1  0.33333333  0.66666667  0.94330367  1
  Cs  Cs5  1  0.00000000  0.00000000  0.72336300  1
  Ta  Ta6  1  0.29824567  0.47849833  0.12243733  1
  Ta  Ta7  1  0.14516500  0.51358600  0.21089600  1
  Ta  Ta8  1  0.48641400  0.63157900  0.21089600  1
  Ta  Ta9  1  0.52150167  0.81974733  0.12243733  1
  Ta  Ta10  1  0.36842100  0.85483500  0.21089600  1
  Ta  Ta11  1  0.18025267  0.70175433  0.12243733  1
  Ta  Ta12  1  0.96491233  0.81183167  0.45577067  1
  Ta  Ta13  1  0.81183167  0.84691933  0.54422933  1
  Ta  Ta14  1  0.15308067  0.96491233  0.54422933  1
  Ta  Ta15  1  0.18816833  0.15308067  0.45577067  1
  Ta  Ta16  1  0.03508767  0.18816833  0.54422933  1
  Ta  Ta17  1  0.84691933  0.03508767  0.45577067  1
  Ta  Ta18  1  0.63157900  0.14516500  0.78910400  1
  Ta  Ta19  1  0.47849833  0.18025267  0.87756267  1
  Ta  Ta20  1  0.81974733  0.29824567  0.87756267  1
  Ta  Ta21  1  0.85483500  0.48641400  0.78910400  1
  Ta  Ta22  1  0.70175433  0.52150167  0.87756267  1
  Ta  Ta23  1  0.51358600  0.36842100  0.78910400  1
  Pb  Pb24  1  0.00000000  0.00000000  0.00000000  1
  Pb  Pb25  1  0.66666667  0.33333333  0.33333333  1
  Pb  Pb26  1  0.33333333  0.66666667  0.66666667  1
  Cl  Cl27  1  0.47256800  0.40035600  0.16708500  1
  Cl  Cl28  1  0.59964400  0.07221200  0.16708500  1
  Cl  Cl29  1  0.92778800  0.52743200  0.16708500  1
  Cl  Cl30  1  0.76029567  0.01905333  0.06446633  1
  Cl  Cl31  1  0.10898367  0.48365433  0.06093633  1
  Cl  Cl32  1  0.40790900  0.09362900  0.26886700  1
  Cl  Cl33  1  0.73887867  0.80590133  0.16624833  1
  Cl  Cl34  1  0.29199600  0.44231700  0.27239700  1
  Cl  Cl35  1  0.15032100  0.70800400  0.27239700  1
  Cl  Cl36  1  0.68572000  0.59209100  0.26886700  1
  Cl  Cl37  1  0.90637100  0.31428000  0.26886700  1
  Cl  Cl38  1  0.98094667  0.74124233  0.06446633  1
  Cl  Cl39  1  0.25875767  0.23970433  0.06446633  1
  Cl  Cl40  1  0.06702267  0.26112133  0.16624833  1
  Cl  Cl41  1  0.51634567  0.62532933  0.06093633  1
  Cl  Cl42  1  0.37467067  0.89101633  0.06093633  1
  Cl  Cl43  1  0.19409867  0.93297733  0.16624833  1
  Cl  Cl44  1  0.55768300  0.84967900  0.27239700  1
  Cl  Cl45  1  0.13923467  0.73368933  0.50041833  1
  Cl  Cl46  1  0.26631067  0.40554533  0.50041833  1
  Cl  Cl47  1  0.59445467  0.86076533  0.50041833  1
  Cl  Cl48  1  0.42696233  0.35238667  0.39779967  1
  Cl  Cl49  1  0.77565033  0.81698767  0.39426967  1
  Cl  Cl50  1  0.07457567  0.42696233  0.60220033  1
  Cl  Cl51  1  0.40554533  0.13923467  0.49958167  1
  Cl  Cl52  1  0.95866267  0.77565033  0.60573033  1
  Cl  Cl53  1  0.81698767  0.04133733  0.60573033  1
  Cl  Cl54  1  0.35238667  0.92542433  0.60220033  1
  Cl  Cl55  1  0.57303767  0.64761333  0.60220033  1
  Cl  Cl56  1  0.64761333  0.07457567  0.39779967  1
  Cl  Cl57  1  0.92542433  0.57303767  0.39779967  1
  Cl  Cl58  1  0.73368933  0.59445467  0.49958167  1
  Cl  Cl59  1  0.18301233  0.95866267  0.39426967  1
  Cl  Cl60  1  0.04133733  0.22434967  0.39426967  1
  Cl  Cl61  1  0.86076533  0.26631067  0.49958167  1
  Cl  Cl62  1  0.22434967  0.18301233  0.60573033  1
  Cl  Cl63  1  0.80590133  0.06702267  0.83375167  1
  Cl  Cl64  1  0.93297733  0.73887867  0.83375167  1
  Cl  Cl65  1  0.26112133  0.19409867  0.83375167  1
  Cl  Cl66  1  0.09362900  0.68572000  0.73113300  1
  Cl  Cl67  1  0.44231700  0.15032100  0.72760300  1
  Cl  Cl68  1  0.74124233  0.76029567  0.93553367  1
  Cl  Cl69  1  0.07221200  0.47256800  0.83291500  1
  Cl  Cl70  1  0.62532933  0.10898367  0.93906367  1
  Cl  Cl71  1  0.48365433  0.37467067  0.93906367  1
  Cl  Cl72  1  0.01905333  0.25875767  0.93553367  1
  Cl  Cl73  1  0.23970433  0.98094667  0.93553367  1
  Cl  Cl74  1  0.31428000  0.40790900  0.73113300  1
  Cl  Cl75  1  0.59209100  0.90637100  0.73113300  1
  Cl  Cl76  1  0.40035600  0.92778800  0.83291500  1
  Cl  Cl77  1  0.84967900  0.29199600  0.72760300  1
  Cl  Cl78  1  0.70800400  0.55768300  0.72760300  1
  Cl  Cl79  1  0.52743200  0.59964400  0.83291500  1
  Cl  Cl80  1  0.89101633  0.51634567  0.93906367  1
