# generated using pymatgen
data_Sr7Zr(Si2O7)3
_symmetry_space_group_name_H-M   'P 1'
_cell_length_a   13.61136238
_cell_length_b   13.61136238
_cell_length_c   9.85810284
_cell_angle_alpha   90.00000000
_cell_angle_beta   90.00000000
_cell_angle_gamma   120.00000000
_symmetry_Int_Tables_number   1
_chemical_formula_structural   Sr7Zr(Si2O7)3
_chemical_formula_sum   'Sr21 Zr3 Si18 O63'
_cell_volume   1581.71112433
_cell_formula_units_Z   3
loop_
 _symmetry_equiv_pos_site_id
 _symmetry_equiv_pos_as_xyz
  1  'x, y, z'
loop_
 _atom_site_type_symbol
 _atom_site_label
 _atom_site_symmetry_multiplicity
 _atom_site_fract_x
 _atom_site_fract_y
 _atom_site_fract_z
 _atom_site_occupancy
  Sr  Sr0  1  0.11820100  0.35847600  0.51024000  1
  Sr  Sr1  1  0.35847600  0.24027500  0.48976000  1
  Sr  Sr2  1  0.00000000  0.00000000  0.50000000  1
  Sr  Sr3  1  0.88179900  0.64152400  0.48976000  1
  Sr  Sr4  1  0.64152400  0.75972500  0.51024000  1
  Sr  Sr5  1  0.75972500  0.11820100  0.48976000  1
  Sr  Sr6  1  0.24027500  0.88179900  0.51024000  1
  Sr  Sr7  1  0.78486767  0.69180933  0.84357333  1
  Sr  Sr8  1  0.02514267  0.57360833  0.82309333  1
  Sr  Sr9  1  0.66666667  0.33333333  0.83333333  1
  Sr  Sr10  1  0.54846567  0.97485733  0.82309333  1
  Sr  Sr11  1  0.30819067  0.09305833  0.84357333  1
  Sr  Sr12  1  0.42639167  0.45153433  0.82309333  1
  Sr  Sr13  1  0.90694167  0.21513233  0.84357333  1
  Sr  Sr14  1  0.45153433  0.02514267  0.17690667  1
  Sr  Sr15  1  0.69180933  0.90694167  0.15642667  1
  Sr  Sr16  1  0.33333333  0.66666667  0.16666667  1
  Sr  Sr17  1  0.21513233  0.30819067  0.15642667  1
  Sr  Sr18  1  0.97485733  0.42639167  0.17690667  1
  Sr  Sr19  1  0.09305833  0.78486767  0.15642667  1
  Sr  Sr20  1  0.57360833  0.54846567  0.17690667  1
  Zr  Zr21  1  0.00000000  0.00000000  0.00000000  1
  Zr  Zr22  1  0.66666667  0.33333333  0.33333333  1
  Zr  Zr23  1  0.33333333  0.66666667  0.66666667  1
  Si  Si24  1  0.16493800  0.22002600  0.76202800  1
  Si  Si25  1  0.77997400  0.94491200  0.76202800  1
  Si  Si26  1  0.94491200  0.16493800  0.23797200  1
  Si  Si27  1  0.22002600  0.05508800  0.23797200  1
  Si  Si28  1  0.05508800  0.83506200  0.76202800  1
  Si  Si29  1  0.83506200  0.77997400  0.23797200  1
  Si  Si30  1  0.83160467  0.55335933  0.09536133  1
  Si  Si31  1  0.44664067  0.27824533  0.09536133  1
  Si  Si32  1  0.61157867  0.49827133  0.57130533  1
  Si  Si33  1  0.88669267  0.38842133  0.57130533  1
  Si  Si34  1  0.72175467  0.16839533  0.09536133  1
  Si  Si35  1  0.50172867  0.11330733  0.57130533  1
  Si  Si36  1  0.49827133  0.88669267  0.42869467  1
  Si  Si37  1  0.11330733  0.61157867  0.42869467  1
  Si  Si38  1  0.27824533  0.83160467  0.90463867  1
  Si  Si39  1  0.55335933  0.72175467  0.90463867  1
  Si  Si40  1  0.38842133  0.50172867  0.42869467  1
  Si  Si41  1  0.16839533  0.44664067  0.90463867  1
  O  O42  1  0.10667933  0.92362567  0.63841567  1
  O  O43  1  0.62829967  0.92576033  0.38392733  1
  O  O44  1  0.53315233  0.20789067  0.45007267  1
  O  O45  1  0.67473833  0.46684767  0.45007267  1
  O  O46  1  0.07637433  0.18305367  0.63841567  1
  O  O47  1  0.07423967  0.70253933  0.38392733  1
  O  O48  1  0.92362567  0.81694633  0.36158433  1
  O  O49  1  0.81694633  0.89332067  0.63841567  1
  O  O50  1  0.70253933  0.62829967  0.61607267  1
  O  O51  1  0.46684767  0.79210933  0.54992733  1
  O  O52  1  0.29746067  0.37170033  0.38392733  1
  O  O53  1  0.89332067  0.07637433  0.36158433  1
  O  O54  1  0.32526167  0.53315233  0.54992733  1
  O  O55  1  0.20789067  0.67473833  0.54992733  1
  O  O56  1  0.83333333  0.66666667  0.16666667  1
  O  O57  1  0.92576033  0.29746067  0.61607267  1
  O  O58  1  0.83333333  0.16666667  0.16666667  1
  O  O59  1  0.37170033  0.07423967  0.61607267  1
  O  O60  1  0.18305367  0.10667933  0.36158433  1
  O  O61  1  0.33333333  0.16666667  0.16666667  1
  O  O62  1  0.79210933  0.32526167  0.45007267  1
  O  O63  1  0.77334600  0.25695900  0.97174900  1
  O  O64  1  0.29496633  0.25909367  0.71726067  1
  O  O65  1  0.19981900  0.54122400  0.78340600  1
  O  O66  1  0.34140500  0.80018100  0.78340600  1
  O  O67  1  0.74304100  0.51638700  0.97174900  1
  O  O68  1  0.74090633  0.03587267  0.71726067  1
  O  O69  1  0.59029233  0.15027967  0.69491767  1
  O  O70  1  0.48361300  0.22665400  0.97174900  1
  O  O71  1  0.36920600  0.96163300  0.94940600  1
  O  O72  1  0.13351433  0.12544267  0.88326067  1
  O  O73  1  0.96412733  0.70503367  0.71726067  1
  O  O74  1  0.55998733  0.40970767  0.69491767  1
  O  O75  1  0.99192833  0.86648567  0.88326067  1
  O  O76  1  0.87455733  0.00807167  0.88326067  1
  O  O77  1  0.50000000  0.00000000  0.50000000  1
  O  O78  1  0.59242700  0.63079400  0.94940600  1
  O  O79  1  0.50000000  0.50000000  0.50000000  1
  O  O80  1  0.03836700  0.40757300  0.94940600  1
  O  O81  1  0.84972033  0.44001267  0.69491767  1
  O  O82  1  0.00000000  0.50000000  0.50000000  1
  O  O83  1  0.45877600  0.65859500  0.78340600  1
  O  O84  1  0.44001267  0.59029233  0.30508233  1
  O  O85  1  0.96163300  0.59242700  0.05059400  1
  O  O86  1  0.86648567  0.87455733  0.11673933  1
  O  O87  1  0.00807167  0.13351433  0.11673933  1
  O  O88  1  0.40970767  0.84972033  0.30508233  1
  O  O89  1  0.40757300  0.36920600  0.05059400  1
  O  O90  1  0.25695900  0.48361300  0.02825100  1
  O  O91  1  0.15027967  0.55998733  0.30508233  1
  O  O92  1  0.03587267  0.29496633  0.28273933  1
  O  O93  1  0.80018100  0.45877600  0.21659400  1
  O  O94  1  0.63079400  0.03836700  0.05059400  1
  O  O95  1  0.22665400  0.74304100  0.02825100  1
  O  O96  1  0.65859500  0.19981900  0.21659400  1
  O  O97  1  0.54122400  0.34140500  0.21659400  1
  O  O98  1  0.16666667  0.33333333  0.83333333  1
  O  O99  1  0.25909367  0.96412733  0.28273933  1
  O  O100  1  0.16666667  0.83333333  0.83333333  1
  O  O101  1  0.70503367  0.74090633  0.28273933  1
  O  O102  1  0.51638700  0.77334600  0.02825100  1
  O  O103  1  0.66666667  0.83333333  0.83333333  1
  O  O104  1  0.12544267  0.99192833  0.11673933  1
