# generated using pymatgen
data_KNaMg2Si4(O5F)2
_symmetry_space_group_name_H-M   'P 1'
_cell_length_a   5.35043000
_cell_length_b   9.17293600
_cell_length_c   10.42862954
_cell_angle_alpha   90.00000000
_cell_angle_beta   101.35373630
_cell_angle_gamma   90.00000000
_symmetry_Int_Tables_number   1
_chemical_formula_structural   KNaMg2Si4(O5F)2
_chemical_formula_sum   'K2 Na2 Mg4 Si8 O20 F4'
_cell_volume   501.81204688
_cell_formula_units_Z   2
loop_
 _symmetry_equiv_pos_site_id
 _symmetry_equiv_pos_as_xyz
  1  'x, y, z'
loop_
 _atom_site_type_symbol
 _atom_site_label
 _atom_site_symmetry_multiplicity
 _atom_site_fract_x
 _atom_site_fract_y
 _atom_site_fract_z
 _atom_site_occupancy
  K  K0  1  0.50000000  0.00000000  0.00000000  1
  K  K1  1  0.00000000  0.50000000  0.00000000  1
  Na  Na2  1  0.00000000  0.00000000  0.50000000  1
  Na  Na3  1  0.50000000  0.50000000  0.50000000  1
  Mg  Mg4  1  0.50000000  0.16598200  0.50000000  1
  Mg  Mg5  1  0.50000000  0.83401800  0.50000000  1
  Mg  Mg6  1  0.00000000  0.66598200  0.50000000  1
  Mg  Mg7  1  0.00000000  0.33401800  0.50000000  1
  Si  Si8  1  0.41886650  0.67009350  0.77260500  1
  Si  Si9  1  0.58113350  0.67009350  0.22739500  1
  Si  Si10  1  0.41886650  0.32990650  0.77260500  1
  Si  Si11  1  0.58113350  0.32990650  0.22739500  1
  Si  Si12  1  0.91886650  0.17009350  0.77260500  1
  Si  Si13  1  0.08113350  0.17009350  0.22739500  1
  Si  Si14  1  0.91886650  0.82990650  0.77260500  1
  Si  Si15  1  0.08113350  0.82990650  0.22739500  1
  O  O16  1  0.35932200  0.31828100  0.61653800  1
  O  O17  1  0.94804200  0.00000000  0.82910600  1
  O  O18  1  0.69190550  0.24741650  0.83874200  1
  O  O19  1  0.30809450  0.75258350  0.16125800  1
  O  O20  1  0.64067800  0.68171900  0.38346200  1
  O  O21  1  0.05195800  0.00000000  0.17089400  1
  O  O22  1  0.35932200  0.68171900  0.61653800  1
  O  O23  1  0.30809450  0.24741650  0.16125800  1
  O  O24  1  0.64067800  0.31828100  0.38346200  1
  O  O25  1  0.69190550  0.75258350  0.83874200  1
  O  O26  1  0.85932200  0.81828100  0.61653800  1
  O  O27  1  0.44804200  0.50000000  0.82910600  1
  O  O28  1  0.19190550  0.74741650  0.83874200  1
  O  O29  1  0.80809450  0.25258350  0.16125800  1
  O  O30  1  0.14067800  0.18171900  0.38346200  1
  O  O31  1  0.55195800  0.50000000  0.17089400  1
  O  O32  1  0.85932200  0.18171900  0.61653800  1
  O  O33  1  0.80809450  0.74741650  0.16125800  1
  O  O34  1  0.14067800  0.81828100  0.38346200  1
  O  O35  1  0.19190550  0.25258350  0.83874200  1
  F  F36  1  0.59474100  0.00000000  0.39259500  1
  F  F37  1  0.40525900  0.00000000  0.60740500  1
  F  F38  1  0.09474100  0.50000000  0.39259500  1
  F  F39  1  0.90525900  0.50000000  0.60740500  1
