# generated using pymatgen
data_K2NaInSb2
_symmetry_space_group_name_H-M   'P 1'
_cell_length_a   14.23830400
_cell_length_b   16.64380000
_cell_length_c   7.08939700
_cell_angle_alpha   90.00000000
_cell_angle_beta   90.00000000
_cell_angle_gamma   90.00000000
_symmetry_Int_Tables_number   1
_chemical_formula_structural   K2NaInSb2
_chemical_formula_sum   'K16 Na8 In8 Sb16'
_cell_volume   1680.04164375
_cell_formula_units_Z   8
loop_
 _symmetry_equiv_pos_site_id
 _symmetry_equiv_pos_as_xyz
  1  'x, y, z'
loop_
 _atom_site_type_symbol
 _atom_site_label
 _atom_site_symmetry_multiplicity
 _atom_site_fract_x
 _atom_site_fract_y
 _atom_site_fract_z
 _atom_site_occupancy
  K  K0  1  0.25000000  0.17384400  0.25000000  1
  K  K1  1  0.25000000  0.82615600  0.75000000  1
  K  K2  1  0.75000000  0.82615600  0.75000000  1
  K  K3  1  0.75000000  0.17384400  0.25000000  1
  K  K4  1  0.50000000  0.82824200  0.22090000  1
  K  K5  1  0.50000000  0.67175800  0.72090000  1
  K  K6  1  0.50000000  0.17175800  0.77910000  1
  K  K7  1  0.50000000  0.32824200  0.27910000  1
  K  K8  1  0.75000000  0.67384400  0.25000000  1
  K  K9  1  0.75000000  0.32615600  0.75000000  1
  K  K10  1  0.25000000  0.32615600  0.75000000  1
  K  K11  1  0.25000000  0.67384400  0.25000000  1
  K  K12  1  0.00000000  0.32824200  0.22090000  1
  K  K13  1  0.00000000  0.17175800  0.72090000  1
  K  K14  1  0.00000000  0.67175800  0.77910000  1
  K  K15  1  0.00000000  0.82824200  0.27910000  1
  Na  Na16  1  0.38092400  0.00000000  0.00000000  1
  Na  Na17  1  0.11907600  0.00000000  0.50000000  1
  Na  Na18  1  0.61907600  0.00000000  0.00000000  1
  Na  Na19  1  0.88092400  0.00000000  0.50000000  1
  Na  Na20  1  0.88092400  0.50000000  0.00000000  1
  Na  Na21  1  0.61907600  0.50000000  0.50000000  1
  Na  Na22  1  0.11907600  0.50000000  0.00000000  1
  Na  Na23  1  0.38092400  0.50000000  0.50000000  1
  In  In24  1  0.13224200  0.00000000  0.00000000  1
  In  In25  1  0.36775800  0.00000000  0.50000000  1
  In  In26  1  0.86775800  0.00000000  0.00000000  1
  In  In27  1  0.63224200  0.00000000  0.50000000  1
  In  In28  1  0.63224200  0.50000000  0.00000000  1
  In  In29  1  0.86775800  0.50000000  0.50000000  1
  In  In30  1  0.36775800  0.50000000  0.00000000  1
  In  In31  1  0.13224200  0.50000000  0.50000000  1
  Sb  Sb32  1  0.75000000  0.89408850  0.25000000  1
  Sb  Sb33  1  0.75000000  0.10591150  0.75000000  1
  Sb  Sb34  1  0.25000000  0.10591150  0.75000000  1
  Sb  Sb35  1  0.25000000  0.89408850  0.25000000  1
  Sb  Sb36  1  0.50000000  0.60576800  0.20608700  1
  Sb  Sb37  1  0.50000000  0.89423200  0.70608700  1
  Sb  Sb38  1  0.50000000  0.39423200  0.79391300  1
  Sb  Sb39  1  0.50000000  0.10576800  0.29391300  1
  Sb  Sb40  1  0.25000000  0.39408850  0.25000000  1
  Sb  Sb41  1  0.25000000  0.60591150  0.75000000  1
  Sb  Sb42  1  0.75000000  0.60591150  0.75000000  1
  Sb  Sb43  1  0.75000000  0.39408850  0.25000000  1
  Sb  Sb44  1  0.00000000  0.10576800  0.20608700  1
  Sb  Sb45  1  0.00000000  0.39423200  0.70608700  1
  Sb  Sb46  1  0.00000000  0.89423200  0.79391300  1
  Sb  Sb47  1  0.00000000  0.60576800  0.29391300  1
