# generated using pymatgen
data_SnSb2As2F18
_symmetry_space_group_name_H-M   'P 1'
_cell_length_a   6.18493300
_cell_length_b   11.69836500
_cell_length_c   11.31776431
_cell_angle_alpha   90.00000000
_cell_angle_beta   90.31247204
_cell_angle_gamma   90.00000000
_symmetry_Int_Tables_number   1
_chemical_formula_structural   SnSb2As2F18
_chemical_formula_sum   'Sn2 Sb4 As4 F36'
_cell_volume   818.86885621
_cell_formula_units_Z   2
loop_
 _symmetry_equiv_pos_site_id
 _symmetry_equiv_pos_as_xyz
  1  'x, y, z'
loop_
 _atom_site_type_symbol
 _atom_site_label
 _atom_site_symmetry_multiplicity
 _atom_site_fract_x
 _atom_site_fract_y
 _atom_site_fract_z
 _atom_site_occupancy
  Sn  Sn0  1  0.99796500  0.63173700  0.50126100  1
  Sn  Sn1  1  0.99796500  0.36826300  0.00126100  1
  Sb  Sb2  1  0.48699100  0.88736300  0.46894500  1
  Sb  Sb3  1  0.48699100  0.11263700  0.96894500  1
  Sb  Sb4  1  0.48724500  0.53155400  0.76986000  1
  Sb  Sb5  1  0.48724500  0.46844600  0.26986000  1
  As  As6  1  0.90596700  0.75439400  0.12858700  1
  As  As7  1  0.90596700  0.24560600  0.62858700  1
  As  As8  1  0.11299600  0.13492400  0.28884700  1
  As  As9  1  0.11299600  0.86507600  0.78884700  1
  F  F10  1  0.68203300  0.48967900  0.89625800  1
  F  F11  1  0.96235100  0.70676200  0.27762900  1
  F  F12  1  0.72650400  0.58480100  0.67586400  1
  F  F13  1  0.29347900  0.75385600  0.45463300  1
  F  F14  1  0.23477600  0.98232300  0.45978400  1
  F  F15  1  0.94407500  0.97713100  0.74135800  1
  F  F16  1  0.28991100  0.42994200  0.14161200  1
  F  F17  1  0.16778600  0.80779900  0.10823900  1
  F  F18  1  0.44924800  0.68045000  0.83399900  1
  F  F19  1  0.28991100  0.57005800  0.64161200  1
  F  F20  1  0.03187900  0.77308300  0.66516800  1
  F  F21  1  0.96235100  0.29323800  0.77762900  1
  F  F22  1  0.96331300  0.61759100  0.06724400  1
  F  F23  1  0.91997600  0.19983500  0.38324700  1
  F  F24  1  0.51584700  0.61714600  0.20369600  1
  F  F25  1  0.23477600  0.01767700  0.95978400  1
  F  F26  1  0.91997600  0.80016500  0.88324700  1
  F  F27  1  0.45653900  0.12531100  0.13635100  1
  F  F28  1  0.45653900  0.87468900  0.63635100  1
  F  F29  1  0.44924800  0.31955000  0.33399900  1
  F  F30  1  0.72650400  0.41519900  0.17586400  1
  F  F31  1  0.24252900  0.48189100  0.86324900  1
  F  F32  1  0.16778600  0.19220100  0.60823900  1
  F  F33  1  0.94407500  0.02286900  0.24135800  1
  F  F34  1  0.96331300  0.38240900  0.56724400  1
  F  F35  1  0.03187900  0.22691700  0.16516800  1
  F  F36  1  0.51584700  0.38285400  0.70369600  1
  F  F37  1  0.51511400  0.88741900  0.30221400  1
  F  F38  1  0.51511400  0.11258100  0.80221400  1
  F  F39  1  0.29347900  0.24614400  0.95463300  1
  F  F40  1  0.68203300  0.51032100  0.39625800  1
  F  F41  1  0.68114600  0.01131600  0.48775900  1
  F  F42  1  0.68114600  0.98868400  0.98775900  1
  F  F43  1  0.72223100  0.77562600  0.47859600  1
  F  F44  1  0.72223100  0.22437400  0.97859600  1
  F  F45  1  0.24252900  0.51810900  0.36324900  1
