# generated using pymatgen
data_Ta2Hg3S(O2F5)2
_symmetry_space_group_name_H-M   'P 1'
_cell_length_a   9.49927400
_cell_length_b   16.00585200
_cell_length_c   18.70482800
_cell_angle_alpha   90.00000000
_cell_angle_beta   90.00000000
_cell_angle_gamma   90.00000000
_symmetry_Int_Tables_number   1
_chemical_formula_structural   Ta2Hg3S(O2F5)2
_chemical_formula_sum   'Ta16 Hg24 S8 O32 F80'
_cell_volume   2843.95637746
_cell_formula_units_Z   8
loop_
 _symmetry_equiv_pos_site_id
 _symmetry_equiv_pos_as_xyz
  1  'x, y, z'
loop_
 _atom_site_type_symbol
 _atom_site_label
 _atom_site_symmetry_multiplicity
 _atom_site_fract_x
 _atom_site_fract_y
 _atom_site_fract_z
 _atom_site_occupancy
  Ta  Ta0  1  0.74146900  0.81122950  0.94302050  1
  Ta  Ta1  1  0.24146900  0.18877050  0.55697950  1
  Ta  Ta2  1  0.99146900  0.93877050  0.69302050  1
  Ta  Ta3  1  0.49146900  0.06122950  0.80697950  1
  Ta  Ta4  1  0.24146900  0.81122950  0.44302050  1
  Ta  Ta5  1  0.74146900  0.18877050  0.05697950  1
  Ta  Ta6  1  0.49146900  0.93877050  0.19302050  1
  Ta  Ta7  1  0.99146900  0.06122950  0.30697950  1
  Ta  Ta8  1  0.24146900  0.31122950  0.94302050  1
  Ta  Ta9  1  0.74146900  0.68877050  0.55697950  1
  Ta  Ta10  1  0.49146900  0.43877050  0.69302050  1
  Ta  Ta11  1  0.99146900  0.56122950  0.80697950  1
  Ta  Ta12  1  0.74146900  0.31122950  0.44302050  1
  Ta  Ta13  1  0.24146900  0.68877050  0.05697950  1
  Ta  Ta14  1  0.99146900  0.43877050  0.19302050  1
  Ta  Ta15  1  0.49146900  0.56122950  0.30697950  1
  Hg  Hg16  1  0.00221900  0.25000000  0.75000000  1
  Hg  Hg17  1  0.75221900  0.00000000  0.50000000  1
  Hg  Hg18  1  0.46329350  0.63450850  0.84929100  1
  Hg  Hg19  1  0.46329350  0.86549150  0.65070900  1
  Hg  Hg20  1  0.21329350  0.61549150  0.59929100  1
  Hg  Hg21  1  0.21329350  0.88450850  0.90070900  1
  Hg  Hg22  1  0.50221900  0.25000000  0.25000000  1
  Hg  Hg23  1  0.25221900  0.00000000  0.00000000  1
  Hg  Hg24  1  0.96329350  0.63450850  0.34929100  1
  Hg  Hg25  1  0.96329350  0.86549150  0.15070900  1
  Hg  Hg26  1  0.71329350  0.61549150  0.09929100  1
  Hg  Hg27  1  0.71329350  0.88450850  0.40070900  1
  Hg  Hg28  1  0.50221900  0.75000000  0.75000000  1
  Hg  Hg29  1  0.25221900  0.50000000  0.50000000  1
  Hg  Hg30  1  0.96329350  0.13450850  0.84929100  1
  Hg  Hg31  1  0.96329350  0.36549150  0.65070900  1
  Hg  Hg32  1  0.71329350  0.11549150  0.59929100  1
  Hg  Hg33  1  0.71329350  0.38450850  0.90070900  1
  Hg  Hg34  1  0.00221900  0.75000000  0.25000000  1
  Hg  Hg35  1  0.75221900  0.50000000  0.00000000  1
  Hg  Hg36  1  0.46329350  0.13450850  0.34929100  1
  Hg  Hg37  1  0.46329350  0.36549150  0.15070900  1
  Hg  Hg38  1  0.21329350  0.11549150  0.09929100  1
  Hg  Hg39  1  0.21329350  0.38450850  0.40070900  1
  S  S40  1  0.35381300  0.00000000  0.50000000  1
  S  S41  1  0.10381300  0.75000000  0.75000000  1
  S  S42  1  0.85381300  0.00000000  0.00000000  1
  S  S43  1  0.60381300  0.75000000  0.25000000  1
  S  S44  1  0.85381300  0.50000000  0.50000000  1
  S  S45  1  0.60381300  0.25000000  0.75000000  1
  S  S46  1  0.35381300  0.50000000  0.00000000  1
  S  S47  1  0.10381300  0.25000000  0.25000000  1
  O  O48  1  0.75627400  0.93829450  0.96438750  1
  O  O49  1  0.25627400  0.06170550  0.53561250  1
  O  O50  1  0.00627400  0.81170550  0.71438750  1
  O  O51  1  0.50627400  0.18829450  0.78561250  1
  O  O52  1  0.44291950  0.54103450  0.94633000  1
  O  O53  1  0.44291950  0.95896550  0.55367000  1
  O  O54  1  0.19291950  0.70896550  0.69633000  1
  O  O55  1  0.19291950  0.79103450  0.80367000  1
  O  O56  1  0.25627400  0.93829450  0.46438750  1
  O  O57  1  0.75627400  0.06170550  0.03561250  1
  O  O58  1  0.50627400  0.81170550  0.21438750  1
  O  O59  1  0.00627400  0.18829450  0.28561250  1
  O  O60  1  0.94291950  0.54103450  0.44633000  1
  O  O61  1  0.94291950  0.95896550  0.05367000  1
  O  O62  1  0.69291950  0.70896550  0.19633000  1
  O  O63  1  0.69291950  0.79103450  0.30367000  1
  O  O64  1  0.25627400  0.43829450  0.96438750  1
  O  O65  1  0.75627400  0.56170550  0.53561250  1
  O  O66  1  0.50627400  0.31170550  0.71438750  1
  O  O67  1  0.00627400  0.68829450  0.78561250  1
  O  O68  1  0.94291950  0.04103450  0.94633000  1
  O  O69  1  0.94291950  0.45896550  0.55367000  1
  O  O70  1  0.69291950  0.20896550  0.69633000  1
  O  O71  1  0.69291950  0.29103450  0.80367000  1
  O  O72  1  0.75627400  0.43829450  0.46438750  1
  O  O73  1  0.25627400  0.56170550  0.03561250  1
  O  O74  1  0.00627400  0.31170550  0.21438750  1
  O  O75  1  0.50627400  0.68829450  0.28561250  1
  O  O76  1  0.44291950  0.04103450  0.44633000  1
  O  O77  1  0.44291950  0.45896550  0.05367000  1
  O  O78  1  0.19291950  0.20896550  0.19633000  1
  O  O79  1  0.19291950  0.29103450  0.30367000  1
  F  F80  1  0.22946400  0.19343100  0.93216700  1
  F  F81  1  0.22946400  0.30656900  0.56783300  1
  F  F82  1  0.97946400  0.05656900  0.68216700  1
  F  F83  1  0.47946400  0.94343100  0.81783300  1
  F  F84  1  0.54224800  0.82549900  0.94487000  1
  F  F85  1  0.04224800  0.17450100  0.55513000  1
  F  F86  1  0.79224800  0.92450100  0.69487000  1
  F  F87  1  0.29224800  0.07549900  0.80513000  1
  F  F88  1  0.44378300  0.31331750  0.93770150  1
  F  F89  1  0.94378300  0.68668250  0.56229850  1
  F  F90  1  0.19378300  0.93668250  0.68770150  1
  F  F91  1  0.69378300  0.06331750  0.81229850  1
  F  F92  1  0.23531250  0.32649950  0.84163900  1
  F  F93  1  0.23531250  0.17350050  0.65836100  1
  F  F94  1  0.98531250  0.92350050  0.59163900  1
  F  F95  1  0.48531250  0.07649950  0.90836100  1
  F  F96  1  0.25132150  0.79330150  0.54510100  1
  F  F97  1  0.25132150  0.70669850  0.95489900  1
  F  F98  1  0.00132150  0.95669850  0.79510100  1
  F  F99  1  0.50132150  0.04330150  0.70489900  1
  F  F100  1  0.72946400  0.19343100  0.43216700  1
  F  F101  1  0.72946400  0.30656900  0.06783300  1
  F  F102  1  0.47946400  0.05656900  0.18216700  1
  F  F103  1  0.97946400  0.94343100  0.31783300  1
  F  F104  1  0.04224800  0.82549900  0.44487000  1
  F  F105  1  0.54224800  0.17450100  0.05513000  1
  F  F106  1  0.29224800  0.92450100  0.19487000  1
  F  F107  1  0.79224800  0.07549900  0.30513000  1
  F  F108  1  0.94378300  0.31331750  0.43770150  1
  F  F109  1  0.44378300  0.68668250  0.06229850  1
  F  F110  1  0.69378300  0.93668250  0.18770150  1
  F  F111  1  0.19378300  0.06331750  0.31229850  1
  F  F112  1  0.73531250  0.32649950  0.34163900  1
  F  F113  1  0.73531250  0.17350050  0.15836100  1
  F  F114  1  0.48531250  0.92350050  0.09163900  1
  F  F115  1  0.98531250  0.07649950  0.40836100  1
  F  F116  1  0.75132150  0.79330150  0.04510100  1
  F  F117  1  0.75132150  0.70669850  0.45489900  1
  F  F118  1  0.50132150  0.95669850  0.29510100  1
  F  F119  1  0.00132150  0.04330150  0.20489900  1
  F  F120  1  0.72946400  0.69343100  0.93216700  1
  F  F121  1  0.72946400  0.80656900  0.56783300  1
  F  F122  1  0.47946400  0.55656900  0.68216700  1
  F  F123  1  0.97946400  0.44343100  0.81783300  1
  F  F124  1  0.04224800  0.32549900  0.94487000  1
  F  F125  1  0.54224800  0.67450100  0.55513000  1
  F  F126  1  0.29224800  0.42450100  0.69487000  1
  F  F127  1  0.79224800  0.57549900  0.80513000  1
  F  F128  1  0.94378300  0.81331750  0.93770150  1
  F  F129  1  0.44378300  0.18668250  0.56229850  1
  F  F130  1  0.69378300  0.43668250  0.68770150  1
  F  F131  1  0.19378300  0.56331750  0.81229850  1
  F  F132  1  0.73531250  0.82649950  0.84163900  1
  F  F133  1  0.73531250  0.67350050  0.65836100  1
  F  F134  1  0.48531250  0.42350050  0.59163900  1
  F  F135  1  0.98531250  0.57649950  0.90836100  1
  F  F136  1  0.75132150  0.29330150  0.54510100  1
  F  F137  1  0.75132150  0.20669850  0.95489900  1
  F  F138  1  0.50132150  0.45669850  0.79510100  1
  F  F139  1  0.00132150  0.54330150  0.70489900  1
  F  F140  1  0.22946400  0.69343100  0.43216700  1
  F  F141  1  0.22946400  0.80656900  0.06783300  1
  F  F142  1  0.97946400  0.55656900  0.18216700  1
  F  F143  1  0.47946400  0.44343100  0.31783300  1
  F  F144  1  0.54224800  0.32549900  0.44487000  1
  F  F145  1  0.04224800  0.67450100  0.05513000  1
  F  F146  1  0.79224800  0.42450100  0.19487000  1
  F  F147  1  0.29224800  0.57549900  0.30513000  1
  F  F148  1  0.44378300  0.81331750  0.43770150  1
  F  F149  1  0.94378300  0.18668250  0.06229850  1
  F  F150  1  0.19378300  0.43668250  0.18770150  1
  F  F151  1  0.69378300  0.56331750  0.31229850  1
  F  F152  1  0.23531250  0.82649950  0.34163900  1
  F  F153  1  0.23531250  0.67350050  0.15836100  1
  F  F154  1  0.98531250  0.42350050  0.09163900  1
  F  F155  1  0.48531250  0.57649950  0.40836100  1
  F  F156  1  0.25132150  0.29330150  0.04510100  1
  F  F157  1  0.25132150  0.20669850  0.45489900  1
  F  F158  1  0.00132150  0.45669850  0.29510100  1
  F  F159  1  0.50132150  0.54330150  0.20489900  1
