# generated using pymatgen
data_Ca2SiCl2O3
_symmetry_space_group_name_H-M   'P 1'
_cell_length_a   10.79713800
_cell_length_b   10.79713800
_cell_length_c   9.49108600
_cell_angle_alpha   90.00000000
_cell_angle_beta   90.00000000
_cell_angle_gamma   90.00000000
_symmetry_Int_Tables_number   1
_chemical_formula_structural   Ca2SiCl2O3
_chemical_formula_sum   'Ca16 Si8 Cl16 O24'
_cell_volume   1106.45361744
_cell_formula_units_Z   8
loop_
 _symmetry_equiv_pos_site_id
 _symmetry_equiv_pos_as_xyz
  1  'x, y, z'
loop_
 _atom_site_type_symbol
 _atom_site_label
 _atom_site_symmetry_multiplicity
 _atom_site_fract_x
 _atom_site_fract_y
 _atom_site_fract_z
 _atom_site_occupancy
  Ca  Ca0  1  0.25222000  0.91962600  0.26882600  1
  Ca  Ca1  1  0.24796350  0.58027150  0.23630550  1
  Ca  Ca2  1  0.25203650  0.91972850  0.73630550  1
  Ca  Ca3  1  0.08027150  0.25203650  0.73630550  1
  Ca  Ca4  1  0.24778000  0.58037400  0.76882600  1
  Ca  Ca5  1  0.41972850  0.24796350  0.23630550  1
  Ca  Ca6  1  0.08037400  0.25222000  0.26882600  1
  Ca  Ca7  1  0.41962600  0.24778000  0.76882600  1
  Ca  Ca8  1  0.75222000  0.41962600  0.76882600  1
  Ca  Ca9  1  0.74796350  0.08027150  0.73630550  1
  Ca  Ca10  1  0.75203650  0.41972850  0.23630550  1
  Ca  Ca11  1  0.58027150  0.75203650  0.23630550  1
  Ca  Ca12  1  0.74778000  0.08037400  0.26882600  1
  Ca  Ca13  1  0.91972850  0.74796350  0.73630550  1
  Ca  Ca14  1  0.58037400  0.75222000  0.76882600  1
  Ca  Ca15  1  0.91962600  0.74778000  0.26882600  1
  Si  Si16  1  0.10391450  0.81246150  0.00269950  1
  Si  Si17  1  0.18753850  0.10391450  0.00269950  1
  Si  Si18  1  0.39608550  0.68753850  0.50269950  1
  Si  Si19  1  0.31246150  0.39608550  0.50269950  1
  Si  Si20  1  0.60391450  0.31246150  0.50269950  1
  Si  Si21  1  0.68753850  0.60391450  0.50269950  1
  Si  Si22  1  0.89608550  0.18753850  0.00269950  1
  Si  Si23  1  0.81246150  0.89608550  0.00269950  1
  Cl  Cl24  1  0.00000000  0.50000000  0.24697500  1
  Cl  Cl25  1  0.50000000  0.00000000  0.24697500  1
  Cl  Cl26  1  0.57551800  0.24232200  0.00187200  1
  Cl  Cl27  1  0.00000000  0.00000000  0.71421100  1
  Cl  Cl28  1  0.00000000  0.00000000  0.29028800  1
  Cl  Cl29  1  0.92448200  0.25767800  0.50187200  1
  Cl  Cl30  1  0.25767800  0.07551800  0.50187200  1
  Cl  Cl31  1  0.24232200  0.42448200  0.00187200  1
  Cl  Cl32  1  0.50000000  0.00000000  0.74697500  1
  Cl  Cl33  1  0.00000000  0.50000000  0.74697500  1
  Cl  Cl34  1  0.07551800  0.74232200  0.50187200  1
  Cl  Cl35  1  0.50000000  0.50000000  0.21421100  1
  Cl  Cl36  1  0.50000000  0.50000000  0.79028800  1
  Cl  Cl37  1  0.42448200  0.75767800  0.00187200  1
  Cl  Cl38  1  0.75767800  0.57551800  0.00187200  1
  Cl  Cl39  1  0.74232200  0.92448200  0.50187200  1
  O  O40  1  0.24926550  0.13854050  0.15300050  1
  O  O41  1  0.82664150  0.04963050  0.00252550  1
  O  O42  1  0.45036950  0.32664150  0.50252550  1
  O  O43  1  0.67335850  0.45036950  0.50252550  1
  O  O44  1  0.63789550  0.25032950  0.35235950  1
  O  O45  1  0.04963050  0.17335850  0.00252550  1
  O  O46  1  0.86145950  0.24926550  0.15300050  1
  O  O47  1  0.25032950  0.36210450  0.35235950  1
  O  O48  1  0.75073450  0.86145950  0.15300050  1
  O  O49  1  0.36210450  0.74967050  0.35235950  1
  O  O50  1  0.74967050  0.63789550  0.35235950  1
  O  O51  1  0.13854050  0.75073450  0.15300050  1
  O  O52  1  0.74926550  0.63854050  0.65300050  1
  O  O53  1  0.32664150  0.54963050  0.50252550  1
  O  O54  1  0.95036950  0.82664150  0.00252550  1
  O  O55  1  0.17335850  0.95036950  0.00252550  1
  O  O56  1  0.13789550  0.75032950  0.85235950  1
  O  O57  1  0.54963050  0.67335850  0.50252550  1
  O  O58  1  0.36145950  0.74926550  0.65300050  1
  O  O59  1  0.75032950  0.86210450  0.85235950  1
  O  O60  1  0.25073450  0.36145950  0.65300050  1
  O  O61  1  0.86210450  0.24967050  0.85235950  1
  O  O62  1  0.24967050  0.13789550  0.85235950  1
  O  O63  1  0.63854050  0.25073450  0.65300050  1
