# generated using pymatgen
data_KPrPdO3
_symmetry_space_group_name_H-M   'P 1'
_cell_length_a   13.44353400
_cell_length_b   3.98975400
_cell_length_c   7.59068081
_cell_angle_alpha   90.00000000
_cell_angle_beta   105.11194974
_cell_angle_gamma   90.00000000
_symmetry_Int_Tables_number   1
_chemical_formula_structural   KPrPdO3
_chemical_formula_sum   'K4 Pr4 Pd4 O12'
_cell_volume   393.05725376
_cell_formula_units_Z   4
loop_
 _symmetry_equiv_pos_site_id
 _symmetry_equiv_pos_as_xyz
  1  'x, y, z'
loop_
 _atom_site_type_symbol
 _atom_site_label
 _atom_site_symmetry_multiplicity
 _atom_site_fract_x
 _atom_site_fract_y
 _atom_site_fract_z
 _atom_site_occupancy
  K  K0  1  0.85668100  0.50000000  0.43457100  1
  K  K1  1  0.64331900  0.00000000  0.56542900  1
  K  K2  1  0.35668100  0.00000000  0.43457100  1
  K  K3  1  0.14331900  0.50000000  0.56542900  1
  Pr  Pr4  1  0.64955800  0.00000000  0.07957700  1
  Pr  Pr5  1  0.85044200  0.50000000  0.92042300  1
  Pr  Pr6  1  0.14955800  0.50000000  0.07957700  1
  Pr  Pr7  1  0.35044200  0.00000000  0.92042300  1
  Pd  Pd8  1  0.50653600  0.50000000  0.77245200  1
  Pd  Pd9  1  0.99346400  0.00000000  0.22754800  1
  Pd  Pd10  1  0.00653600  0.00000000  0.77245200  1
  Pd  Pd11  1  0.49346400  0.50000000  0.22754800  1
  O  O12  1  0.83183500  0.00000000  0.13398100  1
  O  O13  1  0.84791200  0.00000000  0.71936400  1
  O  O14  1  0.99325800  0.50000000  0.19034300  1
  O  O15  1  0.65208800  0.50000000  0.28063600  1
  O  O16  1  0.66816500  0.50000000  0.86601900  1
  O  O17  1  0.50674200  0.00000000  0.80965700  1
  O  O18  1  0.33183500  0.50000000  0.13398100  1
  O  O19  1  0.34791200  0.50000000  0.71936400  1
  O  O20  1  0.49325800  0.00000000  0.19034300  1
  O  O21  1  0.15208800  0.00000000  0.28063600  1
  O  O22  1  0.16816500  0.00000000  0.86601900  1
  O  O23  1  0.00674200  0.50000000  0.80965700  1
