# generated using pymatgen
data_In2Si(AgS3)2
_symmetry_space_group_name_H-M   'P 1'
_cell_length_a   12.33978200
_cell_length_b   7.30234800
_cell_length_c   12.32027237
_cell_angle_alpha   90.00000000
_cell_angle_beta   109.40893122
_cell_angle_gamma   90.00000000
_symmetry_Int_Tables_number   1
_chemical_formula_structural   In2Si(AgS3)2
_chemical_formula_sum   'In8 Si4 Ag8 S24'
_cell_volume   1047.08201693
_cell_formula_units_Z   4
loop_
 _symmetry_equiv_pos_site_id
 _symmetry_equiv_pos_as_xyz
  1  'x, y, z'
loop_
 _atom_site_type_symbol
 _atom_site_label
 _atom_site_symmetry_multiplicity
 _atom_site_fract_x
 _atom_site_fract_y
 _atom_site_fract_z
 _atom_site_occupancy
  In  In0  1  0.26111400  0.43518200  0.23291200  1
  In  In1  1  0.08012500  0.40556800  0.43059600  1
  In  In2  1  0.08012500  0.59443200  0.93059600  1
  In  In3  1  0.26111400  0.56481800  0.73291200  1
  In  In4  1  0.76111400  0.93518200  0.23291200  1
  In  In5  1  0.58012500  0.90556800  0.43059600  1
  In  In6  1  0.58012500  0.09443200  0.93059600  1
  In  In7  1  0.76111400  0.06481800  0.73291200  1
  Si  Si8  1  0.82787000  0.23110600  0.48973800  1
  Si  Si9  1  0.82787000  0.76889400  0.98973800  1
  Si  Si10  1  0.32787000  0.73110600  0.48973800  1
  Si  Si11  1  0.32787000  0.26889400  0.98973800  1
  Ag  Ag12  1  0.89954900  0.28877100  0.07870300  1
  Ag  Ag13  1  0.60385600  0.40956600  0.23682100  1
  Ag  Ag14  1  0.89954900  0.71122900  0.57870300  1
  Ag  Ag15  1  0.60385600  0.59043400  0.73682100  1
  Ag  Ag16  1  0.39954900  0.78877100  0.07870300  1
  Ag  Ag17  1  0.10385600  0.90956600  0.23682100  1
  Ag  Ag18  1  0.39954900  0.21122900  0.57870300  1
  Ag  Ag19  1  0.10385600  0.09043400  0.73682100  1
  S  S20  1  0.09047500  0.26053200  0.24910200  1
  S  S21  1  0.87561450  0.47224050  0.41573300  1
  S  S22  1  0.20773650  0.72604850  0.11820700  1
  S  S23  1  0.39845250  0.49786650  0.43389200  1
  S  S24  1  0.87561450  0.52775950  0.91573300  1
  S  S25  1  0.09047500  0.73946800  0.74910200  1
  S  S26  1  0.14520150  0.73937150  0.44008200  1
  S  S27  1  0.20773650  0.27395150  0.61820700  1
  S  S28  1  0.90010650  0.74519850  0.17251400  1
  S  S29  1  0.90010650  0.25480150  0.67251400  1
  S  S30  1  0.39845250  0.50213350  0.93389200  1
  S  S31  1  0.14520150  0.26062850  0.94008200  1
  S  S32  1  0.59047500  0.76053200  0.24910200  1
  S  S33  1  0.37561450  0.97224050  0.41573300  1
  S  S34  1  0.70773650  0.22604850  0.11820700  1
  S  S35  1  0.89845250  0.99786650  0.43389200  1
  S  S36  1  0.37561450  0.02775950  0.91573300  1
  S  S37  1  0.59047500  0.23946800  0.74910200  1
  S  S38  1  0.64520150  0.23937150  0.44008200  1
  S  S39  1  0.70773650  0.77395150  0.61820700  1
  S  S40  1  0.40010650  0.24519850  0.17251400  1
  S  S41  1  0.40010650  0.75480150  0.67251400  1
  S  S42  1  0.89845250  0.00213350  0.93389200  1
  S  S43  1  0.64520150  0.76062850  0.94008200  1
