# generated using pymatgen
data_ZnS
_symmetry_space_group_name_H-M   'P 1'
_cell_length_a   3.85414846
_cell_length_b   3.85414846
_cell_length_c   75.55637668
_cell_angle_alpha   90.00000000
_cell_angle_beta   90.00000000
_cell_angle_gamma   120.00000000
_symmetry_Int_Tables_number   1
_chemical_formula_structural   ZnS
_chemical_formula_sum   'Zn24 S24'
_cell_volume   971.98292052
_cell_formula_units_Z   24
loop_
 _symmetry_equiv_pos_site_id
 _symmetry_equiv_pos_as_xyz
  1  'x, y, z'
loop_
 _atom_site_type_symbol
 _atom_site_label
 _atom_site_symmetry_multiplicity
 _atom_site_fract_x
 _atom_site_fract_y
 _atom_site_fract_z
 _atom_site_occupancy
  Zn  Zn0  1  0.33333333  0.66666667  0.12498767  1
  Zn  Zn1  1  0.66666667  0.33333333  0.33331433  1
  Zn  Zn2  1  0.33333333  0.66666667  0.20831967  1
  Zn  Zn3  1  0.00000000  0.00000000  0.16665000  1
  Zn  Zn4  1  0.33333333  0.66666667  0.04164667  1
  Zn  Zn5  1  0.00000000  0.00000000  0.08331800  1
  Zn  Zn6  1  0.00000000  0.00000000  0.24999700  1
  Zn  Zn7  1  0.33333333  0.66666667  0.29165567  1
  Zn  Zn8  1  0.00000000  0.00000000  0.45832100  1
  Zn  Zn9  1  0.33333333  0.66666667  0.66664767  1
  Zn  Zn10  1  0.00000000  0.00000000  0.54165300  1
  Zn  Zn11  1  0.66666667  0.33333333  0.49998333  1
  Zn  Zn12  1  0.00000000  0.00000000  0.37498000  1
  Zn  Zn13  1  0.66666667  0.33333333  0.41665133  1
  Zn  Zn14  1  0.66666667  0.33333333  0.58333033  1
  Zn  Zn15  1  0.00000000  0.00000000  0.62498900  1
  Zn  Zn16  1  0.66666667  0.33333333  0.79165433  1
  Zn  Zn17  1  0.00000000  0.00000000  0.99998100  1
  Zn  Zn18  1  0.66666667  0.33333333  0.87498633  1
  Zn  Zn19  1  0.33333333  0.66666667  0.83331667  1
  Zn  Zn20  1  0.66666667  0.33333333  0.70831333  1
  Zn  Zn21  1  0.33333333  0.66666667  0.74998467  1
  Zn  Zn22  1  0.33333333  0.66666667  0.91666367  1
  Zn  Zn23  1  0.66666667  0.33333333  0.95832233  1
  S  S24  1  0.33333333  0.66666667  0.01040567  1
  S  S25  1  0.33333333  0.66666667  0.09376667  1
  S  S26  1  0.33333333  0.66666667  0.17709767  1
  S  S27  1  0.00000000  0.00000000  0.13542900  1
  S  S28  1  0.00000000  0.00000000  0.21876500  1
  S  S29  1  0.33333333  0.66666667  0.26044967  1
  S  S30  1  0.66666667  0.33333333  0.30209533  1
  S  S31  1  0.00000000  0.00000000  0.05209600  1
  S  S32  1  0.00000000  0.00000000  0.34373900  1
  S  S33  1  0.00000000  0.00000000  0.42710000  1
  S  S34  1  0.00000000  0.00000000  0.51043100  1
  S  S35  1  0.66666667  0.33333333  0.46876233  1
  S  S36  1  0.66666667  0.33333333  0.55209833  1
  S  S37  1  0.00000000  0.00000000  0.59378300  1
  S  S38  1  0.33333333  0.66666667  0.63542867  1
  S  S39  1  0.66666667  0.33333333  0.38542933  1
  S  S40  1  0.66666667  0.33333333  0.67707233  1
  S  S41  1  0.66666667  0.33333333  0.76043333  1
  S  S42  1  0.66666667  0.33333333  0.84376433  1
  S  S43  1  0.33333333  0.66666667  0.80209567  1
  S  S44  1  0.33333333  0.66666667  0.88543167  1
  S  S45  1  0.66666667  0.33333333  0.92711633  1
  S  S46  1  0.00000000  0.00000000  0.96876200  1
  S  S47  1  0.33333333  0.66666667  0.71876267  1
