# generated using pymatgen
data_CsPH3O3F
_symmetry_space_group_name_H-M   'P 1'
_cell_length_a   5.75090700
_cell_length_b   4.96940800
_cell_length_c   18.65610034
_cell_angle_alpha   90.00000000
_cell_angle_beta   92.93598850
_cell_angle_gamma   90.00000000
_symmetry_Int_Tables_number   1
_chemical_formula_structural   CsPH3O3F
_chemical_formula_sum   'Cs4 P4 H12 O12 F4'
_cell_volume   532.46544731
_cell_formula_units_Z   4
loop_
 _symmetry_equiv_pos_site_id
 _symmetry_equiv_pos_as_xyz
  1  'x, y, z'
loop_
 _atom_site_type_symbol
 _atom_site_label
 _atom_site_symmetry_multiplicity
 _atom_site_fract_x
 _atom_site_fract_y
 _atom_site_fract_z
 _atom_site_occupancy
  Cs  Cs0  1  0.27836500  0.83955900  0.58475800  1
  Cs  Cs1  1  0.72163500  0.16044100  0.41524200  1
  Cs  Cs2  1  0.72163500  0.33955900  0.91524200  1
  Cs  Cs3  1  0.27836500  0.66044100  0.08475800  1
  P  P4  1  0.80044200  0.28803800  0.67530500  1
  P  P5  1  0.19955800  0.71196200  0.32469500  1
  P  P6  1  0.80044200  0.21196200  0.17530500  1
  P  P7  1  0.19955800  0.78803800  0.82469500  1
  H  H8  1  0.17671300  0.42567900  0.75580900  1
  H  H9  1  0.25625300  0.02736200  0.94140600  1
  H  H10  1  0.17671300  0.07432100  0.25580900  1
  H  H11  1  0.74374700  0.52736200  0.55859400  1
  H  H12  1  0.68210700  0.44510000  0.72493100  1
  H  H13  1  0.82328700  0.57432100  0.24419100  1
  H  H14  1  0.68210700  0.05490000  0.22493100  1
  H  H15  1  0.31789300  0.55490000  0.27506900  1
  H  H16  1  0.74374700  0.97263800  0.05859400  1
  H  H17  1  0.25625300  0.47263800  0.44140600  1
  H  H18  1  0.31789300  0.94510000  0.77506900  1
  H  H19  1  0.82328700  0.92567900  0.74419100  1
  O  O20  1  0.94030800  0.84866500  0.81649300  1
  O  O21  1  0.31565800  0.66776300  0.39942300  1
  O  O22  1  0.94030800  0.65133500  0.31649300  1
  O  O23  1  0.74177000  0.98595400  0.69588000  1
  O  O24  1  0.05969200  0.15133500  0.18350700  1
  O  O25  1  0.68434200  0.16776300  0.10057700  1
  O  O26  1  0.05969200  0.34866500  0.68350700  1
  O  O27  1  0.25823000  0.48595400  0.80412000  1
  O  O28  1  0.25823000  0.01404600  0.30412000  1
  O  O29  1  0.74177000  0.51404600  0.19588000  1
  O  O30  1  0.31565800  0.83223700  0.89942300  1
  O  O31  1  0.68434200  0.33223700  0.60057700  1
  F  F32  1  0.77879200  0.81514800  0.02128200  1
  F  F33  1  0.22120800  0.31514800  0.47871800  1
  F  F34  1  0.22120800  0.18485200  0.97871800  1
  F  F35  1  0.77879200  0.68485200  0.52128200  1
