# generated using pymatgen
data_LaSc3(BO3)4
_symmetry_space_group_name_H-M   'P 1'
_cell_length_a   9.62366355
_cell_length_b   9.62366355
_cell_length_c   8.51832864
_cell_angle_alpha   90.00000000
_cell_angle_beta   90.00000000
_cell_angle_gamma   120.00000000
_symmetry_Int_Tables_number   1
_chemical_formula_structural   LaSc3(BO3)4
_chemical_formula_sum   'La3 Sc9 B12 O36'
_cell_volume   683.22836057
_cell_formula_units_Z   3
loop_
 _symmetry_equiv_pos_site_id
 _symmetry_equiv_pos_as_xyz
  1  'x, y, z'
loop_
 _atom_site_type_symbol
 _atom_site_label
 _atom_site_symmetry_multiplicity
 _atom_site_fract_x
 _atom_site_fract_y
 _atom_site_fract_z
 _atom_site_occupancy
  La  La0  1  0.00000000  0.00000000  0.00000000  1
  La  La1  1  0.66666667  0.33333333  0.33333333  1
  La  La2  1  0.33333333  0.66666667  0.66666667  1
  Sc  Sc3  1  0.16041167  0.82707833  0.33333333  1
  Sc  Sc4  1  0.66666667  0.83958833  0.33333333  1
  Sc  Sc5  1  0.17292167  0.33333333  0.33333333  1
  Sc  Sc6  1  0.82707833  0.16041167  0.66666667  1
  Sc  Sc7  1  0.33333333  0.17292167  0.66666667  1
  Sc  Sc8  1  0.83958833  0.66666667  0.66666667  1
  Sc  Sc9  1  0.49374500  0.49374500  0.00000000  1
  Sc  Sc10  1  0.00000000  0.50625500  0.00000000  1
  Sc  Sc11  1  0.50625500  1.00000000  0.00000000  1
  B  B12  1  0.48845600  0.00000000  0.50000000  1
  B  B13  1  0.51154400  0.51154400  0.50000000  1
  B  B14  1  0.00000000  0.00000000  0.50000000  1
  B  B15  1  0.00000000  0.48845600  0.50000000  1
  B  B16  1  0.15512267  0.33333333  0.83333333  1
  B  B17  1  0.17821067  0.84487733  0.83333333  1
  B  B18  1  0.66666667  0.33333333  0.83333333  1
  B  B19  1  0.66666667  0.82178933  0.83333333  1
  B  B20  1  0.82178933  0.66666667  0.16666667  1
  B  B21  1  0.84487733  0.17821067  0.16666667  1
  B  B22  1  0.33333333  0.66666667  0.16666667  1
  B  B23  1  0.33333333  0.15512267  0.16666667  1
  O  O24  1  0.19224900  0.01126600  0.18418900  1
  O  O25  1  0.18098300  0.98873400  0.81581100  1
  O  O26  1  0.85526700  0.85526700  0.50000000  1
  O  O27  1  0.81901700  0.80775100  0.18418900  1
  O  O28  1  0.01126600  0.19224900  0.81581100  1
  O  O29  1  0.00000000  0.63277400  0.50000000  1
  O  O30  1  0.36722600  0.36722600  0.50000000  1
  O  O31  1  0.00000000  0.14473300  0.50000000  1
  O  O32  1  0.80775100  0.81901700  0.81581100  1
  O  O33  1  0.98873400  0.18098300  0.18418900  1
  O  O34  1  0.63277400  0.00000000  0.50000000  1
  O  O35  1  0.14473300  0.00000000  0.50000000  1
  O  O36  1  0.85891567  0.34459933  0.51752233  1
  O  O37  1  0.84764967  0.32206733  0.14914433  1
  O  O38  1  0.52193367  0.18860033  0.83333333  1
  O  O39  1  0.48568367  0.14108433  0.51752233  1
  O  O40  1  0.67793267  0.52558233  0.14914433  1
  O  O41  1  0.66666667  0.96610733  0.83333333  1
  O  O42  1  0.03389267  0.70055933  0.83333333  1
  O  O43  1  0.66666667  0.47806633  0.83333333  1
  O  O44  1  0.47441767  0.15235033  0.14914433  1
  O  O45  1  0.65540067  0.51431633  0.51752233  1
  O  O46  1  0.29944067  0.33333333  0.83333333  1
  O  O47  1  0.81139967  0.33333333  0.83333333  1
  O  O48  1  0.52558233  0.67793267  0.85085567  1
  O  O49  1  0.51431633  0.65540067  0.48247767  1
  O  O50  1  0.18860033  0.52193367  0.16666667  1
  O  O51  1  0.15235033  0.47441767  0.85085567  1
  O  O52  1  0.34459933  0.85891567  0.48247767  1
  O  O53  1  0.33333333  0.29944067  0.16666667  1
  O  O54  1  0.70055933  0.03389267  0.16666667  1
  O  O55  1  0.33333333  0.81139967  0.16666667  1
  O  O56  1  0.14108433  0.48568367  0.48247767  1
  O  O57  1  0.32206733  0.84764967  0.85085567  1
  O  O58  1  0.96610733  0.66666667  0.16666667  1
  O  O59  1  0.47806633  0.66666667  0.16666667  1
