# generated using pymatgen
data_Li2MnF5
_symmetry_space_group_name_H-M   'P 1'
_cell_length_a   10.21656200
_cell_length_b   5.05485000
_cell_length_c   7.51524103
_cell_angle_alpha   90.00000000
_cell_angle_beta   112.16178475
_cell_angle_gamma   90.00000000
_symmetry_Int_Tables_number   1
_chemical_formula_structural   Li2MnF5
_chemical_formula_sum   'Li8 Mn4 F20'
_cell_volume   359.43829567
_cell_formula_units_Z   4
loop_
 _symmetry_equiv_pos_site_id
 _symmetry_equiv_pos_as_xyz
  1  'x, y, z'
loop_
 _atom_site_type_symbol
 _atom_site_label
 _atom_site_symmetry_multiplicity
 _atom_site_fract_x
 _atom_site_fract_y
 _atom_site_fract_z
 _atom_site_occupancy
  Li  Li0  1  0.36408100  0.00704300  0.75450900  1
  Li  Li1  1  0.36408100  0.99295700  0.25450900  1
  Li  Li2  1  0.13591900  0.49295700  0.24549100  1
  Li  Li3  1  0.13591900  0.50704300  0.74549100  1
  Li  Li4  1  0.86408100  0.50704300  0.75450900  1
  Li  Li5  1  0.86408100  0.49295700  0.25450900  1
  Li  Li6  1  0.63591900  0.99295700  0.24549100  1
  Li  Li7  1  0.63591900  0.00704300  0.74549100  1
  Mn  Mn8  1  0.00000000  0.00000000  0.50000000  1
  Mn  Mn9  1  0.00000000  0.00000000  0.00000000  1
  Mn  Mn10  1  0.50000000  0.50000000  0.50000000  1
  Mn  Mn11  1  0.50000000  0.50000000  0.00000000  1
  F  F12  1  0.00000000  0.78449900  0.25000000  1
  F  F13  1  0.00000000  0.21550100  0.75000000  1
  F  F14  1  0.41369400  0.80961500  0.04473300  1
  F  F15  1  0.08630600  0.30961500  0.45526700  1
  F  F16  1  0.08630600  0.69038500  0.95526700  1
  F  F17  1  0.41369400  0.19038500  0.54473300  1
  F  F18  1  0.32225250  0.34924950  0.85235400  1
  F  F19  1  0.17774750  0.84924950  0.64764600  1
  F  F20  1  0.17774750  0.15075050  0.14764600  1
  F  F21  1  0.32225250  0.65075050  0.35235400  1
  F  F22  1  0.50000000  0.28449900  0.25000000  1
  F  F23  1  0.50000000  0.71550100  0.75000000  1
  F  F24  1  0.91369400  0.30961500  0.04473300  1
  F  F25  1  0.58630600  0.80961500  0.45526700  1
  F  F26  1  0.58630600  0.19038500  0.95526700  1
  F  F27  1  0.91369400  0.69038500  0.54473300  1
  F  F28  1  0.82225250  0.84924950  0.85235400  1
  F  F29  1  0.67774750  0.34924950  0.64764600  1
  F  F30  1  0.67774750  0.65075050  0.14764600  1
  F  F31  1  0.82225250  0.15075050  0.35235400  1
