# generated using pymatgen
data_NiPO4
_symmetry_space_group_name_H-M   'P 1'
_cell_length_a   5.05174200
_cell_length_b   10.02987400
_cell_length_c   8.70787516
_cell_angle_alpha   90.00000000
_cell_angle_beta   124.75513610
_cell_angle_gamma   90.00000000
_symmetry_Int_Tables_number   1
_chemical_formula_structural   NiPO4
_chemical_formula_sum   'Ni4 P4 O16'
_cell_volume   362.49921048
_cell_formula_units_Z   4
loop_
 _symmetry_equiv_pos_site_id
 _symmetry_equiv_pos_as_xyz
  1  'x, y, z'
loop_
 _atom_site_type_symbol
 _atom_site_label
 _atom_site_symmetry_multiplicity
 _atom_site_fract_x
 _atom_site_fract_y
 _atom_site_fract_z
 _atom_site_occupancy
  Ni  Ni0  1  0.16869600  0.82726000  0.97308000  1
  Ni  Ni1  1  0.83130400  0.32726000  0.52692000  1
  Ni  Ni2  1  0.16869600  0.67274000  0.47308000  1
  Ni  Ni3  1  0.83130400  0.17274000  0.02692000  1
  P  P4  1  0.89684000  0.59432500  0.71030100  1
  P  P5  1  0.10316000  0.09432500  0.78969900  1
  P  P6  1  0.89684000  0.90567500  0.21030100  1
  P  P7  1  0.10316000  0.40567500  0.28969900  1
  O  O8  1  0.42679600  0.36932200  0.31795300  1
  O  O9  1  0.11461100  0.15055300  0.95931300  1
  O  O10  1  0.82595000  0.15524800  0.60149900  1
  O  O11  1  0.05185000  0.94106800  0.77548400  1
  O  O12  1  0.94815000  0.44106800  0.72451600  1
  O  O13  1  0.17405000  0.65524800  0.89850100  1
  O  O14  1  0.88538900  0.65055300  0.54068700  1
  O  O15  1  0.57320400  0.86932200  0.18204700  1
  O  O16  1  0.42679600  0.13067800  0.81795300  1
  O  O17  1  0.11461100  0.34944700  0.45931300  1
  O  O18  1  0.82595000  0.34475200  0.10149900  1
  O  O19  1  0.05185000  0.55893200  0.27548400  1
  O  O20  1  0.94815000  0.05893200  0.22451600  1
  O  O21  1  0.17405000  0.84475200  0.39850100  1
  O  O22  1  0.88538900  0.84944700  0.04068700  1
  O  O23  1  0.57320400  0.63067800  0.68204700  1
