# generated using pymatgen
data_KZr2(AsO4)3
_symmetry_space_group_name_H-M   'P 1'
_cell_length_a   9.25372410
_cell_length_b   9.25372410
_cell_length_c   24.93220991
_cell_angle_alpha   90.00000000
_cell_angle_beta   90.00000000
_cell_angle_gamma   120.00000000
_symmetry_Int_Tables_number   1
_chemical_formula_structural   KZr2(AsO4)3
_chemical_formula_sum   'K6 Zr12 As18 O72'
_cell_volume   1848.94715871
_cell_formula_units_Z   6
loop_
 _symmetry_equiv_pos_site_id
 _symmetry_equiv_pos_as_xyz
  1  'x, y, z'
loop_
 _atom_site_type_symbol
 _atom_site_label
 _atom_site_symmetry_multiplicity
 _atom_site_fract_x
 _atom_site_fract_y
 _atom_site_fract_z
 _atom_site_occupancy
  K  K0  1  0.33333333  0.66666667  0.16666667  1
  K  K1  1  0.00000000  0.00000000  0.00000000  1
  K  K2  1  1.00000000  0.00000000  0.50000000  1
  K  K3  1  0.66666667  0.33333333  0.33333333  1
  K  K4  1  0.66666667  0.33333333  0.83333333  1
  K  K5  1  0.33333333  0.66666667  0.66666667  1
  Zr  Zr6  1  0.33333333  0.66666667  0.01900767  1
  Zr  Zr7  1  0.00000000  0.00000000  0.14765900  1
  Zr  Zr8  1  0.33333333  0.66666667  0.31432567  1
  Zr  Zr9  1  0.66666667  0.33333333  0.18567433  1
  Zr  Zr10  1  0.00000000  0.00000000  0.35234100  1
  Zr  Zr11  1  0.66666667  0.33333333  0.48099233  1
  Zr  Zr12  1  0.00000000  0.00000000  0.64765900  1
  Zr  Zr13  1  0.33333333  0.66666667  0.51900767  1
  Zr  Zr14  1  0.66666667  0.33333333  0.68567433  1
  Zr  Zr15  1  0.33333333  0.66666667  0.81432567  1
  Zr  Zr16  1  0.66666667  0.33333333  0.98099233  1
  Zr  Zr17  1  0.00000000  0.00000000  0.85234100  1
  As  As18  1  0.00000000  0.71558100  0.25000000  1
  As  As19  1  0.28441900  0.28441900  0.25000000  1
  As  As20  1  0.71558100  0.00000000  0.25000000  1
  As  As21  1  0.66666667  0.61775233  0.08333333  1
  As  As22  1  0.38224767  0.04891433  0.08333333  1
  As  As23  1  0.95108567  0.33333333  0.08333333  1
  As  As24  1  0.66666667  0.04891433  0.58333333  1
  As  As25  1  0.95108567  0.61775233  0.58333333  1
  As  As26  1  0.38224767  0.33333333  0.58333333  1
  As  As27  1  0.33333333  0.95108567  0.41666667  1
  As  As28  1  0.04891433  0.38224767  0.41666667  1
  As  As29  1  0.61775233  0.66666667  0.41666667  1
  As  As30  1  0.33333333  0.38224767  0.91666667  1
  As  As31  1  0.61775233  0.95108567  0.91666667  1
  As  As32  1  0.04891433  0.66666667  0.91666667  1
  As  As33  1  0.00000000  0.28441900  0.75000000  1
  As  As34  1  0.71558100  0.71558100  0.75000000  1
  As  As35  1  0.28441900  0.00000000  0.75000000  1
  O  O36  1  0.95564567  0.79489733  0.30543133  1
  O  O37  1  0.20510267  0.16074833  0.30543133  1
  O  O38  1  0.83925167  0.04435433  0.30543133  1
  O  O39  1  0.04435433  0.83925167  0.19456867  1
  O  O40  1  0.16074833  0.20510267  0.19456867  1
  O  O41  1  0.79489733  0.95564567  0.19456867  1
  O  O42  1  0.71102100  0.53843600  0.02790200  1
  O  O43  1  0.46156400  0.17258500  0.02790200  1
  O  O44  1  0.82741500  0.28897900  0.02790200  1
  O  O45  1  0.62231233  0.49408167  0.13876467  1
  O  O46  1  0.50591833  0.12823067  0.13876467  1
  O  O47  1  0.87176933  0.37768767  0.13876467  1
  O  O48  1  0.49598600  0.63904500  0.07241200  1
  O  O49  1  0.36095500  0.85694100  0.07241200  1
  O  O50  1  0.14305900  0.50401400  0.07241200  1
  O  O51  1  0.83734733  0.80972567  0.09425467  1
  O  O52  1  0.19027433  0.02762167  0.09425467  1
  O  O53  1  0.97237833  0.16265267  0.09425467  1
  O  O54  1  0.17068067  0.69428833  0.26092133  1
  O  O55  1  0.30571167  0.47639233  0.26092133  1
  O  O56  1  0.52360767  0.82931933  0.26092133  1
  O  O57  1  0.82931933  0.52360767  0.23907867  1
  O  O58  1  0.47639233  0.30571167  0.23907867  1
  O  O59  1  0.69428833  0.17068067  0.23907867  1
  O  O60  1  0.62231233  0.12823067  0.63876467  1
  O  O61  1  0.87176933  0.49408167  0.63876467  1
  O  O62  1  0.50591833  0.37768767  0.63876467  1
  O  O63  1  0.71102100  0.17258500  0.52790200  1
  O  O64  1  0.82741500  0.53843600  0.52790200  1
  O  O65  1  0.46156400  0.28897900  0.52790200  1
  O  O66  1  0.37768767  0.87176933  0.36123533  1
  O  O67  1  0.12823067  0.50591833  0.36123533  1
  O  O68  1  0.49408167  0.62231233  0.36123533  1
  O  O69  1  0.28897900  0.82741500  0.47209800  1
  O  O70  1  0.17258500  0.46156400  0.47209800  1
  O  O71  1  0.53843600  0.71102100  0.47209800  1
  O  O72  1  0.16265267  0.97237833  0.40574533  1
  O  O73  1  0.02762167  0.19027433  0.40574533  1
  O  O74  1  0.80972567  0.83734733  0.40574533  1
  O  O75  1  0.50401400  0.14305900  0.42758800  1
  O  O76  1  0.85694100  0.36095500  0.42758800  1
  O  O77  1  0.63904500  0.49598600  0.42758800  1
  O  O78  1  0.83734733  0.02762167  0.59425467  1
  O  O79  1  0.97237833  0.80972567  0.59425467  1
  O  O80  1  0.19027433  0.16265267  0.59425467  1
  O  O81  1  0.49598600  0.85694100  0.57241200  1
  O  O82  1  0.14305900  0.63904500  0.57241200  1
  O  O83  1  0.36095500  0.50401400  0.57241200  1
  O  O84  1  0.28897900  0.46156400  0.97209800  1
  O  O85  1  0.53843600  0.82741500  0.97209800  1
  O  O86  1  0.17258500  0.71102100  0.97209800  1
  O  O87  1  0.37768767  0.50591833  0.86123533  1
  O  O88  1  0.49408167  0.87176933  0.86123533  1
  O  O89  1  0.12823067  0.62231233  0.86123533  1
  O  O90  1  0.04435433  0.20510267  0.69456867  1
  O  O91  1  0.79489733  0.83925167  0.69456867  1
  O  O92  1  0.16074833  0.95564567  0.69456867  1
  O  O93  1  0.95564567  0.16074833  0.80543133  1
  O  O94  1  0.83925167  0.79489733  0.80543133  1
  O  O95  1  0.20510267  0.04435433  0.80543133  1
  O  O96  1  0.82931933  0.30571167  0.73907867  1
  O  O97  1  0.69428833  0.52360767  0.73907867  1
  O  O98  1  0.47639233  0.17068067  0.73907867  1
  O  O99  1  0.17068067  0.47639233  0.76092133  1
  O  O100  1  0.52360767  0.69428833  0.76092133  1
  O  O101  1  0.30571167  0.82931933  0.76092133  1
  O  O102  1  0.50401400  0.36095500  0.92758800  1
  O  O103  1  0.63904500  0.14305900  0.92758800  1
  O  O104  1  0.85694100  0.49598600  0.92758800  1
  O  O105  1  0.16265267  0.19027433  0.90574533  1
  O  O106  1  0.80972567  0.97237833  0.90574533  1
  O  O107  1  0.02762167  0.83734733  0.90574533  1
