# generated using pymatgen
data_Ba3In2Br2O5
_symmetry_space_group_name_H-M   'P 1'
_cell_length_a   4.32673600
_cell_length_b   4.32673600
_cell_length_c   26.51065000
_cell_angle_alpha   90.00000000
_cell_angle_beta   90.00000000
_cell_angle_gamma   90.00000000
_symmetry_Int_Tables_number   1
_chemical_formula_structural   Ba3In2Br2O5
_chemical_formula_sum   'Ba6 In4 Br4 O10'
_cell_volume   496.29645183
_cell_formula_units_Z   2
loop_
 _symmetry_equiv_pos_site_id
 _symmetry_equiv_pos_as_xyz
  1  'x, y, z'
loop_
 _atom_site_type_symbol
 _atom_site_label
 _atom_site_symmetry_multiplicity
 _atom_site_fract_x
 _atom_site_fract_y
 _atom_site_fract_z
 _atom_site_occupancy
  Ba  Ba0  1  0.50000000  0.50000000  0.15429500  1
  Ba  Ba1  1  0.00000000  0.00000000  0.34570500  1
  Ba  Ba2  1  0.50000000  0.50000000  0.00000000  1
  Ba  Ba3  1  0.00000000  0.00000000  0.65429500  1
  Ba  Ba4  1  0.50000000  0.50000000  0.84570500  1
  Ba  Ba5  1  0.00000000  0.00000000  0.50000000  1
  In  In6  1  0.50000000  0.50000000  0.42091600  1
  In  In7  1  0.00000000  0.00000000  0.07908400  1
  In  In8  1  0.00000000  0.00000000  0.92091600  1
  In  In9  1  0.50000000  0.50000000  0.57908400  1
  Br  Br10  1  0.50000000  0.50000000  0.29555200  1
  Br  Br11  1  0.00000000  0.00000000  0.20444800  1
  Br  Br12  1  0.00000000  0.00000000  0.79555200  1
  Br  Br13  1  0.50000000  0.50000000  0.70444800  1
  O  O14  1  0.50000000  0.00000000  0.41004300  1
  O  O15  1  0.50000000  0.00000000  0.08995700  1
  O  O16  1  0.00000000  0.50000000  0.41004300  1
  O  O17  1  0.00000000  0.50000000  0.08995700  1
  O  O18  1  0.00000000  0.00000000  0.00000000  1
  O  O19  1  0.00000000  0.50000000  0.91004300  1
  O  O20  1  0.00000000  0.50000000  0.58995700  1
  O  O21  1  0.50000000  0.00000000  0.91004300  1
  O  O22  1  0.50000000  0.00000000  0.58995700  1
  O  O23  1  0.50000000  0.50000000  0.50000000  1
