# generated using pymatgen
data_AlPO4
_symmetry_space_group_name_H-M   'P 1'
_cell_length_a   8.70874600
_cell_length_b   13.87241600
_cell_length_c   19.16172000
_cell_angle_alpha   90.00000000
_cell_angle_beta   90.00000000
_cell_angle_gamma   90.00000000
_symmetry_Int_Tables_number   1
_chemical_formula_structural   AlPO4
_chemical_formula_sum   'Al20 P20 O80'
_cell_volume   2314.95321075
_cell_formula_units_Z   20
loop_
 _symmetry_equiv_pos_site_id
 _symmetry_equiv_pos_as_xyz
  1  'x, y, z'
loop_
 _atom_site_type_symbol
 _atom_site_label
 _atom_site_symmetry_multiplicity
 _atom_site_fract_x
 _atom_site_fract_y
 _atom_site_fract_z
 _atom_site_occupancy
  Al  Al0  1  0.19174050  0.45111250  0.60366450  1
  Al  Al1  1  0.19174050  0.45111250  0.89633550  1
  Al  Al2  1  0.19169750  0.14259050  0.03609650  1
  Al  Al3  1  0.19174050  0.54888750  0.10366450  1
  Al  Al4  1  0.69058600  0.64218500  0.25000000  1
  Al  Al5  1  0.19169750  0.85740950  0.96390350  1
  Al  Al6  1  0.69169750  0.64259050  0.96390350  1
  Al  Al7  1  0.69058600  0.35781500  0.75000000  1
  Al  Al8  1  0.69169750  0.35740950  0.03609650  1
  Al  Al9  1  0.19174050  0.54888750  0.39633550  1
  Al  Al10  1  0.69174050  0.95111250  0.10366450  1
  Al  Al11  1  0.69174050  0.95111250  0.39633550  1
  Al  Al12  1  0.69169750  0.64259050  0.53609650  1
  Al  Al13  1  0.69174050  0.04888750  0.60366450  1
  Al  Al14  1  0.19058600  0.14218500  0.75000000  1
  Al  Al15  1  0.69169750  0.35740950  0.46390350  1
  Al  Al16  1  0.19169750  0.14259050  0.46390350  1
  Al  Al17  1  0.19058600  0.85781500  0.25000000  1
  Al  Al18  1  0.19169750  0.85740950  0.53609650  1
  Al  Al19  1  0.69174050  0.04888750  0.89633550  1
  P  P20  1  0.31669000  0.64541700  0.96402100  1
  P  P21  1  0.81665950  0.54974750  0.10531050  1
  P  P22  1  0.31604000  0.63596500  0.25000000  1
  P  P23  1  0.81669000  0.14541700  0.03597900  1
  P  P24  1  0.81665950  0.54974750  0.39468950  1
  P  P25  1  0.81665950  0.45025250  0.89468950  1
  P  P26  1  0.81665950  0.45025250  0.60531050  1
  P  P27  1  0.31669000  0.35458300  0.03597900  1
  P  P28  1  0.81669000  0.85458300  0.96402100  1
  P  P29  1  0.31604000  0.36403500  0.75000000  1
  P  P30  1  0.81669000  0.14541700  0.46402100  1
  P  P31  1  0.31665950  0.04974750  0.60531050  1
  P  P32  1  0.81604000  0.13596500  0.75000000  1
  P  P33  1  0.31669000  0.64541700  0.53597900  1
  P  P34  1  0.31665950  0.04974750  0.89468950  1
  P  P35  1  0.31665950  0.95025250  0.39468950  1
  P  P36  1  0.31665950  0.95025250  0.10531050  1
  P  P37  1  0.81669000  0.85458300  0.53597900  1
  P  P38  1  0.31669000  0.35458300  0.46402100  1
  P  P39  1  0.81604000  0.86403500  0.25000000  1
  O  O40  1  0.76194550  0.12787950  0.96048550  1
  O  O41  1  0.26087000  0.41823000  0.68510700  1
  O  O42  1  0.49131500  0.35986600  0.75000000  1
  O  O43  1  0.75287850  0.61799350  0.04909850  1
  O  O44  1  0.26194550  0.62787950  0.03951450  1
  O  O45  1  0.76134700  0.75542600  0.93897800  1
  O  O46  1  0.25057500  0.73829600  0.25000000  1
  O  O47  1  0.99216800  0.14182700  0.03842700  1
  O  O48  1  0.76134700  0.24457400  0.06102200  1
  O  O49  1  0.76113150  0.55411350  0.90702350  1
  O  O50  1  0.99225400  0.44728400  0.60327400  1
  O  O51  1  0.25057500  0.26170400  0.75000000  1
  O  O52  1  0.26087000  0.41823000  0.81489300  1
  O  O53  1  0.49131500  0.64013400  0.25000000  1
  O  O54  1  0.26194550  0.37212050  0.96048550  1
  O  O55  1  0.26134700  0.25542600  0.06102200  1
  O  O56  1  0.26087000  0.58177000  0.18510700  1
  O  O57  1  0.99225400  0.55271600  0.39672600  1
  O  O58  1  0.99216800  0.85817300  0.96157300  1
  O  O59  1  0.76043450  0.58288750  0.17675450  1
  O  O60  1  0.99225400  0.44728400  0.89672600  1
  O  O61  1  0.76043450  0.41711250  0.67675450  1
  O  O62  1  0.49216800  0.35817300  0.03842700  1
  O  O63  1  0.75287850  0.38200650  0.95090150  1
  O  O64  1  0.25092550  0.56884850  0.58545050  1
  O  O65  1  0.25092550  0.56884850  0.91454950  1
  O  O66  1  0.76043450  0.58288750  0.32324550  1
  O  O67  1  0.25092550  0.43115150  0.08545050  1
  O  O68  1  0.76113150  0.44588650  0.40702350  1
  O  O69  1  0.26134700  0.74457400  0.93897800  1
  O  O70  1  0.26087000  0.58177000  0.31489300  1
  O  O71  1  0.25287850  0.11799350  0.95090150  1
  O  O72  1  0.76043450  0.41711250  0.82324550  1
  O  O73  1  0.99225400  0.55271600  0.10327400  1
  O  O74  1  0.76113150  0.44588650  0.09297650  1
  O  O75  1  0.49216800  0.64182700  0.96157300  1
  O  O76  1  0.25287850  0.88200650  0.04909850  1
  O  O77  1  0.76113150  0.55411350  0.59297650  1
  O  O78  1  0.25092550  0.43115150  0.41454950  1
  O  O79  1  0.76194550  0.87212050  0.03951450  1
  O  O80  1  0.26194550  0.62787950  0.46048550  1
  O  O81  1  0.76087000  0.91823000  0.18510700  1
  O  O82  1  0.99131500  0.85986600  0.25000000  1
  O  O83  1  0.25287850  0.11799350  0.54909850  1
  O  O84  1  0.76194550  0.12787950  0.53951450  1
  O  O85  1  0.26134700  0.25542600  0.43897800  1
  O  O86  1  0.75057500  0.23829600  0.75000000  1
  O  O87  1  0.49216800  0.64182700  0.53842700  1
  O  O88  1  0.26134700  0.74457400  0.56102200  1
  O  O89  1  0.26113150  0.05411350  0.40702350  1
  O  O90  1  0.49225400  0.94728400  0.10327400  1
  O  O91  1  0.75057500  0.76170400  0.25000000  1
  O  O92  1  0.76087000  0.91823000  0.31489300  1
  O  O93  1  0.99131500  0.14013400  0.75000000  1
  O  O94  1  0.76194550  0.87212050  0.46048550  1
  O  O95  1  0.76134700  0.75542600  0.56102200  1
  O  O96  1  0.76087000  0.08177000  0.68510700  1
  O  O97  1  0.49225400  0.05271600  0.89672600  1
  O  O98  1  0.49216800  0.35817300  0.46157300  1
  O  O99  1  0.26043450  0.08288750  0.67675450  1
  O  O100  1  0.49225400  0.94728400  0.39672600  1
  O  O101  1  0.26043450  0.91711250  0.17675450  1
  O  O102  1  0.99216800  0.85817300  0.53842700  1
  O  O103  1  0.25287850  0.88200650  0.45090150  1
  O  O104  1  0.75092550  0.06884850  0.08545050  1
  O  O105  1  0.75092550  0.06884850  0.41454950  1
  O  O106  1  0.26043450  0.08288750  0.82324550  1
  O  O107  1  0.75092550  0.93115150  0.58545050  1
  O  O108  1  0.26113150  0.94588650  0.90702350  1
  O  O109  1  0.76134700  0.24457400  0.43897800  1
  O  O110  1  0.76087000  0.08177000  0.81489300  1
  O  O111  1  0.75287850  0.61799350  0.45090150  1
  O  O112  1  0.26043450  0.91711250  0.32324550  1
  O  O113  1  0.49225400  0.05271600  0.60327400  1
  O  O114  1  0.26113150  0.94588650  0.59297650  1
  O  O115  1  0.99216800  0.14182700  0.46157300  1
  O  O116  1  0.75287850  0.38200650  0.54909850  1
  O  O117  1  0.26113150  0.05411350  0.09297650  1
  O  O118  1  0.75092550  0.93115150  0.91454950  1
  O  O119  1  0.26194550  0.37212050  0.53951450  1
