# generated using pymatgen
data_InSb2S4Br
_symmetry_space_group_name_H-M   'P 1'
_cell_length_a   20.65933400
_cell_length_b   3.91280000
_cell_length_c   12.13897642
_cell_angle_alpha   90.00000000
_cell_angle_beta   120.35268689
_cell_angle_gamma   90.00000000
_symmetry_Int_Tables_number   1
_chemical_formula_structural   InSb2S4Br
_chemical_formula_sum   'In4 Sb8 S16 Br4'
_cell_volume   846.76369099
_cell_formula_units_Z   4
loop_
 _symmetry_equiv_pos_site_id
 _symmetry_equiv_pos_as_xyz
  1  'x, y, z'
loop_
 _atom_site_type_symbol
 _atom_site_label
 _atom_site_symmetry_multiplicity
 _atom_site_fract_x
 _atom_site_fract_y
 _atom_site_fract_z
 _atom_site_occupancy
  In  In0  1  0.16382100  0.50000000  0.43360200  1
  In  In1  1  0.83617900  0.50000000  0.56639800  1
  In  In2  1  0.66382100  0.00000000  0.43360200  1
  In  In3  1  0.33617900  0.00000000  0.56639800  1
  Sb  Sb4  1  0.29341100  0.00000000  0.90594500  1
  Sb  Sb5  1  0.95176600  0.00000000  0.21553600  1
  Sb  Sb6  1  0.04823400  0.00000000  0.78446400  1
  Sb  Sb7  1  0.70658900  0.00000000  0.09405500  1
  Sb  Sb8  1  0.79341100  0.50000000  0.90594500  1
  Sb  Sb9  1  0.45176600  0.50000000  0.21553600  1
  Sb  Sb10  1  0.54823400  0.50000000  0.78446400  1
  Sb  Sb11  1  0.20658900  0.50000000  0.09405500  1
  S  S12  1  0.18073500  0.50000000  0.86990200  1
  S  S13  1  0.60390600  0.50000000  0.02267900  1
  S  S14  1  0.71170300  0.50000000  0.35053200  1
  S  S15  1  0.03443000  0.50000000  0.21427300  1
  S  S16  1  0.28829700  0.50000000  0.64946800  1
  S  S17  1  0.96557000  0.50000000  0.78572700  1
  S  S18  1  0.81926500  0.50000000  0.13009800  1
  S  S19  1  0.39609400  0.50000000  0.97732100  1
  S  S20  1  0.68073500  0.00000000  0.86990200  1
  S  S21  1  0.10390600  0.00000000  0.02267900  1
  S  S22  1  0.21170300  0.00000000  0.35053200  1
  S  S23  1  0.53443000  0.00000000  0.21427300  1
  S  S24  1  0.78829700  0.00000000  0.64946800  1
  S  S25  1  0.46557000  0.00000000  0.78572700  1
  S  S26  1  0.31926500  0.00000000  0.13009800  1
  S  S27  1  0.89609400  0.00000000  0.97732100  1
  Br  Br28  1  0.89764300  0.00000000  0.47282600  1
  Br  Br29  1  0.10235700  0.00000000  0.52717400  1
  Br  Br30  1  0.39764300  0.50000000  0.47282600  1
  Br  Br31  1  0.60235700  0.50000000  0.52717400  1
