# generated using pymatgen
data_LiGe2(PO4)3
_symmetry_space_group_name_H-M   'P 1'
_cell_length_a   8.38928360
_cell_length_b   8.38928360
_cell_length_c   20.73444086
_cell_angle_alpha   90.00000000
_cell_angle_beta   90.00000000
_cell_angle_gamma   120.00000000
_symmetry_Int_Tables_number   1
_chemical_formula_structural   LiGe2(PO4)3
_chemical_formula_sum   'Li6 Ge12 P18 O72'
_cell_volume   1263.78359046
_cell_formula_units_Z   6
loop_
 _symmetry_equiv_pos_site_id
 _symmetry_equiv_pos_as_xyz
  1  'x, y, z'
loop_
 _atom_site_type_symbol
 _atom_site_label
 _atom_site_symmetry_multiplicity
 _atom_site_fract_x
 _atom_site_fract_y
 _atom_site_fract_z
 _atom_site_occupancy
  Li  Li0  1  0.33333333  0.66666667  0.16666667  1
  Li  Li1  1  0.00000000  0.00000000  0.00000000  1
  Li  Li2  1  1.00000000  0.00000000  0.50000000  1
  Li  Li3  1  0.66666667  0.33333333  0.33333333  1
  Li  Li4  1  0.66666667  0.33333333  0.83333333  1
  Li  Li5  1  0.33333333  0.66666667  0.66666667  1
  Ge  Ge6  1  0.33333333  0.66666667  0.30773767  1
  Ge  Ge7  1  0.66666667  0.33333333  0.19226233  1
  Ge  Ge8  1  0.33333333  0.66666667  0.02559567  1
  Ge  Ge9  1  0.00000000  0.00000000  0.14107100  1
  Ge  Ge10  1  0.00000000  0.00000000  0.64107100  1
  Ge  Ge11  1  0.33333333  0.66666667  0.52559567  1
  Ge  Ge12  1  0.00000000  0.00000000  0.35892900  1
  Ge  Ge13  1  0.66666667  0.33333333  0.47440433  1
  Ge  Ge14  1  0.66666667  0.33333333  0.97440433  1
  Ge  Ge15  1  0.00000000  0.00000000  0.85892900  1
  Ge  Ge16  1  0.66666667  0.33333333  0.69226233  1
  Ge  Ge17  1  0.33333333  0.66666667  0.80773767  1
  P  P18  1  0.95482167  0.62148833  0.08333333  1
  P  P19  1  0.66666667  0.04517833  0.08333333  1
  P  P20  1  0.37851167  0.33333333  0.08333333  1
  P  P21  1  0.71184500  0.71184500  0.25000000  1
  P  P22  1  0.00000000  0.28815500  0.25000000  1
  P  P23  1  0.28815500  1.00000000  0.25000000  1
  P  P24  1  0.62148833  0.95482167  0.41666667  1
  P  P25  1  0.33333333  0.37851167  0.41666667  1
  P  P26  1  0.04517833  0.66666667  0.41666667  1
  P  P27  1  0.37851167  0.04517833  0.58333333  1
  P  P28  1  0.66666667  0.62148833  0.58333333  1
  P  P29  1  0.95482167  0.33333333  0.58333333  1
  P  P30  1  0.28815500  0.28815500  0.75000000  1
  P  P31  1  0.00000000  0.71184500  0.75000000  1
  P  P32  1  0.71184500  0.00000000  0.75000000  1
  P  P33  1  0.04517833  0.37851167  0.91666667  1
  P  P34  1  0.33333333  0.95482167  0.91666667  1
  P  P35  1  0.62148833  0.66666667  0.91666667  1
  O  O36  1  0.84806967  0.52975433  0.02150533  1
  O  O37  1  0.68168467  0.15193033  0.02150533  1
  O  O38  1  0.47024567  0.31831533  0.02150533  1
  O  O39  1  0.86308767  0.51473633  0.14516133  1
  O  O40  1  0.65164867  0.13691233  0.14516133  1
  O  O41  1  0.48526367  0.34835133  0.14516133  1
  O  O42  1  0.81859700  0.80357900  0.31182800  1
  O  O43  1  0.98498200  0.18140300  0.31182800  1
  O  O44  1  0.19642100  0.01501800  0.31182800  1
  O  O45  1  0.80357900  0.81859700  0.18817200  1
  O  O46  1  0.01501800  0.19642100  0.18817200  1
  O  O47  1  0.18140300  0.98498200  0.18817200  1
  O  O48  1  0.51794000  0.69207100  0.24835300  1
  O  O49  1  0.17413100  0.48206000  0.24835300  1
  O  O50  1  0.30792900  0.82586900  0.24835300  1
  O  O51  1  0.69207100  0.51794000  0.25164700  1
  O  O52  1  0.82586900  0.30792900  0.25164700  1
  O  O53  1  0.48206000  0.17413100  0.25164700  1
  O  O54  1  0.14872667  0.64126233  0.08498033  1
  O  O55  1  0.49253567  0.85127333  0.08498033  1
  O  O56  1  0.35873767  0.50746433  0.08498033  1
  O  O57  1  0.97459567  0.81539333  0.08168633  1
  O  O58  1  0.84079767  0.02540433  0.08168633  1
  O  O59  1  0.18460667  0.15920233  0.08168633  1
  O  O60  1  0.51473633  0.86308767  0.35483867  1
  O  O61  1  0.34835133  0.48526367  0.35483867  1
  O  O62  1  0.13691233  0.65164867  0.35483867  1
  O  O63  1  0.52975433  0.84806967  0.47849467  1
  O  O64  1  0.31831533  0.47024567  0.47849467  1
  O  O65  1  0.15193033  0.68168467  0.47849467  1
  O  O66  1  0.48526367  0.13691233  0.64516133  1
  O  O67  1  0.65164867  0.51473633  0.64516133  1
  O  O68  1  0.86308767  0.34835133  0.64516133  1
  O  O69  1  0.47024567  0.15193033  0.52150533  1
  O  O70  1  0.68168467  0.52975433  0.52150533  1
  O  O71  1  0.84806967  0.31831533  0.52150533  1
  O  O72  1  0.18460667  0.02540433  0.58168633  1
  O  O73  1  0.84079767  0.81539333  0.58168633  1
  O  O74  1  0.97459567  0.15920233  0.58168633  1
  O  O75  1  0.35873767  0.85127333  0.58498033  1
  O  O76  1  0.49253567  0.64126233  0.58498033  1
  O  O77  1  0.14872667  0.50746433  0.58498033  1
  O  O78  1  0.81539333  0.97459567  0.41831367  1
  O  O79  1  0.15920233  0.18460667  0.41831367  1
  O  O80  1  0.02540433  0.84079767  0.41831367  1
  O  O81  1  0.64126233  0.14872667  0.41501967  1
  O  O82  1  0.50746433  0.35873767  0.41501967  1
  O  O83  1  0.85127333  0.49253567  0.41501967  1
  O  O84  1  0.18140300  0.19642100  0.68817200  1
  O  O85  1  0.01501800  0.81859700  0.68817200  1
  O  O86  1  0.80357900  0.98498200  0.68817200  1
  O  O87  1  0.19642100  0.18140300  0.81182800  1
  O  O88  1  0.98498200  0.80357900  0.81182800  1
  O  O89  1  0.81859700  0.01501800  0.81182800  1
  O  O90  1  0.15193033  0.47024567  0.97849467  1
  O  O91  1  0.31831533  0.84806967  0.97849467  1
  O  O92  1  0.52975433  0.68168467  0.97849467  1
  O  O93  1  0.13691233  0.48526367  0.85483867  1
  O  O94  1  0.34835133  0.86308767  0.85483867  1
  O  O95  1  0.51473633  0.65164867  0.85483867  1
  O  O96  1  0.85127333  0.35873767  0.91501967  1
  O  O97  1  0.50746433  0.14872667  0.91501967  1
  O  O98  1  0.64126233  0.49253567  0.91501967  1
  O  O99  1  0.02540433  0.18460667  0.91831367  1
  O  O100  1  0.15920233  0.97459567  0.91831367  1
  O  O101  1  0.81539333  0.84079767  0.91831367  1
  O  O102  1  0.48206000  0.30792900  0.75164700  1
  O  O103  1  0.82586900  0.51794000  0.75164700  1
  O  O104  1  0.69207100  0.17413100  0.75164700  1
  O  O105  1  0.30792900  0.48206000  0.74835300  1
  O  O106  1  0.17413100  0.69207100  0.74835300  1
  O  O107  1  0.51794000  0.82586900  0.74835300  1
