# generated using pymatgen
data_Na3Zr2Si2PO12
_symmetry_space_group_name_H-M   'P 1'
_cell_length_a   9.15342773
_cell_length_b   9.31654062
_cell_length_c   15.89740124
_cell_angle_alpha   105.97428665
_cell_angle_beta   90.18590756
_cell_angle_gamma   118.59048397
_symmetry_Int_Tables_number   1
_chemical_formula_structural   Na3Zr2Si2PO12
_chemical_formula_sum   'Na12 Zr8 Si8 P4 O48'
_cell_volume   1129.70843640
_cell_formula_units_Z   4
loop_
 _symmetry_equiv_pos_site_id
 _symmetry_equiv_pos_as_xyz
  1  'x, y, z'
loop_
 _atom_site_type_symbol
 _atom_site_label
 _atom_site_symmetry_multiplicity
 _atom_site_fract_x
 _atom_site_fract_y
 _atom_site_fract_z
 _atom_site_occupancy
  Na  Na0  1  0.20866836  0.92171674  0.15655484  1
  Na  Na1  1  0.36084698  0.53988451  0.01972596  1
  Na  Na2  1  0.80014765  0.54879251  0.19301324  1
  Na  Na3  1  0.69840232  0.94780710  0.30385450  1
  Na  Na4  1  0.83719812  0.05790443  0.52675258  1
  Na  Na5  1  0.70919074  0.42564628  0.65578921  1
  Na  Na6  1  0.29082698  0.57031518  0.34644011  1
  Na  Na7  1  0.16421245  0.94530349  0.47339594  1
  Na  Na8  1  0.30478852  0.05388683  0.69606379  1
  Na  Na9  1  0.19414730  0.44130554  0.80072533  1
  Na  Na10  1  0.79224245  0.05958335  0.84964369  1
  Na  Na11  1  0.68980260  0.40230728  0.96057148  1
  Zr  Zr12  1  0.47640290  0.12112812  0.32280568  1
  Zr  Zr13  1  0.72209018  0.86477925  0.07750713  1
  Zr  Zr14  1  0.78006639  0.63472414  0.42330867  1
  Zr  Zr15  1  0.02828051  0.38113652  0.17729478  1
  Zr  Zr16  1  0.98039419  0.62342616  0.82199521  1
  Zr  Zr17  1  0.22385353  0.36793666  0.57604547  1
  Zr  Zr18  1  0.27814139  0.13125024  0.92368689  1
  Zr  Zr19  1  0.52513826  0.87954457  0.67754374  1
  Si  Si20  1  0.48457910  0.52859150  0.23596227  1
  Si  Si21  1  0.59536717  0.13755881  0.12386636  1
  Si  Si22  1  0.90607818  0.36162574  0.37587099  1
  Si  Si23  1  0.98432329  0.02807918  0.73476320  1
  Si  Si24  1  0.01791909  0.97251481  0.26451367  1
  Si  Si25  1  0.09589388  0.63954449  0.62375427  1
  Si  Si26  1  0.40692344  0.85943747  0.87621056  1
  Si  Si27  1  0.51870431  0.47297332  0.76455709  1
  P  P28  1  0.52289090  0.77237945  0.47876085  1
  P  P29  1  0.97760269  0.72887475  0.02078752  1
  P  P30  1  0.02283959  0.27318003  0.97963941  1
  P  P31  1  0.48025817  0.22951180  0.52125269  1
  O  O32  1  0.11215823  0.91256937  0.00299433  1
  O  O33  1  0.07075807  0.36505831  0.05542767  1
  O  O34  1  0.28603730  0.49127485  0.21761208  1
  O  O35  1  0.57897735  0.63222389  0.31673591  1
  O  O36  1  0.61255512  0.41331136  0.50245196  1
  O  O37  1  0.56712485  0.63131403  0.14431952  1
  O  O38  1  0.50981667  0.35561756  0.26374077  1
  O  O39  1  0.45130508  0.85991751  0.38940489  1
  O  O40  1  0.50269378  0.06953153  0.21147217  1
  O  O41  1  0.56006731  0.86091787  0.55450772  1
  O  O42  1  0.46505382  0.16770851  0.03424192  1
  O  O43  1  0.85271628  0.50563441  0.37760924  1
  O  O44  1  0.78507767  0.98919633  0.71407705  1
  O  O45  1  0.81005147  0.72183536  0.02965311  1
  O  O46  1  0.73777400  0.18293601  0.37173342  1
  O  O47  1  0.76634211  0.31422986  0.12649539  1
  O  O48  1  0.69277771  0.78355679  0.46966466  1
  O  O49  1  0.64581898  0.99040634  0.12397033  1
  O  O50  1  0.07482812  0.12789822  0.81691940  1
  O  O51  1  0.03925237  0.33233149  0.46424823  1
  O  O52  1  0.99756391  0.43290772  0.28746637  1
  O  O53  1  0.06917704  0.13557271  0.64425830  1
  O  O54  1  0.04702408  0.63947554  0.11026403  1
  O  O55  1  0.01191291  0.85658352  0.76145005  1
  O  O56  1  0.99293719  0.14550085  0.23618844  1
  O  O57  1  0.94523517  0.36001720  0.89223400  1
  O  O58  1  0.93448220  0.86818093  0.35583842  1
  O  O59  1  0.89025704  0.09003120  0.00030930  1
  O  O60  1  0.00126498  0.56547502  0.71148904  1
  O  O61  1  0.96513341  0.67068154  0.53506135  1
  O  O62  1  0.92473344  0.86890785  0.18373423  1
  O  O63  1  0.35065206  0.00144343  0.87802942  1
  O  O64  1  0.31045936  0.21843307  0.53073310  1
  O  O65  1  0.23955384  0.68050733  0.86968933  1
  O  O66  1  0.26398477  0.81776228  0.62950399  1
  O  O67  1  0.18871294  0.28212180  0.96577399  1
  O  O68  1  0.21687585  0.00918257  0.28547889  1
  O  O69  1  0.15080185  0.49589591  0.62297657  1
  O  O70  1  0.54028345  0.83016481  0.96401502  1
  O  O71  1  0.44130362  0.14002385  0.44560737  1
  O  O72  1  0.50066170  0.93461342  0.78811129  1
  O  O73  1  0.55147109  0.14135465  0.61048895  1
  O  O74  1  0.49234412  0.64488006  0.73775625  1
  O  O75  1  0.43298190  0.36240783  0.85458229  1
  O  O76  1  0.39052737  0.58845180  0.49742573  1
  O  O77  1  0.42835596  0.37331060  0.68212345  1
  O  O78  1  0.71792960  0.50890618  0.78762123  1
  O  O79  1  0.94267717  0.64228559  0.94455467  1
