# generated using pymatgen
data_Ca(BO2)2
_symmetry_space_group_name_H-M   'P 1'
_cell_length_a   6.44680400
_cell_length_b   11.43188900
_cell_length_c   11.46615800
_cell_angle_alpha   90.00000000
_cell_angle_beta   90.00000000
_cell_angle_gamma   90.00000000
_symmetry_Int_Tables_number   1
_chemical_formula_structural   Ca(BO2)2
_chemical_formula_sum   'Ca12 B24 O48'
_cell_volume   845.04607237
_cell_formula_units_Z   12
loop_
 _symmetry_equiv_pos_site_id
 _symmetry_equiv_pos_as_xyz
  1  'x, y, z'
loop_
 _atom_site_type_symbol
 _atom_site_label
 _atom_site_symmetry_multiplicity
 _atom_site_fract_x
 _atom_site_fract_y
 _atom_site_fract_z
 _atom_site_occupancy
  Ca  Ca0  1  0.44927100  0.00139200  0.57243800  1
  Ca  Ca1  1  0.11269700  0.27919800  0.25340000  1
  Ca  Ca2  1  0.61269700  0.77919800  0.24660000  1
  Ca  Ca3  1  0.84109200  0.23468400  0.53253400  1
  Ca  Ca4  1  0.55072900  0.50139200  0.42756200  1
  Ca  Ca5  1  0.15890800  0.73468400  0.46746600  1
  Ca  Ca6  1  0.88730300  0.77919800  0.74660000  1
  Ca  Ca7  1  0.05072900  0.00139200  0.07243800  1
  Ca  Ca8  1  0.38730300  0.27919800  0.75340000  1
  Ca  Ca9  1  0.94927100  0.50139200  0.92756200  1
  Ca  Ca10  1  0.65890800  0.23468400  0.03253400  1
  Ca  Ca11  1  0.34109200  0.73468400  0.96746600  1
  B  B12  1  0.74693400  0.03936100  0.85970800  1
  B  B13  1  0.88116300  0.24009600  0.78747900  1
  B  B14  1  0.38116300  0.74009600  0.71252100  1
  B  B15  1  0.92038200  0.55104600  0.24927100  1
  B  B16  1  0.75306600  0.03936100  0.35970800  1
  B  B17  1  0.24693400  0.53936100  0.64029200  1
  B  B18  1  0.12332900  0.24757000  0.97498500  1
  B  B19  1  0.42038200  0.05104600  0.25072900  1
  B  B20  1  0.11883700  0.74009600  0.21252100  1
  B  B21  1  0.01808300  0.47986900  0.46607400  1
  B  B22  1  0.51808300  0.97986900  0.03392600  1
  B  B23  1  0.98191700  0.97986900  0.53392600  1
  B  B24  1  0.39972900  0.94407400  0.82206900  1
  B  B25  1  0.37667100  0.24757000  0.47498500  1
  B  B26  1  0.10027100  0.94407400  0.32206900  1
  B  B27  1  0.25306600  0.53936100  0.14029200  1
  B  B28  1  0.07961800  0.05104600  0.75072900  1
  B  B29  1  0.57961800  0.55104600  0.74927100  1
  B  B30  1  0.60027100  0.44407400  0.17793100  1
  B  B31  1  0.89972900  0.44407400  0.67793100  1
  B  B32  1  0.87667100  0.74757000  0.02501500  1
  B  B33  1  0.62332900  0.74757000  0.52501500  1
  B  B34  1  0.48191700  0.47986900  0.96607400  1
  B  B35  1  0.61883700  0.24009600  0.28747900  1
  O  O36  1  0.17154100  0.25579700  0.45374300  1
  O  O37  1  0.32845900  0.25579700  0.95374300  1
  O  O38  1  0.67154100  0.75579700  0.04625700  1
  O  O39  1  0.53104400  0.70010900  0.42788700  1
  O  O40  1  0.79865800  0.33272200  0.71248300  1
  O  O41  1  0.53321400  0.01148900  0.35436700  1
  O  O42  1  0.52188800  0.29850400  0.39339500  1
  O  O43  1  0.12356400  0.45004900  0.70103400  1
  O  O44  1  0.20134200  0.83272200  0.28751700  1
  O  O45  1  0.96895600  0.70010900  0.92788700  1
  O  O46  1  0.46857900  0.17277200  0.21804500  1
  O  O47  1  0.02188800  0.79850400  0.10660500  1
  O  O48  1  0.03142100  0.17277200  0.71804500  1
  O  O49  1  0.96678600  0.01148900  0.85436700  1
  O  O50  1  0.97811200  0.29850400  0.89339500  1
  O  O51  1  0.30355500  0.04400100  0.76545700  1
  O  O52  1  0.69644500  0.54400100  0.23454300  1
  O  O53  1  0.69895500  0.03035000  0.99359500  1
  O  O54  1  0.96857900  0.67277200  0.28195500  1
  O  O55  1  0.19895500  0.53035000  0.50640500  1
  O  O56  1  0.62356400  0.95004900  0.79896600  1
  O  O57  1  0.02215400  0.96819400  0.65005500  1
  O  O58  1  0.29398800  0.66377100  0.17336700  1
  O  O59  1  0.20601200  0.66377100  0.67336700  1
  O  O60  1  0.87643600  0.95004900  0.29896600  1
  O  O61  1  0.03104400  0.20010900  0.07211300  1
  O  O62  1  0.47811200  0.79850400  0.60660500  1
  O  O63  1  0.47784600  0.96819400  0.15005500  1
  O  O64  1  0.52215400  0.46819400  0.84994500  1
  O  O65  1  0.46895600  0.20010900  0.57211300  1
  O  O66  1  0.86385500  0.44645900  0.54357200  1
  O  O67  1  0.37643600  0.45004900  0.20103400  1
  O  O68  1  0.03321400  0.51148900  0.14563300  1
  O  O69  1  0.30104500  0.53035000  0.00640500  1
  O  O70  1  0.29865800  0.83272200  0.78751700  1
  O  O71  1  0.79398800  0.16377100  0.32663300  1
  O  O72  1  0.97784600  0.46819400  0.34994500  1
  O  O73  1  0.63614500  0.44645900  0.04357200  1
  O  O74  1  0.46678600  0.51148900  0.64563300  1
  O  O75  1  0.19644500  0.04400100  0.26545700  1
  O  O76  1  0.70134200  0.33272200  0.21248300  1
  O  O77  1  0.80355500  0.54400100  0.73454300  1
  O  O78  1  0.53142100  0.67277200  0.78195500  1
  O  O79  1  0.13614500  0.94645900  0.45642800  1
  O  O80  1  0.80104500  0.03035000  0.49359500  1
  O  O81  1  0.82845900  0.75579700  0.54625700  1
  O  O82  1  0.70601200  0.16377100  0.82663300  1
  O  O83  1  0.36385500  0.94645900  0.95642800  1
