# generated using pymatgen
data_CdInBr3
_symmetry_space_group_name_H-M   'P 1'
_cell_length_a   4.19910400
_cell_length_b   9.60093200
_cell_length_c   15.68105600
_cell_angle_alpha   90.00000000
_cell_angle_beta   90.00000000
_cell_angle_gamma   90.00000000
_symmetry_Int_Tables_number   1
_chemical_formula_structural   CdInBr3
_chemical_formula_sum   'Cd4 In4 Br12'
_cell_volume   632.18666458
_cell_formula_units_Z   4
loop_
 _symmetry_equiv_pos_site_id
 _symmetry_equiv_pos_as_xyz
  1  'x, y, z'
loop_
 _atom_site_type_symbol
 _atom_site_label
 _atom_site_symmetry_multiplicity
 _atom_site_fract_x
 _atom_site_fract_y
 _atom_site_fract_z
 _atom_site_occupancy
  Cd  Cd0  1  0.75000000  0.83292400  0.55634300  1
  Cd  Cd1  1  0.25000000  0.16707600  0.44365700  1
  Cd  Cd2  1  0.75000000  0.33292400  0.94365700  1
  Cd  Cd3  1  0.25000000  0.66707600  0.05634300  1
  In  In4  1  0.75000000  0.55847800  0.32228700  1
  In  In5  1  0.25000000  0.44152200  0.67771300  1
  In  In6  1  0.75000000  0.05847800  0.17771300  1
  In  In7  1  0.25000000  0.94152200  0.82228700  1
  Br  Br8  1  0.75000000  0.33409000  0.50573400  1
  Br  Br9  1  0.25000000  0.66591000  0.49426600  1
  Br  Br10  1  0.75000000  0.83409000  0.99426600  1
  Br  Br11  1  0.25000000  0.16591000  0.00573400  1
  Br  Br12  1  0.75000000  0.71207500  0.71327700  1
  Br  Br13  1  0.25000000  0.28792500  0.28672300  1
  Br  Br14  1  0.75000000  0.21207500  0.78672300  1
  Br  Br15  1  0.25000000  0.78792500  0.21327700  1
  Br  Br16  1  0.75000000  0.97754000  0.39637400  1
  Br  Br17  1  0.25000000  0.02246000  0.60362600  1
  Br  Br18  1  0.75000000  0.47754000  0.10362600  1
  Br  Br19  1  0.25000000  0.52246000  0.89637400  1
