# generated using pymatgen
data_Rb5H5(OF3)2
_symmetry_space_group_name_H-M   'P 1'
_cell_length_a   7.15076500
_cell_length_b   12.24886000
_cell_length_c   13.67279100
_cell_angle_alpha   90.00000000
_cell_angle_beta   90.00000000
_cell_angle_gamma   90.00000000
_symmetry_Int_Tables_number   1
_chemical_formula_structural   Rb5H5(OF3)2
_chemical_formula_sum   'Rb20 H20 O8 F24'
_cell_volume   1197.58225401
_cell_formula_units_Z   4
loop_
 _symmetry_equiv_pos_site_id
 _symmetry_equiv_pos_as_xyz
  1  'x, y, z'
loop_
 _atom_site_type_symbol
 _atom_site_label
 _atom_site_symmetry_multiplicity
 _atom_site_fract_x
 _atom_site_fract_y
 _atom_site_fract_z
 _atom_site_occupancy
  Rb  Rb0  1  0.61027100  0.65858500  0.01740800  1
  Rb  Rb1  1  0.11027100  0.84141500  0.01740800  1
  Rb  Rb2  1  0.36180100  0.45352900  0.66340900  1
  Rb  Rb3  1  0.13819900  0.54647100  0.16340900  1
  Rb  Rb4  1  0.68482800  0.75000000  0.75000000  1
  Rb  Rb5  1  0.81517200  0.25000000  0.25000000  1
  Rb  Rb6  1  0.88972900  0.34141500  0.51740800  1
  Rb  Rb7  1  0.18482800  0.75000000  0.75000000  1
  Rb  Rb8  1  0.63819900  0.95352900  0.16340900  1
  Rb  Rb9  1  0.88972900  0.15858500  0.98259200  1
  Rb  Rb10  1  0.38972900  0.34141500  0.98259200  1
  Rb  Rb11  1  0.36180100  0.04647100  0.83659100  1
  Rb  Rb12  1  0.63819900  0.54647100  0.33659100  1
  Rb  Rb13  1  0.86180100  0.45352900  0.83659100  1
  Rb  Rb14  1  0.13819900  0.95352900  0.33659100  1
  Rb  Rb15  1  0.61027100  0.84141500  0.48259200  1
  Rb  Rb16  1  0.31517200  0.25000000  0.25000000  1
  Rb  Rb17  1  0.86180100  0.04647100  0.66340900  1
  Rb  Rb18  1  0.38972900  0.15858500  0.51740800  1
  Rb  Rb19  1  0.11027100  0.65858500  0.48259200  1
  H  H20  1  0.82203600  0.56280600  0.59928100  1
  H  H21  1  0.32203600  0.93719400  0.59928100  1
  H  H22  1  0.61362200  0.60854600  0.57032300  1
  H  H23  1  0.82203600  0.93719400  0.90071900  1
  H  H24  1  0.88637800  0.39145400  0.07032300  1
  H  H25  1  0.38637800  0.39145400  0.42967700  1
  H  H26  1  0.67796400  0.06280600  0.40071900  1
  H  H27  1  0.61362200  0.89145400  0.92967700  1
  H  H28  1  0.63489500  0.25000000  0.75000000  1
  H  H29  1  0.17796400  0.06280600  0.09928100  1
  H  H30  1  0.11362200  0.89145400  0.57032300  1
  H  H31  1  0.88637800  0.10854600  0.42967700  1
  H  H32  1  0.36510500  0.75000000  0.25000000  1
  H  H33  1  0.13489500  0.25000000  0.75000000  1
  H  H34  1  0.17796400  0.43719400  0.40071900  1
  H  H35  1  0.32203600  0.56280600  0.90071900  1
  H  H36  1  0.38637800  0.10854600  0.07032300  1
  H  H37  1  0.67796400  0.43719400  0.09928100  1
  H  H38  1  0.86510500  0.75000000  0.25000000  1
  H  H39  1  0.11362200  0.60854600  0.92967700  1
  O  O40  1  0.22344700  0.93586200  0.54643100  1
  O  O41  1  0.72344700  0.56413800  0.54643100  1
  O  O42  1  0.27655300  0.06413800  0.04643100  1
  O  O43  1  0.77655300  0.06413800  0.45356900  1
  O  O44  1  0.27655300  0.43586200  0.45356900  1
  O  O45  1  0.22344700  0.56413800  0.95356900  1
  O  O46  1  0.72344700  0.93586200  0.95356900  1
  O  O47  1  0.77655300  0.43586200  0.04643100  1
  F  F48  1  0.56348800  0.17476100  0.10283400  1
  F  F49  1  0.93651200  0.82523900  0.60283400  1
  F  F50  1  0.99902200  0.45324600  0.33384300  1
  F  F51  1  0.56348800  0.32523900  0.39716600  1
  F  F52  1  0.86447100  0.76661200  0.33281500  1
  F  F53  1  0.13552900  0.23338800  0.66718500  1
  F  F54  1  0.06348800  0.32523900  0.10283400  1
  F  F55  1  0.86447100  0.73338800  0.16718500  1
  F  F56  1  0.00097800  0.95324600  0.83384300  1
  F  F57  1  0.50097800  0.54675400  0.83384300  1
  F  F58  1  0.36447100  0.76661200  0.16718500  1
  F  F59  1  0.43651200  0.82523900  0.89716600  1
  F  F60  1  0.93651200  0.67476100  0.89716600  1
  F  F61  1  0.06348800  0.17476100  0.39716600  1
  F  F62  1  0.63552900  0.23338800  0.83281500  1
  F  F63  1  0.36447100  0.73338800  0.33281500  1
  F  F64  1  0.49902200  0.45324600  0.16615700  1
  F  F65  1  0.43651200  0.67476100  0.60283400  1
  F  F66  1  0.63552900  0.26661200  0.66718500  1
  F  F67  1  0.49902200  0.04675400  0.33384300  1
  F  F68  1  0.50097800  0.95324600  0.66615700  1
  F  F69  1  0.00097800  0.54675400  0.66615700  1
  F  F70  1  0.13552900  0.26661200  0.83281500  1
  F  F71  1  0.99902200  0.04675400  0.16615700  1
