# generated using pymatgen
data_LuSeO3F
_symmetry_space_group_name_H-M   'P 1'
_cell_length_a   6.54534300
_cell_length_b   6.89829000
_cell_length_c   7.10315076
_cell_angle_alpha   90.00000000
_cell_angle_beta   98.07105537
_cell_angle_gamma   90.00000000
_symmetry_Int_Tables_number   1
_chemical_formula_structural   LuSeO3F
_chemical_formula_sum   'Lu4 Se4 O12 F4'
_cell_volume   317.54233284
_cell_formula_units_Z   4
loop_
 _symmetry_equiv_pos_site_id
 _symmetry_equiv_pos_as_xyz
  1  'x, y, z'
loop_
 _atom_site_type_symbol
 _atom_site_label
 _atom_site_symmetry_multiplicity
 _atom_site_fract_x
 _atom_site_fract_y
 _atom_site_fract_z
 _atom_site_occupancy
  Lu  Lu0  1  0.86296200  0.35834200  0.67441200  1
  Lu  Lu1  1  0.86296200  0.14165800  0.17441200  1
  Lu  Lu2  1  0.13703800  0.85834200  0.82558800  1
  Lu  Lu3  1  0.13703800  0.64165800  0.32558800  1
  Se  Se4  1  0.35221800  0.37949100  0.78997700  1
  Se  Se5  1  0.64778200  0.62050900  0.21002300  1
  Se  Se6  1  0.64778200  0.87949100  0.71002300  1
  Se  Se7  1  0.35221800  0.12050900  0.28997700  1
  O  O8  1  0.47905300  0.81315200  0.86227700  1
  O  O9  1  0.17157300  0.97053900  0.14641600  1
  O  O10  1  0.82842700  0.47053900  0.35358400  1
  O  O11  1  0.47905300  0.68684800  0.36227700  1
  O  O12  1  0.82649900  0.80938900  0.22146500  1
  O  O13  1  0.82842700  0.02946100  0.85358400  1
  O  O14  1  0.82649900  0.69061100  0.72146500  1
  O  O15  1  0.17350100  0.19061100  0.77853500  1
  O  O16  1  0.52094700  0.18684800  0.13772300  1
  O  O17  1  0.17350100  0.30938900  0.27853500  1
  O  O18  1  0.17157300  0.52946100  0.64641600  1
  O  O19  1  0.52094700  0.31315200  0.63772300  1
  F  F20  1  0.83603800  0.37864000  0.97267700  1
  F  F21  1  0.16396200  0.87864000  0.52732300  1
  F  F22  1  0.83603800  0.12136000  0.47267700  1
  F  F23  1  0.16396200  0.62136000  0.02732300  1
