# generated using pymatgen
data_RbAl3(P3O10)2
_symmetry_space_group_name_H-M   'P 1'
_cell_length_a   10.02731000
_cell_length_b   13.09319000
_cell_length_c   12.08941300
_cell_angle_alpha   90.00000000
_cell_angle_beta   90.00000000
_cell_angle_gamma   90.00000000
_symmetry_Int_Tables_number   1
_chemical_formula_structural   RbAl3(P3O10)2
_chemical_formula_sum   'Rb4 Al12 P24 O80'
_cell_volume   1587.21268606
_cell_formula_units_Z   4
loop_
 _symmetry_equiv_pos_site_id
 _symmetry_equiv_pos_as_xyz
  1  'x, y, z'
loop_
 _atom_site_type_symbol
 _atom_site_label
 _atom_site_symmetry_multiplicity
 _atom_site_fract_x
 _atom_site_fract_y
 _atom_site_fract_z
 _atom_site_occupancy
  Rb  Rb0  1  0.52200200  0.00000000  0.50000000  1
  Rb  Rb1  1  0.47799800  0.00000000  0.00000000  1
  Rb  Rb2  1  0.02200200  0.50000000  0.50000000  1
  Rb  Rb3  1  0.97799800  0.50000000  0.00000000  1
  Al  Al4  1  0.50000000  0.74642800  0.75000000  1
  Al  Al5  1  0.50000000  0.25357200  0.25000000  1
  Al  Al6  1  0.50000000  0.20782400  0.75000000  1
  Al  Al7  1  0.86795400  0.00000000  0.00000000  1
  Al  Al8  1  0.50000000  0.79217600  0.25000000  1
  Al  Al9  1  0.13204600  0.00000000  0.50000000  1
  Al  Al10  1  0.00000000  0.24642800  0.75000000  1
  Al  Al11  1  0.00000000  0.75357200  0.25000000  1
  Al  Al12  1  0.00000000  0.70782400  0.75000000  1
  Al  Al13  1  0.36795400  0.50000000  0.00000000  1
  Al  Al14  1  0.00000000  0.29217600  0.25000000  1
  Al  Al15  1  0.63204600  0.50000000  0.50000000  1
  P  P16  1  0.55221100  0.29484800  0.98852700  1
  P  P17  1  0.44778900  0.29484800  0.51147300  1
  P  P18  1  0.44778900  0.70515200  0.48852700  1
  P  P19  1  0.23005650  0.13617050  0.18253000  1
  P  P20  1  0.76994350  0.86382950  0.68253000  1
  P  P21  1  0.23655850  0.93175750  0.27709500  1
  P  P22  1  0.23005650  0.86382950  0.81747000  1
  P  P23  1  0.76344150  0.06824250  0.77709500  1
  P  P24  1  0.76344150  0.93175750  0.22290500  1
  P  P25  1  0.55221100  0.70515200  0.01147300  1
  P  P26  1  0.76994350  0.13617050  0.31747000  1
  P  P27  1  0.23655850  0.06824250  0.72290500  1
  P  P28  1  0.05221100  0.79484800  0.98852700  1
  P  P29  1  0.94778900  0.79484800  0.51147300  1
  P  P30  1  0.94778900  0.20515200  0.48852700  1
  P  P31  1  0.73005650  0.63617050  0.18253000  1
  P  P32  1  0.26994350  0.36382950  0.68253000  1
  P  P33  1  0.73655850  0.43175750  0.27709500  1
  P  P34  1  0.73005650  0.36382950  0.81747000  1
  P  P35  1  0.26344150  0.56824250  0.77709500  1
  P  P36  1  0.26344150  0.43175750  0.22290500  1
  P  P37  1  0.05221100  0.20515200  0.01147300  1
  P  P38  1  0.26994350  0.63617050  0.31747000  1
  P  P39  1  0.73655850  0.56824250  0.72290500  1
  O  O40  1  0.24541100  0.00928100  0.61173800  1
  O  O41  1  0.19959750  0.16412450  0.05504300  1
  O  O42  1  0.19959750  0.83587550  0.94495700  1
  O  O43  1  0.80040250  0.16412450  0.44495700  1
  O  O44  1  0.37324450  0.35424850  0.21576000  1
  O  O45  1  0.80040250  0.83587550  0.55504300  1
  O  O46  1  0.62203200  0.14727300  0.29773100  1
  O  O47  1  0.53495400  0.39092400  0.51645300  1
  O  O48  1  0.75458900  0.99071900  0.11173800  1
  O  O49  1  0.19312950  0.98362550  0.81576400  1
  O  O50  1  0.37796800  0.14727300  0.20226900  1
  O  O51  1  0.42758600  0.74664700  0.60334800  1
  O  O52  1  0.24541100  0.99071900  0.38826200  1
  O  O53  1  0.46504600  0.60907600  0.01645300  1
  O  O54  1  0.62675550  0.64575150  0.71576000  1
  O  O55  1  0.51017100  0.21206700  0.90748000  1
  O  O56  1  0.48982900  0.78793300  0.40748000  1
  O  O57  1  0.63592150  0.69150250  0.25766900  1
  O  O58  1  0.37212450  0.10358950  0.76020100  1
  O  O59  1  0.19312950  0.01637450  0.18423600  1
  O  O60  1  0.80687050  0.01637450  0.31576400  1
  O  O61  1  0.37796800  0.85272700  0.79773100  1
  O  O62  1  0.37212450  0.89641050  0.23979900  1
  O  O63  1  0.46504600  0.39092400  0.98354700  1
  O  O64  1  0.37324450  0.64575150  0.78424000  1
  O  O65  1  0.51017100  0.78793300  0.09252000  1
  O  O66  1  0.36407850  0.69150250  0.24233100  1
  O  O67  1  0.62787550  0.89641050  0.26020100  1
  O  O68  1  0.57241400  0.74664700  0.89665200  1
  O  O69  1  0.62675550  0.35424850  0.28424000  1
  O  O70  1  0.57241400  0.25335300  0.10334800  1
  O  O71  1  0.80687050  0.98362550  0.68423600  1
  O  O72  1  0.48982900  0.21206700  0.59252000  1
  O  O73  1  0.53495400  0.60907600  0.48354700  1
  O  O74  1  0.62787550  0.10358950  0.73979900  1
  O  O75  1  0.75458900  0.00928100  0.88826200  1
  O  O76  1  0.62203200  0.85272700  0.70226900  1
  O  O77  1  0.42758600  0.25335300  0.39665200  1
  O  O78  1  0.36407850  0.30849750  0.75766900  1
  O  O79  1  0.63592150  0.30849750  0.74233100  1
  O  O80  1  0.74541100  0.50928100  0.61173800  1
  O  O81  1  0.69959750  0.66412450  0.05504300  1
  O  O82  1  0.69959750  0.33587550  0.94495700  1
  O  O83  1  0.30040250  0.66412450  0.44495700  1
  O  O84  1  0.87324450  0.85424850  0.21576000  1
  O  O85  1  0.30040250  0.33587550  0.55504300  1
  O  O86  1  0.12203200  0.64727300  0.29773100  1
  O  O87  1  0.03495400  0.89092400  0.51645300  1
  O  O88  1  0.25458900  0.49071900  0.11173800  1
  O  O89  1  0.69312950  0.48362550  0.81576400  1
  O  O90  1  0.87796800  0.64727300  0.20226900  1
  O  O91  1  0.92758600  0.24664700  0.60334800  1
  O  O92  1  0.74541100  0.49071900  0.38826200  1
  O  O93  1  0.96504600  0.10907600  0.01645300  1
  O  O94  1  0.12675550  0.14575150  0.71576000  1
  O  O95  1  0.01017100  0.71206700  0.90748000  1
  O  O96  1  0.98982900  0.28793300  0.40748000  1
  O  O97  1  0.13592150  0.19150250  0.25766900  1
  O  O98  1  0.87212450  0.60358950  0.76020100  1
  O  O99  1  0.69312950  0.51637450  0.18423600  1
  O  O100  1  0.30687050  0.51637450  0.31576400  1
  O  O101  1  0.87796800  0.35272700  0.79773100  1
  O  O102  1  0.87212450  0.39641050  0.23979900  1
  O  O103  1  0.96504600  0.89092400  0.98354700  1
  O  O104  1  0.87324450  0.14575150  0.78424000  1
  O  O105  1  0.01017100  0.28793300  0.09252000  1
  O  O106  1  0.86407850  0.19150250  0.24233100  1
  O  O107  1  0.12787550  0.39641050  0.26020100  1
  O  O108  1  0.07241400  0.24664700  0.89665200  1
  O  O109  1  0.12675550  0.85424850  0.28424000  1
  O  O110  1  0.07241400  0.75335300  0.10334800  1
  O  O111  1  0.30687050  0.48362550  0.68423600  1
  O  O112  1  0.98982900  0.71206700  0.59252000  1
  O  O113  1  0.03495400  0.10907600  0.48354700  1
  O  O114  1  0.12787550  0.60358950  0.73979900  1
  O  O115  1  0.25458900  0.50928100  0.88826200  1
  O  O116  1  0.12203200  0.35272700  0.70226900  1
  O  O117  1  0.92758600  0.75335300  0.39665200  1
  O  O118  1  0.86407850  0.80849750  0.75766900  1
  O  O119  1  0.13592150  0.80849750  0.74233100  1
