# generated using pymatgen
data_AlPO4
_symmetry_space_group_name_H-M   'P 1'
_cell_length_a   13.91159822
_cell_length_b   13.91159822
_cell_length_c   15.01870988
_cell_angle_alpha   90.00000000
_cell_angle_beta   90.00000000
_cell_angle_gamma   120.00000000
_symmetry_Int_Tables_number   1
_chemical_formula_structural   AlPO4
_chemical_formula_sum   'Al18 P18 O72'
_cell_volume   2517.19762008
_cell_formula_units_Z   18
loop_
 _symmetry_equiv_pos_site_id
 _symmetry_equiv_pos_as_xyz
  1  'x, y, z'
loop_
 _atom_site_type_symbol
 _atom_site_label
 _atom_site_symmetry_multiplicity
 _atom_site_fract_x
 _atom_site_fract_y
 _atom_site_fract_z
 _atom_site_occupancy
  Al  Al0  1  0.10365667  0.43997433  0.56315033  1
  Al  Al1  1  0.56002567  0.66368233  0.56315033  1
  Al  Al2  1  0.89634333  0.56002567  0.43684967  1
  Al  Al3  1  0.33631767  0.89634333  0.56315033  1
  Al  Al4  1  0.66368233  0.10365667  0.43684967  1
  Al  Al5  1  0.43997433  0.33631767  0.43684967  1
  Al  Al6  1  0.77032333  0.77330767  0.89648367  1
  Al  Al7  1  0.22669233  0.99701567  0.89648367  1
  Al  Al8  1  0.56301000  0.89335900  0.77018300  1
  Al  Al9  1  0.00298433  0.22967667  0.89648367  1
  Al  Al10  1  0.33034900  0.43699000  0.77018300  1
  Al  Al11  1  0.10664100  0.66965100  0.77018300  1
  Al  Al12  1  0.43699000  0.10664100  0.22981700  1
  Al  Al13  1  0.89335900  0.33034900  0.22981700  1
  Al  Al14  1  0.22967667  0.22669233  0.10351633  1
  Al  Al15  1  0.66965100  0.56301000  0.22981700  1
  Al  Al16  1  0.99701567  0.77032333  0.10351633  1
  Al  Al17  1  0.77330767  0.00298433  0.10351633  1
  P  P18  1  0.66999700  0.56244400  0.44109200  1
  P  P19  1  0.10755300  0.66999700  0.55890800  1
  P  P20  1  0.43755600  0.10755300  0.44109200  1
  P  P21  1  0.56244400  0.89244700  0.55890800  1
  P  P22  1  0.89244700  0.33000300  0.44109200  1
  P  P23  1  0.33000300  0.43755600  0.55890800  1
  P  P24  1  0.33666367  0.89577733  0.77442533  1
  P  P25  1  0.77421967  0.00333033  0.89224133  1
  P  P26  1  0.10422267  0.44088633  0.77442533  1
  P  P27  1  0.22911067  0.22578033  0.89224133  1
  P  P28  1  0.55911367  0.66333633  0.77442533  1
  P  P29  1  0.99666967  0.77088933  0.89224133  1
  P  P30  1  0.00333033  0.22911067  0.10775867  1
  P  P31  1  0.44088633  0.33666367  0.22557467  1
  P  P32  1  0.77088933  0.77421967  0.10775867  1
  P  P33  1  0.89577733  0.55911367  0.22557467  1
  P  P34  1  0.22578033  0.99666967  0.10775867  1
  P  P35  1  0.66333633  0.10422267  0.22557467  1
  O  O36  1  0.35673100  0.01019300  0.49976400  1
  O  O37  1  0.98980700  0.34653800  0.49976400  1
  O  O38  1  0.07589433  0.67028767  0.65709767  1
  O  O39  1  0.78129533  0.57188367  0.46592267  1
  O  O40  1  0.89122100  0.80117800  0.12436200  1
  O  O41  1  0.21870467  0.42811633  0.53407733  1
  O  O42  1  0.40560667  0.07589433  0.34290233  1
  O  O43  1  0.32971233  0.40560667  0.65709767  1
  O  O44  1  0.19882200  0.09004300  0.12436200  1
  O  O45  1  0.90995700  0.10877900  0.12436200  1
  O  O46  1  0.01019300  0.65346200  0.50023600  1
  O  O47  1  0.09004300  0.89122100  0.87563800  1
  O  O48  1  0.57188367  0.79058833  0.53407733  1
  O  O49  1  0.34653800  0.35673100  0.50023600  1
  O  O50  1  0.92410567  0.32971233  0.34290233  1
  O  O51  1  0.42811633  0.20941167  0.46592267  1
  O  O52  1  0.67028767  0.59439333  0.34290233  1
  O  O53  1  0.79058833  0.21870467  0.46592267  1
  O  O54  1  0.80117800  0.90995700  0.87563800  1
  O  O55  1  0.10877900  0.19882200  0.87563800  1
  O  O56  1  0.59439333  0.92410567  0.65709767  1
  O  O57  1  0.65346200  0.64326900  0.49976400  1
  O  O58  1  0.64326900  0.98980700  0.50023600  1
  O  O59  1  0.20941167  0.78129533  0.53407733  1
  O  O60  1  0.02339767  0.34352633  0.83309733  1
  O  O61  1  0.65647367  0.67987133  0.83309733  1
  O  O62  1  0.74256100  0.00362100  0.99043100  1
  O  O63  1  0.44796200  0.90521700  0.79925600  1
  O  O64  1  0.55788767  0.13451133  0.45769533  1
  O  O65  1  0.88537133  0.76144967  0.86741067  1
  O  O66  1  0.07227333  0.40922767  0.67623567  1
  O  O67  1  0.99637900  0.73894000  0.99043100  1
  O  O68  1  0.86548867  0.42337633  0.45769533  1
  O  O69  1  0.57662367  0.44211233  0.45769533  1
  O  O70  1  0.67685967  0.98679533  0.83356933  1
  O  O71  1  0.75670967  0.22455433  0.20897133  1
  O  O72  1  0.23855033  0.12392167  0.86741067  1
  O  O73  1  0.01320467  0.69006433  0.83356933  1
  O  O74  1  0.59077233  0.66304567  0.67623567  1
  O  O75  1  0.09478300  0.54274500  0.79925600  1
  O  O76  1  0.33695433  0.92772667  0.67623567  1
  O  O77  1  0.45725500  0.55203800  0.79925600  1
  O  O78  1  0.46784467  0.24329033  0.20897133  1
  O  O79  1  0.77544567  0.53215533  0.20897133  1
  O  O80  1  0.26106000  0.25743900  0.99043100  1
  O  O81  1  0.32012867  0.97660233  0.83309733  1
  O  O82  1  0.30993567  0.32314033  0.83356933  1
  O  O83  1  0.87607833  0.11462867  0.86741067  1
  O  O84  1  0.69006433  0.67685967  0.16643067  1
  O  O85  1  0.32314033  0.01320467  0.16643067  1
  O  O86  1  0.40922767  0.33695433  0.32376433  1
  O  O87  1  0.11462867  0.23855033  0.13258933  1
  O  O88  1  0.22455433  0.46784467  0.79102867  1
  O  O89  1  0.55203800  0.09478300  0.20074400  1
  O  O90  1  0.73894000  0.74256100  0.00956900  1
  O  O91  1  0.66304567  0.07227333  0.32376433  1
  O  O92  1  0.53215533  0.75670967  0.79102867  1
  O  O93  1  0.24329033  0.77544567  0.79102867  1
  O  O94  1  0.34352633  0.32012867  0.16690267  1
  O  O95  1  0.42337633  0.55788767  0.54230467  1
  O  O96  1  0.90521700  0.45725500  0.20074400  1
  O  O97  1  0.67987133  0.02339767  0.16690267  1
  O  O98  1  0.25743900  0.99637900  0.00956900  1
  O  O99  1  0.76144967  0.87607833  0.13258933  1
  O  O100  1  0.00362100  0.26106000  0.00956900  1
  O  O101  1  0.12392167  0.88537133  0.13258933  1
  O  O102  1  0.13451133  0.57662367  0.54230467  1
  O  O103  1  0.44211233  0.86548867  0.54230467  1
  O  O104  1  0.92772667  0.59077233  0.32376433  1
  O  O105  1  0.98679533  0.30993567  0.16643067  1
  O  O106  1  0.97660233  0.65647367  0.16690267  1
  O  O107  1  0.54274500  0.44796200  0.20074400  1
