# generated using pymatgen
data_PbCClO2
_symmetry_space_group_name_H-M   'P 1'
_cell_length_a   6.03397600
_cell_length_b   5.96974800
_cell_length_c   9.51729268
_cell_angle_alpha   90.00000000
_cell_angle_beta   94.94258202
_cell_angle_gamma   90.00000000
_symmetry_Int_Tables_number   1
_chemical_formula_structural   PbCClO2
_chemical_formula_sum   'Pb4 C4 Cl4 O8'
_cell_volume   341.55062574
_cell_formula_units_Z   4
loop_
 _symmetry_equiv_pos_site_id
 _symmetry_equiv_pos_as_xyz
  1  'x, y, z'
loop_
 _atom_site_type_symbol
 _atom_site_label
 _atom_site_symmetry_multiplicity
 _atom_site_fract_x
 _atom_site_fract_y
 _atom_site_fract_z
 _atom_site_occupancy
  Pb  Pb0  1  0.72850200  0.50000000  0.77715000  1
  Pb  Pb1  1  0.27149800  0.50000000  0.22285000  1
  Pb  Pb2  1  0.22850200  0.00000000  0.77715000  1
  Pb  Pb3  1  0.77149800  0.00000000  0.22285000  1
  C  C4  1  0.00000000  0.63042400  0.50000000  1
  C  C5  1  0.00000000  0.36957600  0.50000000  1
  C  C6  1  0.50000000  0.13042400  0.50000000  1
  C  C7  1  0.50000000  0.86957600  0.50000000  1
  Cl  Cl8  1  0.77292300  0.50000000  0.11624500  1
  Cl  Cl9  1  0.22707700  0.50000000  0.88375500  1
  Cl  Cl10  1  0.27292300  0.00000000  0.11624500  1
  Cl  Cl11  1  0.72707700  0.00000000  0.88375500  1
  O  O12  1  0.94263600  0.27149100  0.60947200  1
  O  O13  1  0.05736400  0.27149100  0.39052800  1
  O  O14  1  0.94263600  0.72850900  0.60947200  1
  O  O15  1  0.05736400  0.72850900  0.39052800  1
  O  O16  1  0.44263600  0.77149100  0.60947200  1
  O  O17  1  0.55736400  0.77149100  0.39052800  1
  O  O18  1  0.44263600  0.22850900  0.60947200  1
  O  O19  1  0.55736400  0.22850900  0.39052800  1
