# generated using pymatgen
data_HgNO3
_symmetry_space_group_name_H-M   'P 1'
_cell_length_a   6.37441500
_cell_length_b   8.71823200
_cell_length_c   12.28751821
_cell_angle_alpha   90.00000000
_cell_angle_beta   94.15447298
_cell_angle_gamma   90.00000000
_symmetry_Int_Tables_number   1
_chemical_formula_structural   HgNO3
_chemical_formula_sum   'Hg8 N8 O24'
_cell_volume   681.06765887
_cell_formula_units_Z   8
loop_
 _symmetry_equiv_pos_site_id
 _symmetry_equiv_pos_as_xyz
  1  'x, y, z'
loop_
 _atom_site_type_symbol
 _atom_site_label
 _atom_site_symmetry_multiplicity
 _atom_site_fract_x
 _atom_site_fract_y
 _atom_site_fract_z
 _atom_site_occupancy
  Hg  Hg0  1  0.81988600  0.66180800  0.64068500  1
  Hg  Hg1  1  0.18011400  0.16180800  0.35931500  1
  Hg  Hg2  1  0.80770900  0.04681300  0.32282000  1
  Hg  Hg3  1  0.19229100  0.54681300  0.67718000  1
  Hg  Hg4  1  0.65338600  0.02520100  0.91291900  1
  Hg  Hg5  1  0.34661400  0.52520100  0.08708100  1
  Hg  Hg6  1  0.28022800  0.00739500  0.81690000  1
  Hg  Hg7  1  0.71977200  0.50739500  0.18310000  1
  N  N8  1  0.99703500  0.16312200  0.05987000  1
  N  N9  1  0.00296500  0.66312200  0.94013000  1
  N  N10  1  0.93624400  0.13113400  0.67279100  1
  N  N11  1  0.06375600  0.63113400  0.32720900  1
  N  N12  1  0.53917000  0.39861600  0.82156800  1
  N  N13  1  0.46083000  0.89861600  0.17843200  1
  N  N14  1  0.50149000  0.37867000  0.44670600  1
  N  N15  1  0.49851000  0.87867000  0.55329400  1
  O  O16  1  0.82492000  0.70566900  0.90491900  1
  O  O17  1  0.17508000  0.20566900  0.09508100  1
  O  O18  1  0.82899800  0.20655400  0.09739900  1
  O  O19  1  0.17100200  0.70655400  0.90260100  1
  O  O20  1  0.98482200  0.06362200  0.97836400  1
  O  O21  1  0.01517800  0.56362200  0.02163600  1
  O  O22  1  0.76406800  0.15378700  0.62356900  1
  O  O23  1  0.23593200  0.65378700  0.37643100  1
  O  O24  1  0.90674600  0.71709900  0.32929500  1
  O  O25  1  0.09325400  0.21709900  0.67070500  1
  O  O26  1  0.95803300  0.00321500  0.73381800  1
  O  O27  1  0.04196700  0.50321500  0.26618200  1
  O  O28  1  0.71635900  0.34931500  0.85198400  1
  O  O29  1  0.28364100  0.84931500  0.14801600  1
  O  O30  1  0.37686700  0.37662600  0.87133000  1
  O  O31  1  0.62313300  0.87662600  0.12867000  1
  O  O32  1  0.52124600  0.47748100  0.72925300  1
  O  O33  1  0.47875400  0.97748100  0.27074700  1
  O  O34  1  0.35272700  0.37339500  0.50773800  1
  O  O35  1  0.64727300  0.87339500  0.49226200  1
  O  O36  1  0.65525300  0.46510400  0.45818500  1
  O  O37  1  0.34474700  0.96510400  0.54181500  1
  O  O38  1  0.49187300  0.28346500  0.36162400  1
  O  O39  1  0.50812700  0.78346500  0.63837600  1
