# generated using pymatgen
data_VAgO3
_symmetry_space_group_name_H-M   'P 1'
_cell_length_a   18.57747000
_cell_length_b   3.62014400
_cell_length_c   8.14726611
_cell_angle_alpha   90.00000000
_cell_angle_beta   105.16735465
_cell_angle_gamma   90.00000000
_symmetry_Int_Tables_number   1
_chemical_formula_structural   VAgO3
_chemical_formula_sum   'V8 Ag8 O24'
_cell_volume   528.84232642
_cell_formula_units_Z   8
loop_
 _symmetry_equiv_pos_site_id
 _symmetry_equiv_pos_as_xyz
  1  'x, y, z'
loop_
 _atom_site_type_symbol
 _atom_site_label
 _atom_site_symmetry_multiplicity
 _atom_site_fract_x
 _atom_site_fract_y
 _atom_site_fract_z
 _atom_site_occupancy
  V  V0  1  0.32326300  0.00000000  0.43841600  1
  V  V1  1  0.37486900  0.50000000  0.76988200  1
  V  V2  1  0.17762100  0.50000000  0.56491900  1
  V  V3  1  0.13021100  0.00000000  0.23301000  1
  V  V4  1  0.82326300  0.50000000  0.43841600  1
  V  V5  1  0.87486900  0.00000000  0.76988200  1
  V  V6  1  0.67762100  0.00000000  0.56491900  1
  V  V7  1  0.63021100  0.50000000  0.23301000  1
  Ag  Ag8  1  0.25162100  0.00000000  0.95979100  1
  Ag  Ag9  1  0.00021300  0.00000000  0.49769800  1
  Ag  Ag10  1  0.45137400  0.00000000  0.13658200  1
  Ag  Ag11  1  0.05181100  0.50000000  0.86805000  1
  Ag  Ag12  1  0.75162100  0.50000000  0.95979100  1
  Ag  Ag13  1  0.50021300  0.50000000  0.49769800  1
  Ag  Ag14  1  0.95137400  0.50000000  0.13658200  1
  Ag  Ag15  1  0.55181100  0.00000000  0.86805000  1
  O  O16  1  0.15167500  0.50000000  0.29569200  1
  O  O17  1  0.23805100  0.50000000  0.76587700  1
  O  O18  1  0.40895300  0.00000000  0.40149800  1
  O  O19  1  0.12243700  0.00000000  0.01783000  1
  O  O20  1  0.35148200  0.00000000  0.71140500  1
  O  O21  1  0.38139700  0.50000000  0.98430400  1
  O  O22  1  0.31410500  0.50000000  0.50725300  1
  O  O23  1  0.26135700  0.00000000  0.24346500  1
  O  O24  1  0.18881300  0.00000000  0.50240700  1
  O  O25  1  0.46677100  0.50000000  0.76208300  1
  O  O26  1  0.03779300  0.00000000  0.23882000  1
  O  O27  1  0.09139300  0.50000000  0.59831900  1
  O  O28  1  0.65167500  0.00000000  0.29569200  1
  O  O29  1  0.73805100  0.00000000  0.76587700  1
  O  O30  1  0.90895300  0.50000000  0.40149800  1
  O  O31  1  0.62243700  0.50000000  0.01783000  1
  O  O32  1  0.85148200  0.50000000  0.71140500  1
  O  O33  1  0.88139700  0.00000000  0.98430400  1
  O  O34  1  0.81410500  0.00000000  0.50725300  1
  O  O35  1  0.76135700  0.50000000  0.24346500  1
  O  O36  1  0.68881300  0.50000000  0.50240700  1
  O  O37  1  0.96677100  0.00000000  0.76208300  1
  O  O38  1  0.53779300  0.50000000  0.23882000  1
  O  O39  1  0.59139300  0.00000000  0.59831900  1
