# generated using pymatgen
data_NaHoS2
_symmetry_space_group_name_H-M   'P 1'
_cell_length_a   3.96844178
_cell_length_b   3.96844178
_cell_length_c   19.94385836
_cell_angle_alpha   90.00000000
_cell_angle_beta   90.00000000
_cell_angle_gamma   120.00000000
_symmetry_Int_Tables_number   1
_chemical_formula_structural   NaHoS2
_chemical_formula_sum   'Na3 Ho3 S6'
_cell_volume   272.00684950
_cell_formula_units_Z   3
loop_
 _symmetry_equiv_pos_site_id
 _symmetry_equiv_pos_as_xyz
  1  'x, y, z'
loop_
 _atom_site_type_symbol
 _atom_site_label
 _atom_site_symmetry_multiplicity
 _atom_site_fract_x
 _atom_site_fract_y
 _atom_site_fract_z
 _atom_site_occupancy
  Na  Na0  1  0.33333333  0.66666667  0.16666667  1
  Na  Na1  1  1.00000000  1.00000000  0.50000000  1
  Na  Na2  1  0.66666667  0.33333333  0.83333333  1
  Ho  Ho3  1  0.00000000  0.00000000  0.00000000  1
  Ho  Ho4  1  0.66666667  0.33333333  0.33333333  1
  Ho  Ho5  1  0.33333333  0.66666667  0.66666667  1
  S  S6  1  0.66666667  0.33333333  0.07570333  1
  S  S7  1  0.00000000  0.00000000  0.25763000  1
  S  S8  1  0.33333333  0.66666667  0.40903667  1
  S  S9  1  0.66666667  0.33333333  0.59096333  1
  S  S10  1  0.00000000  0.00000000  0.74237000  1
  S  S11  1  0.33333333  0.66666667  0.92429667  1
