# generated using pymatgen
data_Ba5B3CNO9
_symmetry_space_group_name_H-M   'P 1'
_cell_length_a   10.58452000
_cell_length_b   15.00515600
_cell_length_c   8.09524200
_cell_angle_alpha   90.00000000
_cell_angle_beta   90.00000000
_cell_angle_gamma   90.00000000
_symmetry_Int_Tables_number   1
_chemical_formula_structural   Ba5B3CNO9
_chemical_formula_sum   'Ba20 B12 C4 N4 O36'
_cell_volume   1285.70555081
_cell_formula_units_Z   4
loop_
 _symmetry_equiv_pos_site_id
 _symmetry_equiv_pos_as_xyz
  1  'x, y, z'
loop_
 _atom_site_type_symbol
 _atom_site_label
 _atom_site_symmetry_multiplicity
 _atom_site_fract_x
 _atom_site_fract_y
 _atom_site_fract_z
 _atom_site_occupancy
  Ba  Ba0  1  0.74104400  0.00000000  0.50000000  1
  Ba  Ba1  1  0.25895600  0.00000000  0.00000000  1
  Ba  Ba2  1  0.50000000  0.36157000  0.75000000  1
  Ba  Ba3  1  0.36404400  0.12935200  0.56492600  1
  Ba  Ba4  1  0.50000000  0.64509200  0.75000000  1
  Ba  Ba5  1  0.50000000  0.63843000  0.25000000  1
  Ba  Ba6  1  0.50000000  0.35490800  0.25000000  1
  Ba  Ba7  1  0.63595600  0.12935200  0.93507400  1
  Ba  Ba8  1  0.63595600  0.87064800  0.06492600  1
  Ba  Ba9  1  0.36404400  0.87064800  0.43507400  1
  Ba  Ba10  1  0.24104400  0.50000000  0.50000000  1
  Ba  Ba11  1  0.75895600  0.50000000  0.00000000  1
  Ba  Ba12  1  0.00000000  0.86157000  0.75000000  1
  Ba  Ba13  1  0.86404400  0.62935200  0.56492600  1
  Ba  Ba14  1  0.00000000  0.14509200  0.75000000  1
  Ba  Ba15  1  0.00000000  0.13843000  0.25000000  1
  Ba  Ba16  1  0.00000000  0.85490800  0.25000000  1
  Ba  Ba17  1  0.13595600  0.62935200  0.93507400  1
  Ba  Ba18  1  0.13595600  0.37064800  0.06492600  1
  Ba  Ba19  1  0.86404400  0.37064800  0.43507400  1
  B  B20  1  0.30516100  0.20981400  0.96837900  1
  B  B21  1  0.12736300  0.00000000  0.50000000  1
  B  B22  1  0.87263700  0.00000000  0.00000000  1
  B  B23  1  0.30516100  0.79018600  0.03162100  1
  B  B24  1  0.69483900  0.20981400  0.53162100  1
  B  B25  1  0.69483900  0.79018600  0.46837900  1
  B  B26  1  0.80516100  0.70981400  0.96837900  1
  B  B27  1  0.62736300  0.50000000  0.50000000  1
  B  B28  1  0.37263700  0.50000000  0.00000000  1
  B  B29  1  0.80516100  0.29018600  0.03162100  1
  B  B30  1  0.19483900  0.70981400  0.53162100  1
  B  B31  1  0.19483900  0.29018600  0.46837900  1
  C  C32  1  0.50000000  0.11576800  0.25000000  1
  C  C33  1  0.50000000  0.88423200  0.75000000  1
  C  C34  1  0.00000000  0.61576800  0.25000000  1
  C  C35  1  0.00000000  0.38423200  0.75000000  1
  N  N36  1  0.50000000  0.03695400  0.25000000  1
  N  N37  1  0.50000000  0.96304600  0.75000000  1
  N  N38  1  0.00000000  0.53695400  0.25000000  1
  N  N39  1  0.00000000  0.46304600  0.75000000  1
  O  O40  1  0.67996250  0.68790950  0.01073600  1
  O  O41  1  0.67996250  0.31209050  0.98926400  1
  O  O42  1  0.35503000  0.29295300  0.00786500  1
  O  O43  1  0.62138850  0.85144850  0.38215100  1
  O  O44  1  0.99467300  0.00000000  0.50000000  1
  O  O45  1  0.64497000  0.29295300  0.49213500  1
  O  O46  1  0.37861150  0.14855150  0.88215100  1
  O  O47  1  0.62138850  0.14855150  0.61784900  1
  O  O48  1  0.80853950  0.00082150  0.15078000  1
  O  O49  1  0.19146050  0.99917850  0.65078000  1
  O  O50  1  0.00532700  0.00000000  0.00000000  1
  O  O51  1  0.35503000  0.70704700  0.99213500  1
  O  O52  1  0.32003750  0.31209050  0.51073600  1
  O  O53  1  0.32003750  0.68790950  0.48926400  1
  O  O54  1  0.80853950  0.99917850  0.84922000  1
  O  O55  1  0.64497000  0.70704700  0.50786500  1
  O  O56  1  0.19146050  0.00082150  0.34922000  1
  O  O57  1  0.37861150  0.85144850  0.11784900  1
  O  O58  1  0.17996250  0.18790950  0.01073600  1
  O  O59  1  0.17996250  0.81209050  0.98926400  1
  O  O60  1  0.85503000  0.79295300  0.00786500  1
  O  O61  1  0.12138850  0.35144850  0.38215100  1
  O  O62  1  0.49467300  0.50000000  0.50000000  1
  O  O63  1  0.14497000  0.79295300  0.49213500  1
  O  O64  1  0.87861150  0.64855150  0.88215100  1
  O  O65  1  0.12138850  0.64855150  0.61784900  1
  O  O66  1  0.30853950  0.50082150  0.15078000  1
  O  O67  1  0.69146050  0.49917850  0.65078000  1
  O  O68  1  0.50532700  0.50000000  0.00000000  1
  O  O69  1  0.85503000  0.20704700  0.99213500  1
  O  O70  1  0.82003750  0.81209050  0.51073600  1
  O  O71  1  0.82003750  0.18790950  0.48926400  1
  O  O72  1  0.30853950  0.49917850  0.84922000  1
  O  O73  1  0.14497000  0.20704700  0.50786500  1
  O  O74  1  0.69146050  0.50082150  0.34922000  1
  O  O75  1  0.87861150  0.35144850  0.11784900  1
