# generated using pymatgen
data_Sr4GaN3O
_symmetry_space_group_name_H-M   'P 1'
_cell_length_a   7.42017400
_cell_length_b   7.44376300
_cell_length_c   23.86221400
_cell_angle_alpha   90.00000000
_cell_angle_beta   90.00000000
_cell_angle_gamma   90.00000000
_symmetry_Int_Tables_number   1
_chemical_formula_structural   Sr4GaN3O
_chemical_formula_sum   'Sr32 Ga8 N24 O8'
_cell_volume   1318.00592597
_cell_formula_units_Z   8
loop_
 _symmetry_equiv_pos_site_id
 _symmetry_equiv_pos_as_xyz
  1  'x, y, z'
loop_
 _atom_site_type_symbol
 _atom_site_label
 _atom_site_symmetry_multiplicity
 _atom_site_fract_x
 _atom_site_fract_y
 _atom_site_fract_z
 _atom_site_occupancy
  Sr  Sr0  1  0.26019700  0.53977500  0.75422900  1
  Sr  Sr1  1  0.85754100  0.96746200  0.93842900  1
  Sr  Sr2  1  0.15954000  0.86376600  0.43878000  1
  Sr  Sr3  1  0.26019700  0.96022500  0.25422900  1
  Sr  Sr4  1  0.64245900  0.03253800  0.43842900  1
  Sr  Sr5  1  0.34046000  0.13623400  0.93878000  1
  Sr  Sr6  1  0.23980300  0.46022500  0.25422900  1
  Sr  Sr7  1  0.99118600  0.29597300  0.85463100  1
  Sr  Sr8  1  0.00881400  0.70402700  0.14536900  1
  Sr  Sr9  1  0.34046000  0.36376600  0.43878000  1
  Sr  Sr10  1  0.00881400  0.79597300  0.64536900  1
  Sr  Sr11  1  0.76019700  0.53977500  0.74577100  1
  Sr  Sr12  1  0.99118600  0.20402700  0.35463100  1
  Sr  Sr13  1  0.49118600  0.29597300  0.64536900  1
  Sr  Sr14  1  0.23980300  0.03977500  0.75422900  1
  Sr  Sr15  1  0.14245900  0.46746200  0.56157100  1
  Sr  Sr16  1  0.15954000  0.63623400  0.93878000  1
  Sr  Sr17  1  0.64245900  0.46746200  0.93842900  1
  Sr  Sr18  1  0.73980300  0.46022500  0.24577100  1
  Sr  Sr19  1  0.50881400  0.70402700  0.35463100  1
  Sr  Sr20  1  0.65954000  0.86376600  0.06122000  1
  Sr  Sr21  1  0.50881400  0.79597300  0.85463100  1
  Sr  Sr22  1  0.35754100  0.96746200  0.56157100  1
  Sr  Sr23  1  0.65954000  0.63623400  0.56122000  1
  Sr  Sr24  1  0.85754100  0.53253800  0.43842900  1
  Sr  Sr25  1  0.35754100  0.53253800  0.06157100  1
  Sr  Sr26  1  0.49118600  0.20402700  0.14536900  1
  Sr  Sr27  1  0.84046000  0.13623400  0.56122000  1
  Sr  Sr28  1  0.73980300  0.03977500  0.74577100  1
  Sr  Sr29  1  0.84046000  0.36376600  0.06122000  1
  Sr  Sr30  1  0.14245900  0.03253800  0.06157100  1
  Sr  Sr31  1  0.76019700  0.96022500  0.24577100  1
  Ga  Ga32  1  0.50509500  0.28779500  0.82857200  1
  Ga  Ga33  1  0.49490500  0.71220500  0.17142800  1
  Ga  Ga34  1  0.50509500  0.21220500  0.32857200  1
  Ga  Ga35  1  0.49490500  0.78779500  0.67142800  1
  Ga  Ga36  1  0.00509500  0.21220500  0.17142800  1
  Ga  Ga37  1  0.99490500  0.71220500  0.32857200  1
  Ga  Ga38  1  0.99490500  0.78779500  0.82857200  1
  Ga  Ga39  1  0.00509500  0.28779500  0.67142800  1
  N  N40  1  0.15333600  0.93565200  0.87307900  1
  N  N41  1  0.00174100  0.20772300  0.25085600  1
  N  N42  1  0.84621900  0.63050900  0.87206000  1
  N  N43  1  0.65378100  0.36949100  0.37206000  1
  N  N44  1  0.49825900  0.70772300  0.25085600  1
  N  N45  1  0.99825900  0.79227700  0.74914400  1
  N  N46  1  0.15378100  0.13050900  0.62794000  1
  N  N47  1  0.50174100  0.29227700  0.74914400  1
  N  N48  1  0.50174100  0.20772300  0.24914400  1
  N  N49  1  0.84621900  0.86949100  0.37206000  1
  N  N50  1  0.99825900  0.70772300  0.24914400  1
  N  N51  1  0.84666400  0.43565200  0.62692100  1
  N  N52  1  0.00174100  0.29227700  0.75085600  1
  N  N53  1  0.15333600  0.56434800  0.37307900  1
  N  N54  1  0.49825900  0.79227700  0.75085600  1
  N  N55  1  0.65378100  0.13050900  0.87206000  1
  N  N56  1  0.84666400  0.06434800  0.12692100  1
  N  N57  1  0.34666400  0.43565200  0.87307900  1
  N  N58  1  0.15378100  0.36949100  0.12794000  1
  N  N59  1  0.34666400  0.06434800  0.37307900  1
  N  N60  1  0.34621900  0.63050900  0.62794000  1
  N  N61  1  0.65333600  0.56434800  0.12692100  1
  N  N62  1  0.34621900  0.86949100  0.12794000  1
  N  N63  1  0.65333600  0.93565200  0.62692100  1
  O  O64  1  0.52273500  0.26244000  0.02444400  1
  O  O65  1  0.97726500  0.76244000  0.02444400  1
  O  O66  1  0.47726500  0.73756000  0.97555600  1
  O  O67  1  0.02273500  0.23756000  0.97555600  1
  O  O68  1  0.52273500  0.23756000  0.52444400  1
  O  O69  1  0.02273500  0.26244000  0.47555600  1
  O  O70  1  0.97726500  0.73756000  0.52444400  1
  O  O71  1  0.47726500  0.76244000  0.47555600  1
