# generated using pymatgen
data_Al(HO)3
_symmetry_space_group_name_H-M   'P 1'
_cell_length_a   4.95956200
_cell_length_b   5.14807988
_cell_length_c   5.19558482
_cell_angle_alpha   103.44678532
_cell_angle_beta   98.72321195
_cell_angle_gamma   118.00210368
_symmetry_Int_Tables_number   1
_chemical_formula_structural   Al(HO)3
_chemical_formula_sum   'Al2 H6 O6'
_cell_volume   108.53178579
_cell_formula_units_Z   2
loop_
 _symmetry_equiv_pos_site_id
 _symmetry_equiv_pos_as_xyz
  1  'x, y, z'
loop_
 _atom_site_type_symbol
 _atom_site_label
 _atom_site_symmetry_multiplicity
 _atom_site_fract_x
 _atom_site_fract_y
 _atom_site_fract_z
 _atom_site_occupancy
  Al  Al0  1  0.84787300  0.68849000  0.00174400  1
  Al  Al1  1  0.17023500  0.33083900  0.99935400  1
  H  H2  1  0.52211700  0.87968100  0.21573400  1
  H  H3  1  0.28791800  0.17848700  0.41843700  1
  H  H4  1  0.07921500  0.55447000  0.61481100  1
  H  H5  1  0.75406500  0.31981900  0.23770500  1
  H  H6  1  0.46977800  0.11846900  0.77345000  1
  H  H7  1  0.72454400  0.84494300  0.59189100  1
  O  O8  1  0.43826800  0.29425000  0.78381100  1
  O  O9  1  0.95840600  0.47876000  0.22822200  1
  O  O10  1  0.06533600  0.54896100  0.79986100  1
  O  O11  1  0.23128700  0.09466500  0.21278800  1
  O  O12  1  0.57810500  0.72260500  0.22513000  1
  O  O13  1  0.79795200  0.92856100  0.79826300  1
