# generated using pymatgen
data_K2Nb3Cl7O5
_symmetry_space_group_name_H-M   'P 1'
_cell_length_a   17.08850800
_cell_length_b   8.99939600
_cell_length_c   11.31733892
_cell_angle_alpha   90.00000000
_cell_angle_beta   112.84070979
_cell_angle_gamma   90.00000000
_symmetry_Int_Tables_number   1
_chemical_formula_structural   K2Nb3Cl7O5
_chemical_formula_sum   'K8 Nb12 Cl28 O20'
_cell_volume   1603.97813646
_cell_formula_units_Z   4
loop_
 _symmetry_equiv_pos_site_id
 _symmetry_equiv_pos_as_xyz
  1  'x, y, z'
loop_
 _atom_site_type_symbol
 _atom_site_label
 _atom_site_symmetry_multiplicity
 _atom_site_fract_x
 _atom_site_fract_y
 _atom_site_fract_z
 _atom_site_occupancy
  K  K0  1  0.20447550  0.96570650  0.85671800  1
  K  K1  1  0.29552450  0.46570650  0.64328200  1
  K  K2  1  0.20447550  0.03429350  0.35671800  1
  K  K3  1  0.29552450  0.53429350  0.14328200  1
  K  K4  1  0.70447550  0.46570650  0.85671800  1
  K  K5  1  0.79552450  0.96570650  0.64328200  1
  K  K6  1  0.70447550  0.53429350  0.35671800  1
  K  K7  1  0.79552450  0.03429350  0.14328200  1
  Nb  Nb8  1  0.00289550  0.21158350  0.97289800  1
  Nb  Nb9  1  0.00289550  0.78841650  0.47289800  1
  Nb  Nb10  1  0.49710450  0.28841650  0.02710200  1
  Nb  Nb11  1  0.00000000  0.46298700  0.25000000  1
  Nb  Nb12  1  0.00000000  0.53701300  0.75000000  1
  Nb  Nb13  1  0.49710450  0.71158350  0.52710200  1
  Nb  Nb14  1  0.50289550  0.71158350  0.97289800  1
  Nb  Nb15  1  0.50289550  0.28841650  0.47289800  1
  Nb  Nb16  1  0.99710450  0.78841650  0.02710200  1
  Nb  Nb17  1  0.50000000  0.96298700  0.25000000  1
  Nb  Nb18  1  0.50000000  0.03701300  0.75000000  1
  Nb  Nb19  1  0.99710450  0.21158350  0.52710200  1
  Cl  Cl20  1  0.15215800  0.78614000  0.13403900  1
  Cl  Cl21  1  0.34784200  0.28614000  0.36596100  1
  Cl  Cl22  1  0.34323700  0.29374900  0.95377300  1
  Cl  Cl23  1  0.15215800  0.21386000  0.63403900  1
  Cl  Cl24  1  0.15198100  0.57505100  0.83867900  1
  Cl  Cl25  1  0.00000000  0.09017600  0.75000000  1
  Cl  Cl26  1  0.15676300  0.79374900  0.54622700  1
  Cl  Cl27  1  0.15676300  0.20625100  0.04622700  1
  Cl  Cl28  1  0.34801900  0.07505100  0.66132100  1
  Cl  Cl29  1  0.34323700  0.70625100  0.45377300  1
  Cl  Cl30  1  0.00000000  0.90982400  0.25000000  1
  Cl  Cl31  1  0.34801900  0.92494900  0.16132100  1
  Cl  Cl32  1  0.15198100  0.42494900  0.33867900  1
  Cl  Cl33  1  0.34784200  0.71386000  0.86596100  1
  Cl  Cl34  1  0.65215800  0.28614000  0.13403900  1
  Cl  Cl35  1  0.84784200  0.78614000  0.36596100  1
  Cl  Cl36  1  0.84323700  0.79374900  0.95377300  1
  Cl  Cl37  1  0.65215800  0.71386000  0.63403900  1
  Cl  Cl38  1  0.65198100  0.07505100  0.83867900  1
  Cl  Cl39  1  0.50000000  0.59017600  0.75000000  1
  Cl  Cl40  1  0.65676300  0.29374900  0.54622700  1
  Cl  Cl41  1  0.65676300  0.70625100  0.04622700  1
  Cl  Cl42  1  0.84801900  0.57505100  0.66132100  1
  Cl  Cl43  1  0.84323700  0.20625100  0.45377300  1
  Cl  Cl44  1  0.50000000  0.40982400  0.25000000  1
  Cl  Cl45  1  0.84801900  0.42494900  0.16132100  1
  Cl  Cl46  1  0.65198100  0.92494900  0.33867900  1
  Cl  Cl47  1  0.84784200  0.21386000  0.86596100  1
  O  O48  1  0.00227050  0.60112750  0.37459300  1
  O  O49  1  0.49774950  0.21337550  0.87897400  1
  O  O50  1  0.00225050  0.71337550  0.62102600  1
  O  O51  1  0.00225050  0.28662450  0.12102600  1
  O  O52  1  0.49772950  0.89887250  0.62540700  1
  O  O53  1  0.00000000  0.00000000  0.00000000  1
  O  O54  1  0.49774950  0.78662450  0.37897400  1
  O  O55  1  0.00227050  0.39887250  0.87459300  1
  O  O56  1  0.49772950  0.10112750  0.12540700  1
  O  O57  1  0.00000000  0.00000000  0.50000000  1
  O  O58  1  0.50227050  0.10112750  0.37459300  1
  O  O59  1  0.99774950  0.71337550  0.87897400  1
  O  O60  1  0.50225050  0.21337550  0.62102600  1
  O  O61  1  0.50225050  0.78662450  0.12102600  1
  O  O62  1  0.99772950  0.39887250  0.62540700  1
  O  O63  1  0.50000000  0.50000000  0.00000000  1
  O  O64  1  0.99774950  0.28662450  0.37897400  1
  O  O65  1  0.50227050  0.89887250  0.87459300  1
  O  O66  1  0.99772950  0.60112750  0.12540700  1
  O  O67  1  0.50000000  0.50000000  0.50000000  1
