# generated using pymatgen
data_Li2Mo(PO4)2
_symmetry_space_group_name_H-M   'P 1'
_cell_length_a   5.00936500
_cell_length_b   8.74937500
_cell_length_c   6.92497293
_cell_angle_alpha   90.00000000
_cell_angle_beta   95.94363272
_cell_angle_gamma   90.00000000
_symmetry_Int_Tables_number   1
_chemical_formula_structural   Li2Mo(PO4)2
_chemical_formula_sum   'Li4 Mo2 P4 O16'
_cell_volume   301.88173072
_cell_formula_units_Z   2
loop_
 _symmetry_equiv_pos_site_id
 _symmetry_equiv_pos_as_xyz
  1  'x, y, z'
loop_
 _atom_site_type_symbol
 _atom_site_label
 _atom_site_symmetry_multiplicity
 _atom_site_fract_x
 _atom_site_fract_y
 _atom_site_fract_z
 _atom_site_occupancy
  Li  Li0  1  0.25041100  0.36324400  0.90403300  1
  Li  Li1  1  0.75050200  0.50724400  0.73816900  1
  Li  Li2  1  0.74958900  0.86324400  0.09596700  1
  Li  Li3  1  0.24949800  0.00724400  0.26183100  1
  Mo  Mo4  1  0.24029100  0.00025600  0.73902800  1
  Mo  Mo5  1  0.75970900  0.50025600  0.26097200  1
  P  P6  1  0.29713800  0.31967000  0.48216500  1
  P  P7  1  0.70286200  0.81967000  0.51783500  1
  P  P8  1  0.78794600  0.17647800  0.97949900  1
  P  P9  1  0.21205400  0.67647800  0.02050100  1
  O  O10  1  0.51873200  0.63731000  0.06981000  1
  O  O11  1  0.81247300  0.35172200  0.02344200  1
  O  O12  1  0.09698900  0.57618400  0.85524700  1
  O  O13  1  0.56683700  0.86096700  0.70496400  1
  O  O14  1  0.99720900  0.37601400  0.44792800  1
  O  O15  1  0.70847100  0.64202300  0.50100500  1
  O  O16  1  0.94201300  0.15493100  0.79506800  1
  O  O17  1  0.00279100  0.87601400  0.55207200  1
  O  O18  1  0.05798700  0.65493100  0.20493200  1
  O  O19  1  0.48126800  0.13731000  0.93019000  1
  O  O20  1  0.90301100  0.07618400  0.14475300  1
  O  O21  1  0.56716300  0.88965700  0.33394100  1
  O  O22  1  0.43283700  0.38965700  0.66605900  1
  O  O23  1  0.29152900  0.14202300  0.49899500  1
  O  O24  1  0.18752700  0.85172200  0.97655800  1
  O  O25  1  0.43316300  0.36096700  0.29503600  1
