# generated using pymatgen
data_Ga3Pb5F19
_symmetry_space_group_name_H-M   'P 1'
_cell_length_a   14.55578800
_cell_length_b   14.55578800
_cell_length_c   7.83380000
_cell_angle_alpha   90.00000000
_cell_angle_beta   90.00000000
_cell_angle_gamma   90.00000000
_symmetry_Int_Tables_number   1
_chemical_formula_structural   Ga3Pb5F19
_chemical_formula_sum   'Ga12 Pb20 F76'
_cell_volume   1659.75476014
_cell_formula_units_Z   4
loop_
 _symmetry_equiv_pos_site_id
 _symmetry_equiv_pos_as_xyz
  1  'x, y, z'
loop_
 _atom_site_type_symbol
 _atom_site_label
 _atom_site_symmetry_multiplicity
 _atom_site_fract_x
 _atom_site_fract_y
 _atom_site_fract_z
 _atom_site_occupancy
  Ga  Ga0  1  0.00000000  0.00000000  0.33032400  1
  Ga  Ga1  1  0.66071550  0.16071550  0.52726550  1
  Ga  Ga2  1  0.00000000  0.00000000  0.83032400  1
  Ga  Ga3  1  0.33928450  0.83928450  0.52726550  1
  Ga  Ga4  1  0.66071550  0.83928450  0.02726550  1
  Ga  Ga5  1  0.33928450  0.16071550  0.02726550  1
  Ga  Ga6  1  0.50000000  0.50000000  0.83032400  1
  Ga  Ga7  1  0.16071550  0.66071550  0.02726550  1
  Ga  Ga8  1  0.50000000  0.50000000  0.33032400  1
  Ga  Ga9  1  0.83928450  0.33928450  0.02726550  1
  Ga  Ga10  1  0.16071550  0.33928450  0.52726550  1
  Ga  Ga11  1  0.83928450  0.66071550  0.52726550  1
  Pb  Pb12  1  0.22683850  0.07135750  0.47609450  1
  Pb  Pb13  1  0.77316150  0.92864250  0.47609450  1
  Pb  Pb14  1  0.22683850  0.92864250  0.97609450  1
  Pb  Pb15  1  0.50000000  0.00000000  0.86875600  1
  Pb  Pb16  1  0.42864250  0.72683850  0.97609450  1
  Pb  Pb17  1  0.57135750  0.72683850  0.47609450  1
  Pb  Pb18  1  0.42864250  0.27316150  0.47609450  1
  Pb  Pb19  1  0.77316150  0.07135750  0.97609450  1
  Pb  Pb20  1  0.50000000  0.00000000  0.36875600  1
  Pb  Pb21  1  0.57135750  0.27316150  0.97609450  1
  Pb  Pb22  1  0.72683850  0.57135750  0.97609450  1
  Pb  Pb23  1  0.27316150  0.42864250  0.97609450  1
  Pb  Pb24  1  0.72683850  0.42864250  0.47609450  1
  Pb  Pb25  1  0.00000000  0.50000000  0.36875600  1
  Pb  Pb26  1  0.92864250  0.22683850  0.47609450  1
  Pb  Pb27  1  0.07135750  0.22683850  0.97609450  1
  Pb  Pb28  1  0.92864250  0.77316150  0.97609450  1
  Pb  Pb29  1  0.27316150  0.57135750  0.47609450  1
  Pb  Pb30  1  0.00000000  0.50000000  0.86875600  1
  Pb  Pb31  1  0.07135750  0.77316150  0.47609450  1
  F  F32  1  0.38417050  0.88417050  0.98280850  1
  F  F33  1  0.25192850  0.75192850  0.45470150  1
  F  F34  1  0.57341500  0.92658500  0.11612500  1
  F  F35  1  0.42658500  0.07341500  0.11612500  1
  F  F36  1  0.75162950  0.10666750  0.67892650  1
  F  F37  1  0.56496300  0.19260700  0.36401900  1
  F  F38  1  0.42658500  0.92658500  0.61612500  1
  F  F39  1  0.43503700  0.80739300  0.36401900  1
  F  F40  1  0.00000000  0.00000000  0.08495600  1
  F  F41  1  0.88272700  0.05716700  0.34075000  1
  F  F42  1  0.60666750  0.25162950  0.67892650  1
  F  F43  1  0.61582950  0.11582950  0.98280850  1
  F  F44  1  0.69260700  0.06496300  0.36401900  1
  F  F45  1  0.60666750  0.74837050  0.17892650  1
  F  F46  1  0.11727300  0.94283300  0.34075000  1
  F  F47  1  0.24837050  0.10666750  0.17892650  1
  F  F48  1  0.55716700  0.38272700  0.34075000  1
  F  F49  1  0.75162950  0.89333250  0.17892650  1
  F  F50  1  0.69260700  0.93503700  0.86401900  1
  F  F51  1  0.55716700  0.61727300  0.84075000  1
  F  F52  1  0.74807150  0.75192850  0.95470150  1
  F  F53  1  0.74807150  0.24807150  0.45470150  1
  F  F54  1  0.44283300  0.38272700  0.84075000  1
  F  F55  1  0.30739300  0.93503700  0.36401900  1
  F  F56  1  0.24837050  0.89333250  0.67892650  1
  F  F57  1  0.00000000  0.00000000  0.58495600  1
  F  F58  1  0.57341500  0.07341500  0.61612500  1
  F  F59  1  0.25192850  0.24807150  0.95470150  1
  F  F60  1  0.61582950  0.88417050  0.48280850  1
  F  F61  1  0.39333250  0.25162950  0.17892650  1
  F  F62  1  0.88272700  0.94283300  0.84075000  1
  F  F63  1  0.44283300  0.61727300  0.34075000  1
  F  F64  1  0.11727300  0.05716700  0.84075000  1
  F  F65  1  0.30739300  0.06496300  0.86401900  1
  F  F66  1  0.38417050  0.11582950  0.48280850  1
  F  F67  1  0.43503700  0.19260700  0.86401900  1
  F  F68  1  0.39333250  0.74837050  0.67892650  1
  F  F69  1  0.56496300  0.80739300  0.86401900  1
  F  F70  1  0.88417050  0.38417050  0.48280850  1
  F  F71  1  0.75192850  0.25192850  0.95470150  1
  F  F72  1  0.07341500  0.42658500  0.61612500  1
  F  F73  1  0.92658500  0.57341500  0.61612500  1
  F  F74  1  0.25162950  0.60666750  0.17892650  1
  F  F75  1  0.06496300  0.69260700  0.86401900  1
  F  F76  1  0.92658500  0.42658500  0.11612500  1
  F  F77  1  0.93503700  0.30739300  0.86401900  1
  F  F78  1  0.50000000  0.50000000  0.58495600  1
  F  F79  1  0.38272700  0.55716700  0.84075000  1
  F  F80  1  0.10666750  0.75162950  0.17892650  1
  F  F81  1  0.11582950  0.61582950  0.48280850  1
  F  F82  1  0.19260700  0.56496300  0.86401900  1
  F  F83  1  0.10666750  0.24837050  0.67892650  1
  F  F84  1  0.61727300  0.44283300  0.84075000  1
  F  F85  1  0.74837050  0.60666750  0.67892650  1
  F  F86  1  0.05716700  0.88272700  0.84075000  1
  F  F87  1  0.25162950  0.39333250  0.67892650  1
  F  F88  1  0.19260700  0.43503700  0.36401900  1
  F  F89  1  0.05716700  0.11727300  0.34075000  1
  F  F90  1  0.24807150  0.25192850  0.45470150  1
  F  F91  1  0.24807150  0.74807150  0.95470150  1
  F  F92  1  0.94283300  0.88272700  0.34075000  1
  F  F93  1  0.80739300  0.43503700  0.86401900  1
  F  F94  1  0.74837050  0.39333250  0.17892650  1
  F  F95  1  0.50000000  0.50000000  0.08495600  1
  F  F96  1  0.07341500  0.57341500  0.11612500  1
  F  F97  1  0.75192850  0.74807150  0.45470150  1
  F  F98  1  0.11582950  0.38417050  0.98280850  1
  F  F99  1  0.89333250  0.75162950  0.67892650  1
  F  F100  1  0.38272700  0.44283300  0.34075000  1
  F  F101  1  0.94283300  0.11727300  0.84075000  1
  F  F102  1  0.61727300  0.55716700  0.34075000  1
  F  F103  1  0.80739300  0.56496300  0.36401900  1
  F  F104  1  0.88417050  0.61582950  0.98280850  1
  F  F105  1  0.93503700  0.69260700  0.36401900  1
  F  F106  1  0.89333250  0.24837050  0.17892650  1
  F  F107  1  0.06496300  0.30739300  0.36401900  1
