# generated using pymatgen
data_NaH2ClO5
_symmetry_space_group_name_H-M   'P 1'
_cell_length_a   16.07400200
_cell_length_b   5.55014600
_cell_length_c   11.09448897
_cell_angle_alpha   90.00000000
_cell_angle_beta   110.21764818
_cell_angle_gamma   90.00000000
_symmetry_Int_Tables_number   1
_chemical_formula_structural   NaH2ClO5
_chemical_formula_sum   'Na8 H16 Cl8 O40'
_cell_volume   928.79000880
_cell_formula_units_Z   8
loop_
 _symmetry_equiv_pos_site_id
 _symmetry_equiv_pos_as_xyz
  1  'x, y, z'
loop_
 _atom_site_type_symbol
 _atom_site_label
 _atom_site_symmetry_multiplicity
 _atom_site_fract_x
 _atom_site_fract_y
 _atom_site_fract_z
 _atom_site_occupancy
  Na  Na0  1  0.25000000  0.75000000  0.50000000  1
  Na  Na1  1  0.25000000  0.25000000  0.00000000  1
  Na  Na2  1  0.00000000  0.46547700  0.75000000  1
  Na  Na3  1  0.00000000  0.53452300  0.25000000  1
  Na  Na4  1  0.75000000  0.25000000  0.50000000  1
  Na  Na5  1  0.75000000  0.75000000  0.00000000  1
  Na  Na6  1  0.50000000  0.96547700  0.75000000  1
  Na  Na7  1  0.50000000  0.03452300  0.25000000  1
  H  H8  1  0.10712250  0.53849250  0.02222900  1
  H  H9  1  0.39287750  0.03849250  0.47777100  1
  H  H10  1  0.39287750  0.96150750  0.97777100  1
  H  H11  1  0.10712250  0.46150750  0.52222900  1
  H  H12  1  0.14365150  0.69078350  0.93379500  1
  H  H13  1  0.35634850  0.19078350  0.56620500  1
  H  H14  1  0.35634850  0.80921650  0.06620500  1
  H  H15  1  0.14365150  0.30921650  0.43379500  1
  H  H16  1  0.60712250  0.03849250  0.02222900  1
  H  H17  1  0.89287750  0.53849250  0.47777100  1
  H  H18  1  0.89287750  0.46150750  0.97777100  1
  H  H19  1  0.60712250  0.96150750  0.52222900  1
  H  H20  1  0.64365150  0.19078350  0.93379500  1
  H  H21  1  0.85634850  0.69078350  0.56620500  1
  H  H22  1  0.85634850  0.30921650  0.06620500  1
  H  H23  1  0.64365150  0.80921650  0.43379500  1
  Cl  Cl24  1  0.37391300  0.47234700  0.80583500  1
  Cl  Cl25  1  0.12608700  0.97234700  0.69416500  1
  Cl  Cl26  1  0.12608700  0.02765300  0.19416500  1
  Cl  Cl27  1  0.37391300  0.52765300  0.30583500  1
  Cl  Cl28  1  0.87391300  0.97234700  0.80583500  1
  Cl  Cl29  1  0.62608700  0.47234700  0.69416500  1
  Cl  Cl30  1  0.62608700  0.52765300  0.19416500  1
  Cl  Cl31  1  0.87391300  0.02765300  0.30583500  1
  O  O32  1  0.33444000  0.47464100  0.66514000  1
  O  O33  1  0.16556000  0.97464100  0.83486000  1
  O  O34  1  0.16556000  0.02535900  0.33486000  1
  O  O35  1  0.33444000  0.52535900  0.16514000  1
  O  O36  1  0.30455300  0.48627100  0.86175900  1
  O  O37  1  0.19544700  0.98627100  0.63824100  1
  O  O38  1  0.19544700  0.01372900  0.13824100  1
  O  O39  1  0.30455300  0.51372900  0.36175900  1
  O  O40  1  0.43276700  0.68003900  0.84848200  1
  O  O41  1  0.06723300  0.18003900  0.65151800  1
  O  O42  1  0.06723300  0.81996100  0.15151800  1
  O  O43  1  0.43276700  0.31996100  0.34848200  1
  O  O44  1  0.42492050  0.25075750  0.84630900  1
  O  O45  1  0.07507950  0.75075750  0.65369100  1
  O  O46  1  0.07507950  0.24924250  0.15369100  1
  O  O47  1  0.42492050  0.74924250  0.34630900  1
  O  O48  1  0.12592050  0.52679950  0.94749300  1
  O  O49  1  0.37407950  0.02679950  0.55250700  1
  O  O50  1  0.37407950  0.97320050  0.05250700  1
  O  O51  1  0.12592050  0.47320050  0.44749300  1
  O  O52  1  0.83444000  0.97464100  0.66514000  1
  O  O53  1  0.66556000  0.47464100  0.83486000  1
  O  O54  1  0.66556000  0.52535900  0.33486000  1
  O  O55  1  0.83444000  0.02535900  0.16514000  1
  O  O56  1  0.80455300  0.98627100  0.86175900  1
  O  O57  1  0.69544700  0.48627100  0.63824100  1
  O  O58  1  0.69544700  0.51372900  0.13824100  1
  O  O59  1  0.80455300  0.01372900  0.36175900  1
  O  O60  1  0.93276700  0.18003900  0.84848200  1
  O  O61  1  0.56723300  0.68003900  0.65151800  1
  O  O62  1  0.56723300  0.31996100  0.15151800  1
  O  O63  1  0.93276700  0.81996100  0.34848200  1
  O  O64  1  0.92492050  0.75075750  0.84630900  1
  O  O65  1  0.57507950  0.25075750  0.65369100  1
  O  O66  1  0.57507950  0.74924250  0.15369100  1
  O  O67  1  0.92492050  0.24924250  0.34630900  1
  O  O68  1  0.62592050  0.02679950  0.94749300  1
  O  O69  1  0.87407950  0.52679950  0.55250700  1
  O  O70  1  0.87407950  0.47320050  0.05250700  1
  O  O71  1  0.62592050  0.97320050  0.44749300  1
