# generated using pymatgen
data_La3Si2S8Cl
_symmetry_space_group_name_H-M   'P 1'
_cell_length_a   15.82403200
_cell_length_b   7.82900000
_cell_length_c   11.09180241
_cell_angle_alpha   90.00000000
_cell_angle_beta   96.98900493
_cell_angle_gamma   90.00000000
_symmetry_Int_Tables_number   1
_chemical_formula_structural   La3Si2S8Cl
_chemical_formula_sum   'La12 Si8 S32 Cl4'
_cell_volume   1363.91248517
_cell_formula_units_Z   4
loop_
 _symmetry_equiv_pos_site_id
 _symmetry_equiv_pos_as_xyz
  1  'x, y, z'
loop_
 _atom_site_type_symbol
 _atom_site_label
 _atom_site_symmetry_multiplicity
 _atom_site_fract_x
 _atom_site_fract_y
 _atom_site_fract_z
 _atom_site_occupancy
  La  La0  1  0.69205450  0.61932250  0.18532700  1
  La  La1  1  0.80794550  0.11932250  0.31467300  1
  La  La2  1  0.69205450  0.38067750  0.68532700  1
  La  La3  1  0.00000000  0.38243100  0.75000000  1
  La  La4  1  0.80794550  0.88067750  0.81467300  1
  La  La5  1  0.00000000  0.61756900  0.25000000  1
  La  La6  1  0.19205450  0.11932250  0.18532700  1
  La  La7  1  0.30794550  0.61932250  0.31467300  1
  La  La8  1  0.19205450  0.88067750  0.68532700  1
  La  La9  1  0.50000000  0.88243100  0.75000000  1
  La  La10  1  0.30794550  0.38067750  0.81467300  1
  La  La11  1  0.50000000  0.11756900  0.25000000  1
  Si  Si12  1  0.83971950  0.46869150  0.96998900  1
  Si  Si13  1  0.66028050  0.03130850  0.03001100  1
  Si  Si14  1  0.66028050  0.96869150  0.53001100  1
  Si  Si15  1  0.83971950  0.53130850  0.46998900  1
  Si  Si16  1  0.33971950  0.96869150  0.96998900  1
  Si  Si17  1  0.16028050  0.53130850  0.03001100  1
  Si  Si18  1  0.16028050  0.46869150  0.53001100  1
  Si  Si19  1  0.33971950  0.03130850  0.46998900  1
  S  S20  1  0.56561950  0.84538850  0.05114200  1
  S  S21  1  0.85144700  0.41028800  0.15851000  1
  S  S22  1  0.64692100  0.75311600  0.64203200  1
  S  S23  1  0.64692100  0.24688400  0.14203200  1
  S  S24  1  0.64855300  0.91028800  0.34149000  1
  S  S25  1  0.93438050  0.65461150  0.94885800  1
  S  S26  1  0.78360800  0.92586900  0.08459300  1
  S  S27  1  0.85144700  0.58971200  0.65851000  1
  S  S28  1  0.93438050  0.34538850  0.44885800  1
  S  S29  1  0.71639200  0.42586900  0.41540700  1
  S  S30  1  0.71639200  0.57413100  0.91540700  1
  S  S31  1  0.56561950  0.15461150  0.55114200  1
  S  S32  1  0.78360800  0.07413100  0.58459300  1
  S  S33  1  0.85307900  0.25311600  0.85796800  1
  S  S34  1  0.85307900  0.74688400  0.35796800  1
  S  S35  1  0.64855300  0.08971200  0.84149000  1
  S  S36  1  0.06561950  0.34538850  0.05114200  1
  S  S37  1  0.35144700  0.91028800  0.15851000  1
  S  S38  1  0.14692100  0.25311600  0.64203200  1
  S  S39  1  0.14692100  0.74688400  0.14203200  1
  S  S40  1  0.14855300  0.41028800  0.34149000  1
  S  S41  1  0.43438050  0.15461150  0.94885800  1
  S  S42  1  0.28360800  0.42586900  0.08459300  1
  S  S43  1  0.35144700  0.08971200  0.65851000  1
  S  S44  1  0.43438050  0.84538850  0.44885800  1
  S  S45  1  0.21639200  0.92586900  0.41540700  1
  S  S46  1  0.21639200  0.07413100  0.91540700  1
  S  S47  1  0.06561950  0.65461150  0.55114200  1
  S  S48  1  0.28360800  0.57413100  0.58459300  1
  S  S49  1  0.35307900  0.75311600  0.85796800  1
  S  S50  1  0.35307900  0.24688400  0.35796800  1
  S  S51  1  0.14855300  0.58971200  0.84149000  1
  Cl  Cl52  1  0.00000000  0.99567200  0.25000000  1
  Cl  Cl53  1  0.00000000  0.00432800  0.75000000  1
  Cl  Cl54  1  0.50000000  0.49567200  0.25000000  1
  Cl  Cl55  1  0.50000000  0.50432800  0.75000000  1
