# generated using pymatgen
data_Tb(BO2)3
_symmetry_space_group_name_H-M   'P 1'
_cell_length_a   6.16315900
_cell_length_b   7.81389300
_cell_length_c   8.34097300
_cell_angle_alpha   90.00000000
_cell_angle_beta   90.00000000
_cell_angle_gamma   90.00000000
_symmetry_Int_Tables_number   1
_chemical_formula_structural   Tb(BO2)3
_chemical_formula_sum   'Tb4 B12 O24'
_cell_volume   401.68678782
_cell_formula_units_Z   4
loop_
 _symmetry_equiv_pos_site_id
 _symmetry_equiv_pos_as_xyz
  1  'x, y, z'
loop_
 _atom_site_type_symbol
 _atom_site_label
 _atom_site_symmetry_multiplicity
 _atom_site_fract_x
 _atom_site_fract_y
 _atom_site_fract_z
 _atom_site_occupancy
  Tb  Tb0  1  0.49144500  0.25000000  0.00000000  1
  Tb  Tb1  1  0.50855500  0.75000000  0.00000000  1
  Tb  Tb2  1  0.00855500  0.75000000  0.50000000  1
  Tb  Tb3  1  0.99144500  0.25000000  0.50000000  1
  B  B4  1  0.88338900  0.49362700  0.18449300  1
  B  B5  1  0.01128700  0.75000000  0.00000000  1
  B  B6  1  0.51128700  0.75000000  0.50000000  1
  B  B7  1  0.61661100  0.99362700  0.31550700  1
  B  B8  1  0.61661100  0.50637300  0.68449300  1
  B  B9  1  0.88338900  0.00637300  0.81550700  1
  B  B10  1  0.38338900  0.49362700  0.31550700  1
  B  B11  1  0.38338900  0.00637300  0.68449300  1
  B  B12  1  0.98871300  0.25000000  0.00000000  1
  B  B13  1  0.48871300  0.25000000  0.50000000  1
  B  B14  1  0.11661100  0.99362700  0.18449300  1
  B  B15  1  0.11661100  0.50637300  0.81550700  1
  O  O16  1  0.94154200  0.99249600  0.66261900  1
  O  O17  1  0.85839600  0.86582700  0.92034800  1
  O  O18  1  0.35839600  0.63417300  0.42034800  1
  O  O19  1  0.15968200  0.83260300  0.11704900  1
  O  O20  1  0.64160400  0.36582700  0.57965200  1
  O  O21  1  0.65968200  0.83260300  0.38295100  1
  O  O22  1  0.15968200  0.66739700  0.88295100  1
  O  O23  1  0.84031800  0.16739700  0.88295100  1
  O  O24  1  0.34031800  0.16739700  0.61704900  1
  O  O25  1  0.34031800  0.33260300  0.38295100  1
  O  O26  1  0.14160400  0.13417300  0.07965200  1
  O  O27  1  0.35839600  0.86582700  0.57965200  1
  O  O28  1  0.94154200  0.50750400  0.33738100  1
  O  O29  1  0.05845800  0.00750400  0.33738100  1
  O  O30  1  0.44154200  0.50750400  0.16261900  1
  O  O31  1  0.55845800  0.49249600  0.83738100  1
  O  O32  1  0.84031800  0.33260300  0.11704900  1
  O  O33  1  0.44154200  0.99249600  0.83738100  1
  O  O34  1  0.05845800  0.49249600  0.66261900  1
  O  O35  1  0.65968200  0.66739700  0.61704900  1
  O  O36  1  0.14160400  0.36582700  0.92034800  1
  O  O37  1  0.85839600  0.63417300  0.07965200  1
  O  O38  1  0.64160400  0.13417300  0.42034800  1
  O  O39  1  0.55845800  0.00750400  0.16261900  1
