# generated using pymatgen
data_Y3Si2ClO8
_symmetry_space_group_name_H-M   'P 1'
_cell_length_a   6.24547100
_cell_length_b   6.91691100
_cell_length_c   17.92019100
_cell_angle_alpha   90.00000000
_cell_angle_beta   90.00000000
_cell_angle_gamma   90.00000000
_symmetry_Int_Tables_number   1
_chemical_formula_structural   Y3Si2ClO8
_chemical_formula_sum   'Y12 Si8 Cl4 O32'
_cell_volume   774.14090880
_cell_formula_units_Z   4
loop_
 _symmetry_equiv_pos_site_id
 _symmetry_equiv_pos_as_xyz
  1  'x, y, z'
loop_
 _atom_site_type_symbol
 _atom_site_label
 _atom_site_symmetry_multiplicity
 _atom_site_fract_x
 _atom_site_fract_y
 _atom_site_fract_z
 _atom_site_occupancy
  Y  Y0  1  0.87241500  0.98548600  0.90976400  1
  Y  Y1  1  0.12758500  0.01451400  0.40976400  1
  Y  Y2  1  0.62758500  0.48548600  0.59023600  1
  Y  Y3  1  0.88494100  0.29371200  0.25000000  1
  Y  Y4  1  0.12758500  0.01451400  0.09023600  1
  Y  Y5  1  0.62758500  0.48548600  0.90976400  1
  Y  Y6  1  0.37241500  0.51451400  0.09023600  1
  Y  Y7  1  0.37241500  0.51451400  0.40976400  1
  Y  Y8  1  0.38494100  0.20628800  0.75000000  1
  Y  Y9  1  0.11505900  0.70628800  0.75000000  1
  Y  Y10  1  0.61505900  0.79371200  0.25000000  1
  Y  Y11  1  0.87241500  0.98548600  0.59023600  1
  Si  Si12  1  0.62127700  0.02378900  0.09983200  1
  Si  Si13  1  0.12127700  0.47621100  0.90016800  1
  Si  Si14  1  0.37872300  0.97621100  0.90016800  1
  Si  Si15  1  0.62127700  0.02378900  0.40016800  1
  Si  Si16  1  0.87872300  0.52378900  0.40016800  1
  Si  Si17  1  0.37872300  0.97621100  0.59983200  1
  Si  Si18  1  0.12127700  0.47621100  0.59983200  1
  Si  Si19  1  0.87872300  0.52378900  0.09983200  1
  Cl  Cl20  1  0.73642000  0.45780100  0.75000000  1
  Cl  Cl21  1  0.76358000  0.95780100  0.75000000  1
  Cl  Cl22  1  0.23642000  0.04219900  0.25000000  1
  Cl  Cl23  1  0.26358000  0.54219900  0.25000000  1
  O  O24  1  0.53157400  0.16719700  0.61805800  1
  O  O25  1  0.05455600  0.69699200  0.09494000  1
  O  O26  1  0.29020300  0.48781600  0.96931700  1
  O  O27  1  0.05455600  0.69699200  0.40506000  1
  O  O28  1  0.27485100  0.46587800  0.67614500  1
  O  O29  1  0.94544400  0.30300800  0.90506000  1
  O  O30  1  0.55455600  0.80300800  0.59494000  1
  O  O31  1  0.77485100  0.03412200  0.17614500  1
  O  O32  1  0.70979700  0.51218400  0.03068300  1
  O  O33  1  0.46842600  0.83280300  0.11805800  1
  O  O34  1  0.22514900  0.96587800  0.82385500  1
  O  O35  1  0.03157400  0.33280300  0.38194200  1
  O  O36  1  0.79020300  0.01218400  0.03068300  1
  O  O37  1  0.77485100  0.03412200  0.32385500  1
  O  O38  1  0.96842600  0.66719700  0.88194200  1
  O  O39  1  0.70979700  0.51218400  0.46931700  1
  O  O40  1  0.29020300  0.48781600  0.53068300  1
  O  O41  1  0.46842600  0.83280300  0.38194200  1
  O  O42  1  0.72514900  0.53412200  0.17614500  1
  O  O43  1  0.20979700  0.98781600  0.53068300  1
  O  O44  1  0.27485100  0.46587800  0.82385500  1
  O  O45  1  0.72514900  0.53412200  0.32385500  1
  O  O46  1  0.79020300  0.01218400  0.46931700  1
  O  O47  1  0.22514900  0.96587800  0.67614500  1
  O  O48  1  0.44544400  0.19699200  0.09494000  1
  O  O49  1  0.44544400  0.19699200  0.40506000  1
  O  O50  1  0.20979700  0.98781600  0.96931700  1
  O  O51  1  0.55455600  0.80300800  0.90506000  1
  O  O52  1  0.94544400  0.30300800  0.59494000  1
  O  O53  1  0.03157400  0.33280300  0.11805800  1
  O  O54  1  0.96842600  0.66719700  0.61805800  1
  O  O55  1  0.53157400  0.16719700  0.88194200  1
