# generated using pymatgen
data_AgTeO3
_symmetry_space_group_name_H-M   'P 1'
_cell_length_a   6.02456400
_cell_length_b   11.82669300
_cell_length_c   9.22122884
_cell_angle_alpha   90.00000000
_cell_angle_beta   118.96676873
_cell_angle_gamma   90.00000000
_symmetry_Int_Tables_number   1
_chemical_formula_structural   AgTeO3
_chemical_formula_sum   'Ag8 Te8 O24'
_cell_volume   574.82617135
_cell_formula_units_Z   8
loop_
 _symmetry_equiv_pos_site_id
 _symmetry_equiv_pos_as_xyz
  1  'x, y, z'
loop_
 _atom_site_type_symbol
 _atom_site_label
 _atom_site_symmetry_multiplicity
 _atom_site_fract_x
 _atom_site_fract_y
 _atom_site_fract_z
 _atom_site_occupancy
  Ag  Ag0  1  0.42813100  0.32659800  0.27656500  1
  Ag  Ag1  1  0.60750900  0.35489100  0.03044800  1
  Ag  Ag2  1  0.42813100  0.17340200  0.77656500  1
  Ag  Ag3  1  0.39249100  0.85489100  0.46955200  1
  Ag  Ag4  1  0.57186900  0.82659800  0.22343500  1
  Ag  Ag5  1  0.39249100  0.64510900  0.96955200  1
  Ag  Ag6  1  0.60750900  0.14510900  0.53044800  1
  Ag  Ag7  1  0.57186900  0.67340200  0.72343500  1
  Te  Te8  1  0.09148400  0.37668700  0.49183500  1
  Te  Te9  1  0.06594100  0.92415900  0.68620000  1
  Te  Te10  1  0.93405900  0.42415900  0.81380000  1
  Te  Te11  1  0.90851600  0.87668700  0.00816500  1
  Te  Te12  1  0.93405900  0.07584100  0.31380000  1
  Te  Te13  1  0.06594100  0.57584100  0.18620000  1
  Te  Te14  1  0.09148400  0.12331300  0.99183500  1
  Te  Te15  1  0.90851600  0.62331300  0.50816500  1
  O  O16  1  0.23152900  0.04192700  0.51624800  1
  O  O17  1  0.85764400  0.85290300  0.77581300  1
  O  O18  1  0.22682700  0.53719200  0.55501300  1
  O  O19  1  0.22682700  0.96280800  0.05501300  1
  O  O20  1  0.97676700  0.91231500  0.23687800  1
  O  O21  1  0.14235600  0.14709700  0.22418700  1
  O  O22  1  0.58515000  0.68535600  0.43867100  1
  O  O23  1  0.97676700  0.58768500  0.73687800  1
  O  O24  1  0.88711700  0.25898000  0.91160400  1
  O  O25  1  0.02323300  0.41231500  0.26312200  1
  O  O26  1  0.88711700  0.24102000  0.41160400  1
  O  O27  1  0.76847100  0.54192700  0.98375200  1
  O  O28  1  0.76847100  0.95807300  0.48375200  1
  O  O29  1  0.11288300  0.74102000  0.08839600  1
  O  O30  1  0.58515000  0.81464400  0.93867100  1
  O  O31  1  0.77317300  0.03719200  0.94498700  1
  O  O32  1  0.23152900  0.45807300  0.01624800  1
  O  O33  1  0.41485000  0.31464400  0.56132900  1
  O  O34  1  0.14235600  0.35290300  0.72418700  1
  O  O35  1  0.02323300  0.08768500  0.76312200  1
  O  O36  1  0.85764400  0.64709700  0.27581300  1
  O  O37  1  0.41485000  0.18535600  0.06132900  1
  O  O38  1  0.77317300  0.46280800  0.44498700  1
  O  O39  1  0.11288300  0.75898000  0.58839600  1
