# generated using pymatgen
data_CsHoZnTe3
_symmetry_space_group_name_H-M   'P 1'
_cell_length_a   4.42394400
_cell_length_b   17.45529600
_cell_length_c   11.70792000
_cell_angle_alpha   90.00000000
_cell_angle_beta   90.00000000
_cell_angle_gamma   90.00000000
_symmetry_Int_Tables_number   1
_chemical_formula_structural   CsHoZnTe3
_chemical_formula_sum   'Cs4 Ho4 Zn4 Te12'
_cell_volume   904.10024080
_cell_formula_units_Z   4
loop_
 _symmetry_equiv_pos_site_id
 _symmetry_equiv_pos_as_xyz
  1  'x, y, z'
loop_
 _atom_site_type_symbol
 _atom_site_label
 _atom_site_symmetry_multiplicity
 _atom_site_fract_x
 _atom_site_fract_y
 _atom_site_fract_z
 _atom_site_occupancy
  Cs  Cs0  1  0.50000000  0.24714500  0.25000000  1
  Cs  Cs1  1  0.00000000  0.25285500  0.75000000  1
  Cs  Cs2  1  0.00000000  0.74714500  0.25000000  1
  Cs  Cs3  1  0.50000000  0.75285500  0.75000000  1
  Ho  Ho4  1  0.00000000  0.00000000  0.50000000  1
  Ho  Ho5  1  0.00000000  0.00000000  0.00000000  1
  Ho  Ho6  1  0.50000000  0.50000000  0.50000000  1
  Ho  Ho7  1  0.50000000  0.50000000  0.00000000  1
  Zn  Zn8  1  0.50000000  0.03696900  0.75000000  1
  Zn  Zn9  1  0.00000000  0.46303100  0.25000000  1
  Zn  Zn10  1  0.00000000  0.53696900  0.75000000  1
  Zn  Zn11  1  0.50000000  0.96303100  0.25000000  1
  Te  Te12  1  0.00000000  0.05847900  0.25000000  1
  Te  Te13  1  0.00000000  0.38248000  0.44295500  1
  Te  Te14  1  0.50000000  0.11752000  0.94295500  1
  Te  Te15  1  0.50000000  0.11752000  0.55704500  1
  Te  Te16  1  0.50000000  0.44152100  0.75000000  1
  Te  Te17  1  0.00000000  0.38248000  0.05704500  1
  Te  Te18  1  0.50000000  0.55847900  0.25000000  1
  Te  Te19  1  0.50000000  0.88248000  0.44295500  1
  Te  Te20  1  0.00000000  0.61752000  0.94295500  1
  Te  Te21  1  0.00000000  0.61752000  0.55704500  1
  Te  Te22  1  0.00000000  0.94152100  0.75000000  1
  Te  Te23  1  0.50000000  0.88248000  0.05704500  1
