# generated using pymatgen
data_CsAuBr3
_symmetry_space_group_name_H-M   'P 1'
_cell_length_a   7.92849800
_cell_length_b   7.92849800
_cell_length_c   11.73035400
_cell_angle_alpha   90.00000000
_cell_angle_beta   90.00000000
_cell_angle_gamma   90.00000000
_symmetry_Int_Tables_number   1
_chemical_formula_structural   CsAuBr3
_chemical_formula_sum   'Cs4 Au4 Br12'
_cell_volume   737.38272751
_cell_formula_units_Z   4
loop_
 _symmetry_equiv_pos_site_id
 _symmetry_equiv_pos_as_xyz
  1  'x, y, z'
loop_
 _atom_site_type_symbol
 _atom_site_label
 _atom_site_symmetry_multiplicity
 _atom_site_fract_x
 _atom_site_fract_y
 _atom_site_fract_z
 _atom_site_occupancy
  Cs  Cs0  1  0.50000000  0.00000000  0.25000000  1
  Cs  Cs1  1  0.00000000  0.50000000  0.25000000  1
  Cs  Cs2  1  0.00000000  0.50000000  0.75000000  1
  Cs  Cs3  1  0.50000000  0.00000000  0.75000000  1
  Au  Au4  1  0.00000000  0.00000000  0.00000000  1
  Au  Au5  1  0.50000000  0.50000000  0.00000000  1
  Au  Au6  1  0.50000000  0.50000000  0.50000000  1
  Au  Au7  1  0.00000000  0.00000000  0.50000000  1
  Br  Br8  1  0.00000000  0.00000000  0.28993600  1
  Br  Br9  1  0.77537900  0.22462100  0.00000000  1
  Br  Br10  1  0.50000000  0.50000000  0.21006400  1
  Br  Br11  1  0.72462100  0.72462100  0.50000000  1
  Br  Br12  1  0.22462100  0.77537900  0.00000000  1
  Br  Br13  1  0.77537900  0.77537900  0.00000000  1
  Br  Br14  1  0.50000000  0.50000000  0.78993600  1
  Br  Br15  1  0.27537900  0.72462100  0.50000000  1
  Br  Br16  1  0.00000000  0.00000000  0.71006400  1
  Br  Br17  1  0.22462100  0.22462100  0.00000000  1
  Br  Br18  1  0.72462100  0.27537900  0.50000000  1
  Br  Br19  1  0.27537900  0.27537900  0.50000000  1
