# generated using pymatgen
data_CuBi(PSe3)2
_symmetry_space_group_name_H-M   'P 1'
_cell_length_a   6.61234050
_cell_length_b   6.61234050
_cell_length_c   14.73771000
_cell_angle_alpha   90.00000000
_cell_angle_beta   90.00000000
_cell_angle_gamma   120.00000000
_symmetry_Int_Tables_number   1
_chemical_formula_structural   CuBi(PSe3)2
_chemical_formula_sum   'Cu2 Bi2 P4 Se12'
_cell_volume   558.04735916
_cell_formula_units_Z   2
loop_
 _symmetry_equiv_pos_site_id
 _symmetry_equiv_pos_as_xyz
  1  'x, y, z'
loop_
 _atom_site_type_symbol
 _atom_site_label
 _atom_site_symmetry_multiplicity
 _atom_site_fract_x
 _atom_site_fract_y
 _atom_site_fract_z
 _atom_site_occupancy
  Cu  Cu0  1  0.00000000  0.00000000  0.75000000  1
  Cu  Cu1  1  0.00000000  0.00000000  0.25000000  1
  Bi  Bi2  1  0.33333333  0.66666667  0.75000000  1
  Bi  Bi3  1  0.66666667  0.33333333  0.25000000  1
  P  P4  1  0.66666667  0.33333333  0.82743700  1
  P  P5  1  0.66666667  0.33333333  0.67256300  1
  P  P6  1  0.33333333  0.66666667  0.17256300  1
  P  P7  1  0.33333333  0.66666667  0.32743700  1
  Se  Se8  1  0.67496400  0.96901100  0.13231500  1
  Se  Se9  1  0.70595300  0.03098900  0.63231500  1
  Se  Se10  1  0.03098900  0.32503600  0.36768500  1
  Se  Se11  1  0.96901100  0.29404700  0.86768500  1
  Se  Se12  1  0.29404700  0.96901100  0.36768500  1
  Se  Se13  1  0.32503600  0.03098900  0.86768500  1
  Se  Se14  1  0.70595300  0.67496400  0.86768500  1
  Se  Se15  1  0.03098900  0.70595300  0.13231500  1
  Se  Se16  1  0.96901100  0.67496400  0.63231500  1
  Se  Se17  1  0.29404700  0.32503600  0.13231500  1
  Se  Se18  1  0.32503600  0.29404700  0.63231500  1
  Se  Se19  1  0.67496400  0.70595300  0.36768500  1
