# generated using pymatgen
data_SrBi2B2O7
_symmetry_space_group_name_H-M   'P 1'
_cell_length_a   9.22214569
_cell_length_b   9.22214569
_cell_length_c   13.24999700
_cell_angle_alpha   90.00000000
_cell_angle_beta   90.00000000
_cell_angle_gamma   120.00000000
_symmetry_Int_Tables_number   1
_chemical_formula_structural   SrBi2B2O7
_chemical_formula_sum   'Sr6 Bi12 B12 O42'
_cell_volume   975.91135113
_cell_formula_units_Z   6
loop_
 _symmetry_equiv_pos_site_id
 _symmetry_equiv_pos_as_xyz
  1  'x, y, z'
loop_
 _atom_site_type_symbol
 _atom_site_label
 _atom_site_symmetry_multiplicity
 _atom_site_fract_x
 _atom_site_fract_y
 _atom_site_fract_z
 _atom_site_occupancy
  Sr  Sr0  1  0.04589200  0.68413000  0.25000000  1
  Sr  Sr1  1  0.36176200  0.04589200  0.75000000  1
  Sr  Sr2  1  0.63823800  0.95410800  0.25000000  1
  Sr  Sr3  1  0.31587000  0.36176200  0.25000000  1
  Sr  Sr4  1  0.95410800  0.31587000  0.75000000  1
  Sr  Sr5  1  0.68413000  0.63823800  0.75000000  1
  Bi  Bi6  1  0.67412000  0.64296600  0.40845400  1
  Bi  Bi7  1  0.03115400  0.67412000  0.59154600  1
  Bi  Bi8  1  0.67412000  0.64296600  0.09154600  1
  Bi  Bi9  1  0.35703400  0.03115400  0.09154600  1
  Bi  Bi10  1  0.96884600  0.32588000  0.40845400  1
  Bi  Bi11  1  0.64296600  0.96884600  0.90845400  1
  Bi  Bi12  1  0.64296600  0.96884600  0.59154600  1
  Bi  Bi13  1  0.32588000  0.35703400  0.90845400  1
  Bi  Bi14  1  0.03115400  0.67412000  0.90845400  1
  Bi  Bi15  1  0.35703400  0.03115400  0.40845400  1
  Bi  Bi16  1  0.32588000  0.35703400  0.59154600  1
  Bi  Bi17  1  0.96884600  0.32588000  0.09154600  1
  B  B18  1  0.33333333  0.66666667  0.86587900  1
  B  B19  1  0.33333333  0.66666667  0.08496100  1
  B  B20  1  0.66666667  0.33333333  0.91503900  1
  B  B21  1  0.00000000  0.00000000  0.38348100  1
  B  B22  1  0.66666667  0.33333333  0.58496100  1
  B  B23  1  0.00000000  0.00000000  0.88348100  1
  B  B24  1  0.00000000  0.00000000  0.11651900  1
  B  B25  1  0.33333333  0.66666667  0.63412100  1
  B  B26  1  0.00000000  0.00000000  0.61651900  1
  B  B27  1  0.66666667  0.33333333  0.36587900  1
  B  B28  1  0.66666667  0.33333333  0.13412100  1
  B  B29  1  0.33333333  0.66666667  0.41503900  1
  O  O30  1  0.11679000  0.94758800  0.88275100  1
  O  O31  1  0.83079800  0.88321000  0.61724900  1
  O  O32  1  0.80467100  0.30937000  0.91448900  1
  O  O33  1  0.83079800  0.88321000  0.88275100  1
  O  O34  1  0.50854800  0.31385300  0.13182100  1
  O  O35  1  0.80530500  0.49145200  0.36817900  1
  O  O36  1  0.80530500  0.49145200  0.13182100  1
  O  O37  1  0.94758800  0.83079800  0.11724900  1
  O  O38  1  0.31385300  0.80530500  0.86817900  1
  O  O39  1  0.65375200  0.03788100  0.75000000  1
  O  O40  1  0.61587100  0.65375200  0.25000000  1
  O  O41  1  0.49530100  0.80467100  0.41448900  1
  O  O42  1  0.69063000  0.49530100  0.91448900  1
  O  O43  1  0.05241200  0.16920200  0.61724900  1
  O  O44  1  0.38412900  0.34624800  0.75000000  1
  O  O45  1  0.50469900  0.19532900  0.58551100  1
  O  O46  1  0.88321000  0.05241200  0.11724900  1
  O  O47  1  0.50854800  0.31385300  0.36817900  1
  O  O48  1  0.88321000  0.05241200  0.38275100  1
  O  O49  1  0.31385300  0.80530500  0.63182100  1
  O  O50  1  0.50469900  0.19532900  0.91448900  1
  O  O51  1  0.68614700  0.19469500  0.13182100  1
  O  O52  1  0.19532900  0.69063000  0.08551100  1
  O  O53  1  0.19532900  0.69063000  0.41448900  1
  O  O54  1  0.19469500  0.50854800  0.86817900  1
  O  O55  1  0.94758800  0.83079800  0.38275100  1
  O  O56  1  0.49530100  0.80467100  0.08551100  1
  O  O57  1  0.96211900  0.61587100  0.75000000  1
  O  O58  1  0.34624800  0.96211900  0.25000000  1
  O  O59  1  0.16920200  0.11679000  0.11724900  1
  O  O60  1  0.68614700  0.19469500  0.36817900  1
  O  O61  1  0.19469500  0.50854800  0.63182100  1
  O  O62  1  0.16920200  0.11679000  0.38275100  1
  O  O63  1  0.05241200  0.16920200  0.88275100  1
  O  O64  1  0.30937000  0.50469900  0.41448900  1
  O  O65  1  0.11679000  0.94758800  0.61724900  1
  O  O66  1  0.49145200  0.68614700  0.63182100  1
  O  O67  1  0.03788100  0.38412900  0.25000000  1
  O  O68  1  0.69063000  0.49530100  0.58551100  1
  O  O69  1  0.30937000  0.50469900  0.08551100  1
  O  O70  1  0.49145200  0.68614700  0.86817900  1
  O  O71  1  0.80467100  0.30937000  0.58551100  1
