# generated using pymatgen
data_TePbO3
_symmetry_space_group_name_H-M   'P 1'
_cell_length_a   27.25527800
_cell_length_b   4.66545600
_cell_length_c   18.52876213
_cell_angle_alpha   90.00000000
_cell_angle_beta   107.29632627
_cell_angle_gamma   90.00000000
_symmetry_Int_Tables_number   1
_chemical_formula_structural   TePbO3
_chemical_formula_sum   'Te24 Pb24 O72'
_cell_volume   2249.54337562
_cell_formula_units_Z   24
loop_
 _symmetry_equiv_pos_site_id
 _symmetry_equiv_pos_as_xyz
  1  'x, y, z'
loop_
 _atom_site_type_symbol
 _atom_site_label
 _atom_site_symmetry_multiplicity
 _atom_site_fract_x
 _atom_site_fract_y
 _atom_site_fract_z
 _atom_site_occupancy
  Te  Te0  1  0.95212700  0.76646100  0.62944200  1
  Te  Te1  1  0.54787300  0.26646100  0.87055800  1
  Te  Te2  1  0.54787300  0.73353900  0.37055800  1
  Te  Te3  1  0.95212700  0.23353900  0.12944200  1
  Te  Te4  1  0.93015600  0.74546700  0.29229600  1
  Te  Te5  1  0.56984400  0.24546700  0.20770400  1
  Te  Te6  1  0.56984400  0.75453300  0.70770400  1
  Te  Te7  1  0.93015600  0.25453300  0.79229600  1
  Te  Te8  1  0.79150700  0.69272300  0.40587400  1
  Te  Te9  1  0.70849300  0.19272300  0.09412600  1
  Te  Te10  1  0.70849300  0.80727700  0.59412600  1
  Te  Te11  1  0.79150700  0.30727700  0.90587400  1
  Te  Te12  1  0.45212700  0.26646100  0.62944200  1
  Te  Te13  1  0.04787300  0.76646100  0.87055800  1
  Te  Te14  1  0.04787300  0.23353900  0.37055800  1
  Te  Te15  1  0.45212700  0.73353900  0.12944200  1
  Te  Te16  1  0.43015600  0.24546700  0.29229600  1
  Te  Te17  1  0.06984400  0.74546700  0.20770400  1
  Te  Te18  1  0.06984400  0.25453300  0.70770400  1
  Te  Te19  1  0.43015600  0.75453300  0.79229600  1
  Te  Te20  1  0.29150700  0.19272300  0.40587400  1
  Te  Te21  1  0.20849300  0.69272300  0.09412600  1
  Te  Te22  1  0.20849300  0.30727700  0.59412600  1
  Te  Te23  1  0.29150700  0.80727700  0.90587400  1
  Pb  Pb24  1  0.81572050  0.20645450  0.26546500  1
  Pb  Pb25  1  0.68427950  0.70645450  0.23453500  1
  Pb  Pb26  1  0.68427950  0.29354550  0.73453500  1
  Pb  Pb27  1  0.81572050  0.79354550  0.76546500  1
  Pb  Pb28  1  0.93456050  0.22205850  0.45374700  1
  Pb  Pb29  1  0.56543950  0.72205850  0.04625300  1
  Pb  Pb30  1  0.56543950  0.27794150  0.54625300  1
  Pb  Pb31  1  0.93456050  0.77794150  0.95374700  1
  Pb  Pb32  1  0.83994100  0.75296800  0.08860400  1
  Pb  Pb33  1  0.66005900  0.25296800  0.41139600  1
  Pb  Pb34  1  0.66005900  0.74703200  0.91139600  1
  Pb  Pb35  1  0.83994100  0.24703200  0.58860400  1
  Pb  Pb36  1  0.31572050  0.70645450  0.26546500  1
  Pb  Pb37  1  0.18427950  0.20645450  0.23453500  1
  Pb  Pb38  1  0.18427950  0.79354550  0.73453500  1
  Pb  Pb39  1  0.31572050  0.29354550  0.76546500  1
  Pb  Pb40  1  0.43456050  0.72205850  0.45374700  1
  Pb  Pb41  1  0.06543950  0.22205850  0.04625300  1
  Pb  Pb42  1  0.06543950  0.77794150  0.54625300  1
  Pb  Pb43  1  0.43456050  0.27794150  0.95374700  1
  Pb  Pb44  1  0.33994100  0.25296800  0.08860400  1
  Pb  Pb45  1  0.16005900  0.75296800  0.41139600  1
  Pb  Pb46  1  0.16005900  0.24703200  0.91139600  1
  Pb  Pb47  1  0.33994100  0.74703200  0.58860400  1
  O  O48  1  0.97802800  0.81299700  0.54458600  1
  O  O49  1  0.52197200  0.31299700  0.95541400  1
  O  O50  1  0.52197200  0.68700300  0.45541400  1
  O  O51  1  0.97802800  0.18700300  0.04458600  1
  O  O52  1  0.88222250  0.83479450  0.57342000  1
  O  O53  1  0.61777750  0.33479450  0.92658000  1
  O  O54  1  0.61777750  0.66520550  0.42658000  1
  O  O55  1  0.88222250  0.16520550  0.07342000  1
  O  O56  1  0.94380200  0.36296800  0.62926400  1
  O  O57  1  0.55619800  0.86296800  0.87073600  1
  O  O58  1  0.55619800  0.13703200  0.37073600  1
  O  O59  1  0.94380200  0.63703200  0.12926400  1
  O  O60  1  0.86344550  0.76845050  0.21936200  1
  O  O61  1  0.63655450  0.26845050  0.28063800  1
  O  O62  1  0.63655450  0.73154950  0.78063800  1
  O  O63  1  0.86344550  0.23154950  0.71936200  1
  O  O64  1  0.90543650  0.82361950  0.37613900  1
  O  O65  1  0.59456350  0.32361950  0.12386100  1
  O  O66  1  0.59456350  0.67638050  0.62386100  1
  O  O67  1  0.90543650  0.17638050  0.87613900  1
  O  O68  1  0.93495200  0.34404200  0.30888600  1
  O  O69  1  0.56504800  0.84404200  0.19111400  1
  O  O70  1  0.56504800  0.15595800  0.69111400  1
  O  O71  1  0.93495200  0.65595800  0.80888600  1
  O  O72  1  0.77786550  0.77774650  0.30013900  1
  O  O73  1  0.72213450  0.27774650  0.19986100  1
  O  O74  1  0.72213450  0.72225350  0.69986100  1
  O  O75  1  0.77786550  0.22225350  0.80013900  1
  O  O76  1  0.81511050  0.31268050  0.40079000  1
  O  O77  1  0.68488950  0.81268050  0.09921000  1
  O  O78  1  0.68488950  0.18731950  0.59921000  1
  O  O79  1  0.81511050  0.68731950  0.90079000  1
  O  O80  1  0.72137500  0.62915800  0.39747000  1
  O  O81  1  0.77862500  0.12915800  0.10253000  1
  O  O82  1  0.77862500  0.87084200  0.60253000  1
  O  O83  1  0.72137500  0.37084200  0.89747000  1
  O  O84  1  0.47802800  0.31299700  0.54458600  1
  O  O85  1  0.02197200  0.81299700  0.95541400  1
  O  O86  1  0.02197200  0.18700300  0.45541400  1
  O  O87  1  0.47802800  0.68700300  0.04458600  1
  O  O88  1  0.38222250  0.33479450  0.57342000  1
  O  O89  1  0.11777750  0.83479450  0.92658000  1
  O  O90  1  0.11777750  0.16520550  0.42658000  1
  O  O91  1  0.38222250  0.66520550  0.07342000  1
  O  O92  1  0.44380200  0.86296800  0.62926400  1
  O  O93  1  0.05619800  0.36296800  0.87073600  1
  O  O94  1  0.05619800  0.63703200  0.37073600  1
  O  O95  1  0.44380200  0.13703200  0.12926400  1
  O  O96  1  0.36344550  0.26845050  0.21936200  1
  O  O97  1  0.13655450  0.76845050  0.28063800  1
  O  O98  1  0.13655450  0.23154950  0.78063800  1
  O  O99  1  0.36344550  0.73154950  0.71936200  1
  O  O100  1  0.40543650  0.32361950  0.37613900  1
  O  O101  1  0.09456350  0.82361950  0.12386100  1
  O  O102  1  0.09456350  0.17638050  0.62386100  1
  O  O103  1  0.40543650  0.67638050  0.87613900  1
  O  O104  1  0.43495200  0.84404200  0.30888600  1
  O  O105  1  0.06504800  0.34404200  0.19111400  1
  O  O106  1  0.06504800  0.65595800  0.69111400  1
  O  O107  1  0.43495200  0.15595800  0.80888600  1
  O  O108  1  0.27786550  0.27774650  0.30013900  1
  O  O109  1  0.22213450  0.77774650  0.19986100  1
  O  O110  1  0.22213450  0.22225350  0.69986100  1
  O  O111  1  0.27786550  0.72225350  0.80013900  1
  O  O112  1  0.31511050  0.81268050  0.40079000  1
  O  O113  1  0.18488950  0.31268050  0.09921000  1
  O  O114  1  0.18488950  0.68731950  0.59921000  1
  O  O115  1  0.31511050  0.18731950  0.90079000  1
  O  O116  1  0.22137500  0.12915800  0.39747000  1
  O  O117  1  0.27862500  0.62915800  0.10253000  1
  O  O118  1  0.27862500  0.37084200  0.60253000  1
  O  O119  1  0.22137500  0.87084200  0.89747000  1
