# generated using pymatgen
data_SrGaBO4
_symmetry_space_group_name_H-M   'P 1'
_cell_length_a   5.98458900
_cell_length_b   9.12746600
_cell_length_c   15.56912600
_cell_angle_alpha   90.00000000
_cell_angle_beta   90.00000000
_cell_angle_gamma   90.00000000
_symmetry_Int_Tables_number   1
_chemical_formula_structural   SrGaBO4
_chemical_formula_sum   'Sr8 Ga8 B8 O32'
_cell_volume   850.45000342
_cell_formula_units_Z   8
loop_
 _symmetry_equiv_pos_site_id
 _symmetry_equiv_pos_as_xyz
  1  'x, y, z'
loop_
 _atom_site_type_symbol
 _atom_site_label
 _atom_site_symmetry_multiplicity
 _atom_site_fract_x
 _atom_site_fract_y
 _atom_site_fract_z
 _atom_site_occupancy
  Sr  Sr0  1  0.00000000  0.71380100  0.47909600  1
  Sr  Sr1  1  0.00000000  0.21380100  0.02090400  1
  Sr  Sr2  1  0.00000000  0.28619900  0.52090400  1
  Sr  Sr3  1  0.50000000  0.92655100  0.12092300  1
  Sr  Sr4  1  0.00000000  0.78619900  0.97909600  1
  Sr  Sr5  1  0.50000000  0.07344900  0.87907700  1
  Sr  Sr6  1  0.50000000  0.42655100  0.37907700  1
  Sr  Sr7  1  0.50000000  0.57344900  0.62092300  1
  Ga  Ga8  1  0.24796800  0.53636000  0.15331600  1
  Ga  Ga9  1  0.24796800  0.46364000  0.84668400  1
  Ga  Ga10  1  0.75203200  0.53636000  0.15331600  1
  Ga  Ga11  1  0.24796800  0.03636000  0.34668400  1
  Ga  Ga12  1  0.75203200  0.03636000  0.34668400  1
  Ga  Ga13  1  0.24796800  0.96364000  0.65331600  1
  Ga  Ga14  1  0.75203200  0.46364000  0.84668400  1
  Ga  Ga15  1  0.75203200  0.96364000  0.65331600  1
  B  B16  1  0.50000000  0.79294100  0.42457200  1
  B  B17  1  0.00000000  0.48086600  0.31315400  1
  B  B18  1  0.50000000  0.20705900  0.57542800  1
  B  B19  1  0.00000000  0.01913400  0.81315400  1
  B  B20  1  0.00000000  0.51913400  0.68684600  1
  B  B21  1  0.00000000  0.98086600  0.18684600  1
  B  B22  1  0.50000000  0.70705900  0.92457200  1
  B  B23  1  0.50000000  0.29294100  0.07542800  1
  O  O24  1  0.50000000  0.15393900  0.35378500  1
  O  O25  1  0.00000000  0.62209800  0.10783400  1
  O  O26  1  0.00000000  0.03005100  0.90113100  1
  O  O27  1  0.79671300  0.01575000  0.76896600  1
  O  O28  1  0.79671300  0.98425000  0.23103400  1
  O  O29  1  0.70086800  0.35768600  0.09826700  1
  O  O30  1  0.70086800  0.64231400  0.90173300  1
  O  O31  1  0.00000000  0.87790200  0.60783400  1
  O  O32  1  0.79671300  0.51575000  0.73103400  1
  O  O33  1  0.20328700  0.01575000  0.76896600  1
  O  O34  1  0.00000000  0.96994900  0.09886900  1
  O  O35  1  0.29913200  0.64231400  0.90173300  1
  O  O36  1  0.29913200  0.85768600  0.40173300  1
  O  O37  1  0.50000000  0.34606100  0.85378500  1
  O  O38  1  0.20328700  0.98425000  0.23103400  1
  O  O39  1  0.79671300  0.48425000  0.26896600  1
  O  O40  1  0.00000000  0.46994900  0.40113100  1
  O  O41  1  0.50000000  0.33934400  0.53322700  1
  O  O42  1  0.70086800  0.14231400  0.59826700  1
  O  O43  1  0.70086800  0.85768600  0.40173300  1
  O  O44  1  0.50000000  0.16065600  0.03322700  1
  O  O45  1  0.00000000  0.53005100  0.59886900  1
  O  O46  1  0.50000000  0.66065600  0.46677300  1
  O  O47  1  0.29913200  0.14231400  0.59826700  1
  O  O48  1  0.20328700  0.48425000  0.26896600  1
  O  O49  1  0.00000000  0.12209800  0.39216600  1
  O  O50  1  0.00000000  0.37790200  0.89216600  1
  O  O51  1  0.50000000  0.84606100  0.64621500  1
  O  O52  1  0.50000000  0.65393900  0.14621500  1
  O  O53  1  0.50000000  0.83934400  0.96677300  1
  O  O54  1  0.29913200  0.35768600  0.09826700  1
  O  O55  1  0.20328700  0.51575000  0.73103400  1
