# generated using pymatgen
data_TiI4
_symmetry_space_group_name_H-M   'P 1'
_cell_length_a   14.14795400
_cell_length_b   8.52762800
_cell_length_c   7.00526340
_cell_angle_alpha   90.00000000
_cell_angle_beta   91.42956906
_cell_angle_gamma   90.00000000
_symmetry_Int_Tables_number   1
_chemical_formula_structural   TiI4
_chemical_formula_sum   'Ti4 I16'
_cell_volume   844.91138000
_cell_formula_units_Z   4
loop_
 _symmetry_equiv_pos_site_id
 _symmetry_equiv_pos_as_xyz
  1  'x, y, z'
loop_
 _atom_site_type_symbol
 _atom_site_label
 _atom_site_symmetry_multiplicity
 _atom_site_fract_x
 _atom_site_fract_y
 _atom_site_fract_z
 _atom_site_occupancy
  Ti  Ti0  1  0.50000000  0.84313800  0.75000000  1
  Ti  Ti1  1  0.50000000  0.15686200  0.25000000  1
  Ti  Ti2  1  0.00000000  0.34313800  0.75000000  1
  Ti  Ti3  1  0.00000000  0.65686200  0.25000000  1
  I  I4  1  0.60810150  0.10414650  0.93168000  1
  I  I5  1  0.39189850  0.10414650  0.56832000  1
  I  I6  1  0.39189850  0.89585350  0.06832000  1
  I  I7  1  0.60810150  0.89585350  0.43168000  1
  I  I8  1  0.37778800  0.64436000  0.60957100  1
  I  I9  1  0.62221200  0.64436000  0.89042900  1
  I  I10  1  0.62221200  0.35564000  0.39042900  1
  I  I11  1  0.37778800  0.35564000  0.10957100  1
  I  I12  1  0.10810150  0.60414650  0.93168000  1
  I  I13  1  0.89189850  0.60414650  0.56832000  1
  I  I14  1  0.89189850  0.39585350  0.06832000  1
  I  I15  1  0.10810150  0.39585350  0.43168000  1
  I  I16  1  0.87778800  0.14436000  0.60957100  1
  I  I17  1  0.12221200  0.14436000  0.89042900  1
  I  I18  1  0.12221200  0.85564000  0.39042900  1
  I  I19  1  0.87778800  0.85564000  0.10957100  1
