# generated using pymatgen
data_KDy(PO3)4
_symmetry_space_group_name_H-M   'P 1'
_cell_length_a   10.42920200
_cell_length_b   8.98775000
_cell_length_c   12.81675596
_cell_angle_alpha   90.00000000
_cell_angle_beta   124.87552450
_cell_angle_gamma   90.00000000
_symmetry_Int_Tables_number   1
_chemical_formula_structural   KDy(PO3)4
_chemical_formula_sum   'K4 Dy4 P16 O48'
_cell_volume   985.60709902
_cell_formula_units_Z   4
loop_
 _symmetry_equiv_pos_site_id
 _symmetry_equiv_pos_as_xyz
  1  'x, y, z'
loop_
 _atom_site_type_symbol
 _atom_site_label
 _atom_site_symmetry_multiplicity
 _atom_site_fract_x
 _atom_site_fract_y
 _atom_site_fract_z
 _atom_site_occupancy
  K  K0  1  0.74418400  0.43208300  0.03980500  1
  K  K1  1  0.25581600  0.93208300  0.46019500  1
  K  K2  1  0.25581600  0.56791700  0.96019500  1
  K  K3  1  0.74418400  0.06791700  0.53980500  1
  Dy  Dy4  1  0.81457600  0.77387600  0.81515700  1
  Dy  Dy5  1  0.18542400  0.27387600  0.68484300  1
  Dy  Dy6  1  0.18542400  0.22612400  0.18484300  1
  Dy  Dy7  1  0.81457600  0.72612400  0.31515700  1
  P  P8  1  0.52289400  0.02545200  0.77437100  1
  P  P9  1  0.47710600  0.52545200  0.72562900  1
  P  P10  1  0.47710600  0.97454800  0.22562900  1
  P  P11  1  0.52289400  0.47454800  0.27437100  1
  P  P12  1  0.69905500  0.89033100  0.02184500  1
  P  P13  1  0.30094500  0.39033100  0.47815500  1
  P  P14  1  0.30094500  0.10966900  0.97815500  1
  P  P15  1  0.69905500  0.60966900  0.52184500  1
  P  P16  1  0.89081200  0.09103300  0.24275300  1
  P  P17  1  0.10918800  0.59103300  0.25724700  1
  P  P18  1  0.10918800  0.90896700  0.75724700  1
  P  P19  1  0.89081200  0.40896700  0.74275300  1
  P  P20  1  0.82317900  0.32884600  0.36343500  1
  P  P21  1  0.17682100  0.82884600  0.13656500  1
  P  P22  1  0.17682100  0.67115400  0.63656500  1
  P  P23  1  0.82317900  0.17115400  0.86343500  1
  O  O24  1  0.63667500  0.59340400  0.80649400  1
  O  O25  1  0.36332500  0.09340400  0.69350600  1
  O  O26  1  0.36332500  0.40659600  0.19350600  1
  O  O27  1  0.63667500  0.90659600  0.30649400  1
  O  O28  1  0.56732500  0.91494400  0.71179700  1
  O  O29  1  0.43267500  0.41494400  0.78820300  1
  O  O30  1  0.43267500  0.08505600  0.28820300  1
  O  O31  1  0.56732500  0.58505600  0.21179700  1
  O  O32  1  0.53797100  0.95297300  0.89727200  1
  O  O33  1  0.46202900  0.45297300  0.60272800  1
  O  O34  1  0.46202900  0.04702700  0.10272800  1
  O  O35  1  0.53797100  0.54702700  0.39727200  1
  O  O36  1  0.65203800  0.15822900  0.83782900  1
  O  O37  1  0.34796200  0.65822900  0.66217100  1
  O  O38  1  0.34796200  0.84177100  0.16217100  1
  O  O39  1  0.65203800  0.34177100  0.33782900  1
  O  O40  1  0.79892300  0.83454400  0.98080800  1
  O  O41  1  0.20107700  0.33454400  0.51919200  1
  O  O42  1  0.20107700  0.16545600  0.01919200  1
  O  O43  1  0.79892300  0.66545600  0.48080800  1
  O  O44  1  0.66370400  0.78802000  0.09494800  1
  O  O45  1  0.33629600  0.28802000  0.40505200  1
  O  O46  1  0.33629600  0.21198000  0.90505200  1
  O  O47  1  0.66370400  0.71198000  0.59494800  1
  O  O48  1  0.76801100  0.04730800  0.09608800  1
  O  O49  1  0.23198900  0.54730800  0.40391200  1
  O  O50  1  0.23198900  0.95269200  0.90391200  1
  O  O51  1  0.76801100  0.45269200  0.59608800  1
  O  O52  1  0.97551500  0.67506500  0.24180500  1
  O  O53  1  0.02448500  0.17506500  0.25819500  1
  O  O54  1  0.02448500  0.32493500  0.75819500  1
  O  O55  1  0.97551500  0.82493500  0.74180500  1
  O  O56  1  0.92712600  0.95824300  0.32654300  1
  O  O57  1  0.07287400  0.45824300  0.17345700  1
  O  O58  1  0.07287400  0.04175700  0.67345700  1
  O  O59  1  0.92712600  0.54175700  0.82654300  1
  O  O60  1  0.78023400  0.20770800  0.25393100  1
  O  O61  1  0.21976600  0.70770800  0.24606900  1
  O  O62  1  0.21976600  0.79229200  0.74606900  1
  O  O63  1  0.78023400  0.29229200  0.75393100  1
  O  O64  1  0.92778500  0.26045800  0.49256200  1
  O  O65  1  0.07221500  0.76045800  0.00743800  1
  O  O66  1  0.07221500  0.73954200  0.50743800  1
  O  O67  1  0.92778500  0.23954200  0.99256200  1
  O  O68  1  0.86520100  0.47086200  0.32837000  1
  O  O69  1  0.13479900  0.97086200  0.17163000  1
  O  O70  1  0.13479900  0.52913800  0.67163000  1
  O  O71  1  0.86520100  0.02913800  0.82837000  1
