# generated using pymatgen
data_As2W2O11
_symmetry_space_group_name_H-M   'P 1'
_cell_length_a   6.57607800
_cell_length_b   8.37263400
_cell_length_c   16.64248600
_cell_angle_alpha   90.00000000
_cell_angle_beta   90.00000000
_cell_angle_gamma   90.00000000
_symmetry_Int_Tables_number   1
_chemical_formula_structural   As2W2O11
_chemical_formula_sum   'As8 W8 O44'
_cell_volume   916.32020522
_cell_formula_units_Z   4
loop_
 _symmetry_equiv_pos_site_id
 _symmetry_equiv_pos_as_xyz
  1  'x, y, z'
loop_
 _atom_site_type_symbol
 _atom_site_label
 _atom_site_symmetry_multiplicity
 _atom_site_fract_x
 _atom_site_fract_y
 _atom_site_fract_z
 _atom_site_occupancy
  As  As0  1  0.75000000  0.91238700  0.91090800  1
  As  As1  1  0.25000000  0.08761300  0.08909200  1
  As  As2  1  0.25000000  0.41238700  0.58909200  1
  As  As3  1  0.75000000  0.58761300  0.41090800  1
  As  As4  1  0.75000000  0.98903200  0.24396500  1
  As  As5  1  0.25000000  0.01096800  0.75603500  1
  As  As6  1  0.25000000  0.48903200  0.25603500  1
  As  As7  1  0.75000000  0.51096800  0.74396500  1
  W  W8  1  0.75000000  0.26878700  0.56272200  1
  W  W9  1  0.25000000  0.73121300  0.43727800  1
  W  W10  1  0.25000000  0.76878700  0.93727800  1
  W  W11  1  0.75000000  0.23121300  0.06272200  1
  W  W12  1  0.75000000  0.91894300  0.69675900  1
  W  W13  1  0.25000000  0.08105700  0.30324100  1
  W  W14  1  0.25000000  0.41894300  0.80324100  1
  W  W15  1  0.75000000  0.58105700  0.19675900  1
  O  O16  1  0.54903400  0.71367900  0.42939900  1
  O  O17  1  0.04903400  0.28632100  0.57060100  1
  O  O18  1  0.45096600  0.21367900  0.07060100  1
  O  O19  1  0.95096600  0.78632100  0.92939900  1
  O  O20  1  0.45096600  0.28632100  0.57060100  1
  O  O21  1  0.95096600  0.71367900  0.42939900  1
  O  O22  1  0.54903400  0.78632100  0.92939900  1
  O  O23  1  0.04903400  0.21367900  0.07060100  1
  O  O24  1  0.54910700  0.07467900  0.29474500  1
  O  O25  1  0.04910700  0.92532100  0.70525500  1
  O  O26  1  0.45089300  0.57467900  0.20525500  1
  O  O27  1  0.95089300  0.42532100  0.79474500  1
  O  O28  1  0.45089300  0.92532100  0.70525500  1
  O  O29  1  0.95089300  0.07467900  0.29474500  1
  O  O30  1  0.75000000  0.47041100  0.64523100  1
  O  O31  1  0.04910700  0.57467900  0.20525500  1
  O  O32  1  0.75000000  0.49452700  0.32049100  1
  O  O33  1  0.25000000  0.50547300  0.67950900  1
  O  O34  1  0.25000000  0.99452700  0.17950900  1
  O  O35  1  0.75000000  0.00547300  0.82049100  1
  O  O36  1  0.75000000  0.78780300  0.26399500  1
  O  O37  1  0.25000000  0.21219700  0.73600500  1
  O  O38  1  0.25000000  0.28780300  0.23600500  1
  O  O39  1  0.75000000  0.71219700  0.76399500  1
  O  O40  1  0.75000000  0.68451600  0.10686900  1
  O  O41  1  0.25000000  0.31548400  0.89313100  1
  O  O42  1  0.25000000  0.18451600  0.39313100  1
  O  O43  1  0.75000000  0.81548400  0.60686900  1
  O  O44  1  0.75000000  0.36525700  0.15835600  1
  O  O45  1  0.25000000  0.63474300  0.84164400  1
  O  O46  1  0.25000000  0.86525700  0.34164400  1
  O  O47  1  0.75000000  0.13474300  0.65835600  1
  O  O48  1  0.75000000  0.11333800  0.49433200  1
  O  O49  1  0.25000000  0.88666200  0.50566800  1
  O  O50  1  0.25000000  0.61333800  0.00566800  1
  O  O51  1  0.75000000  0.38666200  0.99433200  1
  O  O52  1  0.75000000  0.44548600  0.48415200  1
  O  O53  1  0.25000000  0.55451400  0.51584800  1
  O  O54  1  0.25000000  0.94548600  0.01584800  1
  O  O55  1  0.75000000  0.05451400  0.98415200  1
  O  O56  1  0.75000000  0.02958900  0.14523100  1
  O  O57  1  0.25000000  0.97041100  0.85476900  1
  O  O58  1  0.25000000  0.52958900  0.35476900  1
  O  O59  1  0.54910700  0.42532100  0.79474500  1
