# generated using pymatgen
data_LiScF4
_symmetry_space_group_name_H-M   'P 1'
_cell_length_a   5.05757600
_cell_length_b   5.05757600
_cell_length_c   10.17991800
_cell_angle_alpha   90.00000000
_cell_angle_beta   90.00000000
_cell_angle_gamma   90.00000000
_symmetry_Int_Tables_number   1
_chemical_formula_structural   LiScF4
_chemical_formula_sum   'Li4 Sc4 F16'
_cell_volume   260.39288597
_cell_formula_units_Z   4
loop_
 _symmetry_equiv_pos_site_id
 _symmetry_equiv_pos_as_xyz
  1  'x, y, z'
loop_
 _atom_site_type_symbol
 _atom_site_label
 _atom_site_symmetry_multiplicity
 _atom_site_fract_x
 _atom_site_fract_y
 _atom_site_fract_z
 _atom_site_occupancy
  Li  Li0  1  0.00000000  0.00000000  0.00000000  1
  Li  Li1  1  0.00000000  0.50000000  0.25000000  1
  Li  Li2  1  0.50000000  0.50000000  0.50000000  1
  Li  Li3  1  0.50000000  0.00000000  0.75000000  1
  Sc  Sc4  1  0.50000000  0.00000000  0.25000000  1
  Sc  Sc5  1  0.50000000  0.50000000  0.00000000  1
  Sc  Sc6  1  0.00000000  0.50000000  0.75000000  1
  Sc  Sc7  1  0.00000000  0.00000000  0.50000000  1
  F  F8  1  0.28961100  0.17821200  0.08047400  1
  F  F9  1  0.71038900  0.82178800  0.08047400  1
  F  F10  1  0.82178800  0.78961100  0.33047400  1
  F  F11  1  0.67821200  0.21038900  0.41952600  1
  F  F12  1  0.32178800  0.78961100  0.41952600  1
  F  F13  1  0.28961100  0.67821200  0.16952600  1
  F  F14  1  0.17821200  0.21038900  0.33047400  1
  F  F15  1  0.71038900  0.32178800  0.16952600  1
  F  F16  1  0.78961100  0.67821200  0.58047400  1
  F  F17  1  0.21038900  0.32178800  0.58047400  1
  F  F18  1  0.32178800  0.28961100  0.83047400  1
  F  F19  1  0.17821200  0.71038900  0.91952600  1
  F  F20  1  0.82178800  0.28961100  0.91952600  1
  F  F21  1  0.78961100  0.17821200  0.66952600  1
  F  F22  1  0.67821200  0.71038900  0.83047400  1
  F  F23  1  0.21038900  0.82178800  0.66952600  1
