# generated using pymatgen
data_Cs(BCl)6
_symmetry_space_group_name_H-M   'P 1'
_cell_length_a   9.74451174
_cell_length_b   9.74451174
_cell_length_c   46.34777689
_cell_angle_alpha   90.00000000
_cell_angle_beta   90.00000000
_cell_angle_gamma   120.00000000
_symmetry_Int_Tables_number   1
_chemical_formula_structural   Cs(BCl)6
_chemical_formula_sum   'Cs12 B72 Cl72'
_cell_volume   3811.35766509
_cell_formula_units_Z   12
loop_
 _symmetry_equiv_pos_site_id
 _symmetry_equiv_pos_as_xyz
  1  'x, y, z'
loop_
 _atom_site_type_symbol
 _atom_site_label
 _atom_site_symmetry_multiplicity
 _atom_site_fract_x
 _atom_site_fract_y
 _atom_site_fract_z
 _atom_site_occupancy
  Cs  Cs0  1  0.00000000  0.00000000  0.20840000  1
  Cs  Cs1  1  0.33333333  0.66666667  0.03982667  1
  Cs  Cs2  1  0.33333333  0.66666667  0.29350667  1
  Cs  Cs3  1  0.66666667  0.33333333  0.12493333  1
  Cs  Cs4  1  0.66666667  0.33333333  0.54173333  1
  Cs  Cs5  1  0.00000000  0.00000000  0.37316000  1
  Cs  Cs6  1  0.00000000  0.00000000  0.62684000  1
  Cs  Cs7  1  0.33333333  0.66666667  0.45826667  1
  Cs  Cs8  1  0.33333333  0.66666667  0.87506667  1
  Cs  Cs9  1  0.66666667  0.33333333  0.70649333  1
  Cs  Cs10  1  0.66666667  0.33333333  0.96017333  1
  Cs  Cs11  1  0.00000000  0.00000000  0.79160000  1
  B  B12  1  0.18868500  0.47679700  0.15971400  1
  B  B13  1  0.47798167  0.85653633  0.17361933  1
  B  B14  1  0.09577533  0.98120867  0.02935067  1
  B  B15  1  0.42268200  0.78425000  0.13746300  1
  B  B16  1  0.88543333  0.90422467  0.02935067  1
  B  B17  1  0.36156800  0.57731800  0.13746300  1
  B  B18  1  0.45091667  0.69490133  0.19587033  1
  B  B19  1  0.69735933  0.51765067  0.32635267  1
  B  B20  1  0.82029133  0.30264067  0.32635267  1
  B  B21  1  0.30509867  0.75601533  0.19587033  1
  B  B22  1  0.52320300  0.71188800  0.15971400  1
  B  B23  1  0.01879133  0.11456667  0.02935067  1
  B  B24  1  0.21575000  0.63843200  0.13746300  1
  B  B25  1  0.96930733  0.81568267  0.00698067  1
  B  B26  1  0.57089133  0.35212467  0.30398267  1
  B  B27  1  0.37855467  0.52201833  0.17361933  1
  B  B28  1  0.48234933  0.17970867  0.32635267  1
  B  B29  1  0.78123333  0.42910867  0.30398267  1
  B  B30  1  0.64787533  0.21876667  0.30398267  1
  B  B31  1  0.84637533  0.03069267  0.00698067  1
  B  B32  1  0.14346367  0.62144533  0.17361933  1
  B  B33  1  0.24398467  0.54908333  0.19587033  1
  B  B34  1  0.28811200  0.81131500  0.15971400  1
  B  B35  1  0.18431733  0.15362467  0.00698067  1
  B  B36  1  0.85535167  0.81013033  0.49304733  1
  B  B37  1  0.14464833  0.18986967  0.50695267  1
  B  B38  1  0.76244200  0.31454200  0.36268400  1
  B  B39  1  0.08934867  0.11758333  0.47079633  1
  B  B40  1  0.55210000  0.23755800  0.36268400  1
  B  B41  1  0.02823467  0.91065133  0.47079633  1
  B  B42  1  0.11758333  0.02823467  0.52920367  1
  B  B43  1  0.36402600  0.85098400  0.65968600  1
  B  B44  1  0.48695800  0.63597400  0.65968600  1
  B  B45  1  0.97176533  0.08934867  0.52920367  1
  B  B46  1  0.18986967  0.04522133  0.49304733  1
  B  B47  1  0.68545800  0.44790000  0.36268400  1
  B  B48  1  0.88241667  0.97176533  0.47079633  1
  B  B49  1  0.63597400  0.14901600  0.34031400  1
  B  B50  1  0.23755800  0.68545800  0.63731600  1
  B  B51  1  0.04522133  0.85535167  0.50695267  1
  B  B52  1  0.14901600  0.51304200  0.65968600  1
  B  B53  1  0.44790000  0.76244200  0.63731600  1
  B  B54  1  0.31454200  0.55210000  0.63731600  1
  B  B55  1  0.51304200  0.36402600  0.34031400  1
  B  B56  1  0.81013033  0.95477867  0.50695267  1
  B  B57  1  0.91065133  0.88241667  0.52920367  1
  B  B58  1  0.95477867  0.14464833  0.49304733  1
  B  B59  1  0.85098400  0.48695800  0.34031400  1
  B  B60  1  0.52201833  0.14346367  0.82638067  1
  B  B61  1  0.81131500  0.52320300  0.84028600  1
  B  B62  1  0.42910867  0.64787533  0.69601733  1
  B  B63  1  0.75601533  0.45091667  0.80412967  1
  B  B64  1  0.21876667  0.57089133  0.69601733  1
  B  B65  1  0.69490133  0.24398467  0.80412967  1
  B  B66  1  0.78425000  0.36156800  0.86253700  1
  B  B67  1  0.03069267  0.18431733  0.99301933  1
  B  B68  1  0.15362467  0.96930733  0.99301933  1
  B  B69  1  0.63843200  0.42268200  0.86253700  1
  B  B70  1  0.85653633  0.37855467  0.82638067  1
  B  B71  1  0.35212467  0.78123333  0.69601733  1
  B  B72  1  0.54908333  0.30509867  0.80412967  1
  B  B73  1  0.30264067  0.48234933  0.67364733  1
  B  B74  1  0.90422467  0.01879133  0.97064933  1
  B  B75  1  0.71188800  0.18868500  0.84028600  1
  B  B76  1  0.81568267  0.84637533  0.99301933  1
  B  B77  1  0.11456667  0.09577533  0.97064933  1
  B  B78  1  0.98120867  0.88543333  0.97064933  1
  B  B79  1  0.17970867  0.69735933  0.67364733  1
  B  B80  1  0.47679700  0.28811200  0.84028600  1
  B  B81  1  0.57731800  0.21575000  0.86253700  1
  B  B82  1  0.62144533  0.47798167  0.82638067  1
  B  B83  1  0.51765067  0.82029133  0.67364733  1
  Cl  Cl84  1  0.72220533  0.75787567  0.15172967  1
  Cl  Cl85  1  0.73024733  0.71265367  0.31843967  1
  Cl  Cl86  1  0.24212433  0.96432967  0.15172967  1
  Cl  Cl87  1  0.42454233  0.36900367  0.18160367  1
  Cl  Cl88  1  0.37932033  0.31573967  0.01489367  1
  Cl  Cl89  1  0.76404167  0.80184033  0.05988333  1
  Cl  Cl90  1  0.28734633  0.01759367  0.31843967  1
  Cl  Cl91  1  0.27496967  0.85097333  0.22655333  1
  Cl  Cl92  1  0.93641933  0.62067967  0.01489367  1
  Cl  Cl93  1  0.39169700  0.48236000  0.10678000  1
  Cl  Cl94  1  0.46850700  0.37113200  0.27345000  1
  Cl  Cl95  1  0.90262500  0.53149300  0.27345000  1
  Cl  Cl96  1  0.03567033  0.27779467  0.15172967  1
  Cl  Cl97  1  0.14902667  0.42399633  0.22655333  1
  Cl  Cl98  1  0.62886800  0.09737500  0.27345000  1
  Cl  Cl99  1  0.51764000  0.90933700  0.10678000  1
  Cl  Cl100  1  0.68426033  0.06358067  0.01489367  1
  Cl  Cl101  1  0.57600367  0.72503033  0.22655333  1
  Cl  Cl102  1  0.19815967  0.96220133  0.05988333  1
  Cl  Cl103  1  0.03779867  0.23595833  0.05988333  1
  Cl  Cl104  1  0.94446133  0.57545767  0.18160367  1
  Cl  Cl105  1  0.09066300  0.60830300  0.10678000  1
  Cl  Cl106  1  0.98240633  0.26975267  0.31843967  1
  Cl  Cl107  1  0.63099633  0.05553867  0.18160367  1
  Cl  Cl108  1  0.38887200  0.09120900  0.48506300  1
  Cl  Cl109  1  0.39691400  0.04598700  0.65177300  1
  Cl  Cl110  1  0.90879100  0.29766300  0.48506300  1
  Cl  Cl111  1  0.09120900  0.70233700  0.51493700  1
  Cl  Cl112  1  0.04598700  0.64907300  0.34822700  1
  Cl  Cl113  1  0.43070833  0.13517367  0.39321667  1
  Cl  Cl114  1  0.95401300  0.35092700  0.65177300  1
  Cl  Cl115  1  0.94163633  0.18430667  0.55988667  1
  Cl  Cl116  1  0.60308600  0.95401300  0.34822700  1
  Cl  Cl117  1  0.05836367  0.81569333  0.44011333  1
  Cl  Cl118  1  0.13517367  0.70446533  0.60678333  1
  Cl  Cl119  1  0.56929167  0.86482633  0.60678333  1
  Cl  Cl120  1  0.70233700  0.61112800  0.48506300  1
  Cl  Cl121  1  0.81569333  0.75732967  0.55988667  1
  Cl  Cl122  1  0.29553467  0.43070833  0.60678333  1
  Cl  Cl123  1  0.18430667  0.24267033  0.44011333  1
  Cl  Cl124  1  0.35092700  0.39691400  0.34822700  1
  Cl  Cl125  1  0.24267033  0.05836367  0.55988667  1
  Cl  Cl126  1  0.86482633  0.29553467  0.39321667  1
  Cl  Cl127  1  0.70446533  0.56929167  0.39321667  1
  Cl  Cl128  1  0.61112800  0.90879100  0.51493700  1
  Cl  Cl129  1  0.75732967  0.94163633  0.44011333  1
  Cl  Cl130  1  0.64907300  0.60308600  0.65177300  1
  Cl  Cl131  1  0.29766300  0.38887200  0.51493700  1
  Cl  Cl132  1  0.05553867  0.42454233  0.81839633  1
  Cl  Cl133  1  0.06358067  0.37932033  0.98510633  1
  Cl  Cl134  1  0.57545767  0.63099633  0.81839633  1
  Cl  Cl135  1  0.75787567  0.03567033  0.84827033  1
  Cl  Cl136  1  0.71265367  0.98240633  0.68156033  1
  Cl  Cl137  1  0.09737500  0.46850700  0.72655000  1
  Cl  Cl138  1  0.62067967  0.68426033  0.98510633  1
  Cl  Cl139  1  0.60830300  0.51764000  0.89322000  1
  Cl  Cl140  1  0.26975267  0.28734633  0.68156033  1
  Cl  Cl141  1  0.72503033  0.14902667  0.77344667  1
  Cl  Cl142  1  0.80184033  0.03779867  0.94011667  1
  Cl  Cl143  1  0.23595833  0.19815967  0.94011667  1
  Cl  Cl144  1  0.36900367  0.94446133  0.81839633  1
  Cl  Cl145  1  0.48236000  0.09066300  0.89322000  1
  Cl  Cl146  1  0.96220133  0.76404167  0.94011667  1
  Cl  Cl147  1  0.85097333  0.57600367  0.77344667  1
  Cl  Cl148  1  0.01759367  0.73024733  0.68156033  1
  Cl  Cl149  1  0.90933700  0.39169700  0.89322000  1
  Cl  Cl150  1  0.53149300  0.62886800  0.72655000  1
  Cl  Cl151  1  0.37113200  0.90262500  0.72655000  1
  Cl  Cl152  1  0.27779467  0.24212433  0.84827033  1
  Cl  Cl153  1  0.42399633  0.27496967  0.77344667  1
  Cl  Cl154  1  0.31573967  0.93641933  0.98510633  1
  Cl  Cl155  1  0.96432967  0.72220533  0.84827033  1
