# generated using pymatgen
data_Ho3Se4O12F
_symmetry_space_group_name_H-M   'P 1'
_cell_length_a   10.43498770
_cell_length_b   10.43498770
_cell_length_c   6.84493200
_cell_angle_alpha   90.00000000
_cell_angle_beta   90.00000000
_cell_angle_gamma   120.00000000
_symmetry_Int_Tables_number   1
_chemical_formula_structural   Ho3Se4O12F
_chemical_formula_sum   'Ho6 Se8 O24 F2'
_cell_volume   645.48128158
_cell_formula_units_Z   2
loop_
 _symmetry_equiv_pos_site_id
 _symmetry_equiv_pos_as_xyz
  1  'x, y, z'
loop_
 _atom_site_type_symbol
 _atom_site_label
 _atom_site_symmetry_multiplicity
 _atom_site_fract_x
 _atom_site_fract_y
 _atom_site_fract_z
 _atom_site_occupancy
  Ho  Ho0  1  0.53787450  0.46212550  0.70266600  1
  Ho  Ho1  1  0.92425100  0.46212550  0.70266600  1
  Ho  Ho2  1  0.07574900  0.53787450  0.20266600  1
  Ho  Ho3  1  0.46212550  0.53787450  0.20266600  1
  Ho  Ho4  1  0.53787450  0.07574900  0.70266600  1
  Ho  Ho5  1  0.46212550  0.92425100  0.20266600  1
  Se  Se6  1  0.15475100  0.84524900  0.43562300  1
  Se  Se7  1  0.15475100  0.30950200  0.43562300  1
  Se  Se8  1  0.66666667  0.33333333  0.26825200  1
  Se  Se9  1  0.69049800  0.84524900  0.43562300  1
  Se  Se10  1  0.84524900  0.15475100  0.93562300  1
  Se  Se11  1  0.33333333  0.66666667  0.76825200  1
  Se  Se12  1  0.84524900  0.69049800  0.93562300  1
  Se  Se13  1  0.30950200  0.15475100  0.93562300  1
  O  O14  1  0.41697300  0.08032600  0.00556200  1
  O  O15  1  0.33664700  0.41697300  0.50556200  1
  O  O16  1  0.83879800  0.41939900  0.38186600  1
  O  O17  1  0.91967400  0.58302700  0.00556200  1
  O  O18  1  0.81787600  0.18212400  0.69469100  1
  O  O19  1  0.58060100  0.16120200  0.38186600  1
  O  O20  1  0.81787600  0.63575200  0.69469100  1
  O  O21  1  0.58302700  0.91967400  0.50556200  1
  O  O22  1  0.41939900  0.58060100  0.88186600  1
  O  O23  1  0.33664700  0.91967400  0.50556200  1
  O  O24  1  0.18212400  0.81787600  0.19469100  1
  O  O25  1  0.41939900  0.83879800  0.88186600  1
  O  O26  1  0.08032600  0.41697300  0.50556200  1
  O  O27  1  0.16120200  0.58060100  0.88186600  1
  O  O28  1  0.63575200  0.81787600  0.19469100  1
  O  O29  1  0.91967400  0.33664700  0.00556200  1
  O  O30  1  0.18212400  0.36424800  0.19469100  1
  O  O31  1  0.41697300  0.33664700  0.00556200  1
  O  O32  1  0.58060100  0.41939900  0.38186600  1
  O  O33  1  0.36424800  0.18212400  0.69469100  1
  O  O34  1  0.58302700  0.66335300  0.50556200  1
  O  O35  1  0.66335300  0.58302700  0.00556200  1
  O  O36  1  0.08032600  0.66335300  0.50556200  1
  O  O37  1  0.66335300  0.08032600  0.00556200  1
  F  F38  1  0.33333333  0.66666667  0.24880500  1
  F  F39  1  0.66666667  0.33333333  0.74880500  1
