# generated using pymatgen
data_Sr2LaTa3O11
_symmetry_space_group_name_H-M   'P 1'
_cell_length_a   3.98083800
_cell_length_b   5.75800400
_cell_length_c   21.82494200
_cell_angle_alpha   90.00000000
_cell_angle_beta   90.00000000
_cell_angle_gamma   90.00000000
_symmetry_Int_Tables_number   1
_chemical_formula_structural   Sr2LaTa3O11
_chemical_formula_sum   'Sr4 La2 Ta6 O22'
_cell_volume   500.26436115
_cell_formula_units_Z   2
loop_
 _symmetry_equiv_pos_site_id
 _symmetry_equiv_pos_as_xyz
  1  'x, y, z'
loop_
 _atom_site_type_symbol
 _atom_site_label
 _atom_site_symmetry_multiplicity
 _atom_site_fract_x
 _atom_site_fract_y
 _atom_site_fract_z
 _atom_site_occupancy
  Sr  Sr0  1  0.50000000  0.50000000  0.70484000  1
  Sr  Sr1  1  0.00000000  0.00000000  0.79516000  1
  Sr  Sr2  1  0.00000000  0.00000000  0.20484000  1
  Sr  Sr3  1  0.50000000  0.50000000  0.29516000  1
  La  La4  1  0.00000000  0.50000000  0.00000000  1
  La  La5  1  0.50000000  0.00000000  0.50000000  1
  Ta  Ta6  1  0.00000000  0.00000000  0.63504500  1
  Ta  Ta7  1  0.50000000  0.50000000  0.86495500  1
  Ta  Ta8  1  0.50000000  0.00000000  0.00000000  1
  Ta  Ta9  1  0.50000000  0.50000000  0.13504500  1
  Ta  Ta10  1  0.00000000  0.00000000  0.36495500  1
  Ta  Ta11  1  0.00000000  0.50000000  0.50000000  1
  O  O12  1  0.00000000  0.76359450  0.55946250  1
  O  O13  1  0.00000000  0.23640550  0.55946250  1
  O  O14  1  0.50000000  0.26249400  0.80539400  1
  O  O15  1  0.00000000  0.76249400  0.69460600  1
  O  O16  1  0.50000000  0.73640550  0.94053750  1
  O  O17  1  0.50000000  0.26359450  0.94053750  1
  O  O18  1  0.00000000  0.00000000  0.00000000  1
  O  O19  1  0.50000000  0.00000000  0.62014300  1
  O  O20  1  0.00000000  0.50000000  0.87985700  1
  O  O21  1  0.00000000  0.23750600  0.69460600  1
  O  O22  1  0.50000000  0.73750600  0.80539400  1
  O  O23  1  0.50000000  0.26359450  0.05946250  1
  O  O24  1  0.50000000  0.73640550  0.05946250  1
  O  O25  1  0.00000000  0.76249400  0.30539400  1
  O  O26  1  0.50000000  0.26249400  0.19460600  1
  O  O27  1  0.00000000  0.23640550  0.44053750  1
  O  O28  1  0.00000000  0.76359450  0.44053750  1
  O  O29  1  0.50000000  0.50000000  0.50000000  1
  O  O30  1  0.00000000  0.50000000  0.12014300  1
  O  O31  1  0.50000000  0.00000000  0.37985700  1
  O  O32  1  0.50000000  0.73750600  0.19460600  1
  O  O33  1  0.00000000  0.23750600  0.30539400  1
