# generated using pymatgen
data_YTaO4
_symmetry_space_group_name_H-M   'P 1'
_cell_length_a   7.08221600
_cell_length_b   11.09048600
_cell_length_c   5.11944497
_cell_angle_alpha   90.00000000
_cell_angle_beta   130.94767201
_cell_angle_gamma   90.00000000
_symmetry_Int_Tables_number   1
_chemical_formula_structural   YTaO4
_chemical_formula_sum   'Y4 Ta4 O16'
_cell_volume   303.71550482
_cell_formula_units_Z   4
loop_
 _symmetry_equiv_pos_site_id
 _symmetry_equiv_pos_as_xyz
  1  'x, y, z'
loop_
 _atom_site_type_symbol
 _atom_site_label
 _atom_site_symmetry_multiplicity
 _atom_site_fract_x
 _atom_site_fract_y
 _atom_site_fract_z
 _atom_site_occupancy
  Y  Y0  1  0.50000000  0.36959900  0.75000000  1
  Y  Y1  1  0.00000000  0.13040100  0.25000000  1
  Y  Y2  1  0.00000000  0.86959900  0.75000000  1
  Y  Y3  1  0.50000000  0.63040100  0.25000000  1
  Ta  Ta4  1  0.00000000  0.39622200  0.75000000  1
  Ta  Ta5  1  0.50000000  0.10377800  0.25000000  1
  Ta  Ta6  1  0.50000000  0.89622200  0.75000000  1
  Ta  Ta7  1  0.00000000  0.60377800  0.25000000  1
  O  O8  1  0.75520350  0.46823050  0.29283500  1
  O  O9  1  0.65884200  0.20996100  0.16144700  1
  O  O10  1  0.74479650  0.03176950  0.70716500  1
  O  O11  1  0.15884200  0.29003900  0.66144700  1
  O  O12  1  0.24479650  0.46823050  0.20716500  1
  O  O13  1  0.34115800  0.20996100  0.33855300  1
  O  O14  1  0.84115800  0.29003900  0.83855300  1
  O  O15  1  0.25520350  0.03176950  0.79283500  1
  O  O16  1  0.25520350  0.96823050  0.29283500  1
  O  O17  1  0.15884200  0.70996100  0.16144700  1
  O  O18  1  0.24479650  0.53176950  0.70716500  1
  O  O19  1  0.65884200  0.79003900  0.66144700  1
  O  O20  1  0.74479650  0.96823050  0.20716500  1
  O  O21  1  0.84115800  0.70996100  0.33855300  1
  O  O22  1  0.34115800  0.79003900  0.83855300  1
  O  O23  1  0.75520350  0.53176950  0.79283500  1
