# generated using pymatgen
data_NbI2O
_symmetry_space_group_name_H-M   'P 1'
_cell_length_a   16.07996400
_cell_length_b   3.97272200
_cell_length_c   7.60452416
_cell_angle_alpha   90.00000000
_cell_angle_beta   104.96173803
_cell_angle_gamma   90.00000000
_symmetry_Int_Tables_number   1
_chemical_formula_structural   NbI2O
_chemical_formula_sum   'Nb4 I8 O4'
_cell_volume   469.31742225
_cell_formula_units_Z   4
loop_
 _symmetry_equiv_pos_site_id
 _symmetry_equiv_pos_as_xyz
  1  'x, y, z'
loop_
 _atom_site_type_symbol
 _atom_site_label
 _atom_site_symmetry_multiplicity
 _atom_site_fract_x
 _atom_site_fract_y
 _atom_site_fract_z
 _atom_site_occupancy
  Nb  Nb0  1  0.49970350  0.53652450  0.20829300  1
  Nb  Nb1  1  0.00029650  0.03652450  0.79170700  1
  Nb  Nb2  1  0.99970350  0.03652450  0.20829300  1
  Nb  Nb3  1  0.50029650  0.53652450  0.79170700  1
  I  I4  1  0.14801450  0.99797150  0.08183700  1
  I  I5  1  0.12150900  0.99378500  0.56573700  1
  I  I6  1  0.37849100  0.49378500  0.43426300  1
  I  I7  1  0.35198550  0.49797150  0.91816300  1
  I  I8  1  0.64801450  0.49797150  0.08183700  1
  I  I9  1  0.62150900  0.49378500  0.56573700  1
  I  I10  1  0.87849100  0.99378500  0.43426300  1
  I  I11  1  0.85198550  0.99797150  0.91816300  1
  O  O12  1  0.49954550  0.00228750  0.21285100  1
  O  O13  1  0.00045450  0.50228750  0.78714900  1
  O  O14  1  0.99954550  0.50228750  0.21285100  1
  O  O15  1  0.50045450  0.00228750  0.78714900  1
