# generated using pymatgen
data_Ca(BH4)2
_symmetry_space_group_name_H-M   'P 1'
_cell_length_a   7.35432200
_cell_length_b   8.76523200
_cell_length_c   13.35253500
_cell_angle_alpha   90.00000000
_cell_angle_beta   90.00000000
_cell_angle_gamma   90.00000000
_symmetry_Int_Tables_number   1
_chemical_formula_structural   Ca(BH4)2
_chemical_formula_sum   'Ca8 B16 H64'
_cell_volume   860.73563144
_cell_formula_units_Z   8
loop_
 _symmetry_equiv_pos_site_id
 _symmetry_equiv_pos_as_xyz
  1  'x, y, z'
loop_
 _atom_site_type_symbol
 _atom_site_label
 _atom_site_symmetry_multiplicity
 _atom_site_fract_x
 _atom_site_fract_y
 _atom_site_fract_z
 _atom_site_occupancy
  Ca  Ca0  1  0.68657800  0.43159700  0.88538000  1
  Ca  Ca1  1  0.31342200  0.06840300  0.38538000  1
  Ca  Ca2  1  0.81342200  0.93159700  0.11462000  1
  Ca  Ca3  1  0.18657800  0.56840300  0.61462000  1
  Ca  Ca4  1  0.31342200  0.56840300  0.11462000  1
  Ca  Ca5  1  0.68657800  0.93159700  0.61462000  1
  Ca  Ca6  1  0.81342200  0.43159700  0.38538000  1
  Ca  Ca7  1  0.18657800  0.06840300  0.88538000  1
  B  B8  1  0.53951400  0.05385600  0.21890600  1
  B  B9  1  0.46048600  0.44614400  0.71890600  1
  B  B10  1  0.85634200  0.68708400  0.51508000  1
  B  B11  1  0.96048600  0.55385600  0.78109400  1
  B  B12  1  0.35634200  0.81291600  0.51508000  1
  B  B13  1  0.03951400  0.94614400  0.28109400  1
  B  B14  1  0.64365800  0.18708400  0.48492000  1
  B  B15  1  0.14365800  0.31291600  0.48492000  1
  B  B16  1  0.53951400  0.55385600  0.28109400  1
  B  B17  1  0.46048600  0.94614400  0.78109400  1
  B  B18  1  0.03951400  0.44614400  0.21890600  1
  B  B19  1  0.85634200  0.18708400  0.98492000  1
  B  B20  1  0.64365800  0.68708400  0.01508000  1
  B  B21  1  0.14365800  0.81291600  0.01508000  1
  B  B22  1  0.96048600  0.05385600  0.71890600  1
  B  B23  1  0.35634200  0.31291600  0.98492000  1
  H  H24  1  0.99415400  0.48387200  0.85862100  1
  H  H25  1  0.27466700  0.89916200  0.01376900  1
  H  H26  1  0.51245000  0.63584100  0.96889600  1
  H  H27  1  0.49415400  0.01612800  0.85862100  1
  H  H28  1  0.72533300  0.10083800  0.98623100  1
  H  H29  1  0.50584600  0.98387200  0.14137900  1
  H  H30  1  0.91963200  0.35034800  0.22973200  1
  H  H31  1  0.08036800  0.64965200  0.77026800  1
  H  H32  1  0.98755000  0.63584100  0.46889600  1
  H  H33  1  0.31443700  0.37826400  0.71353300  1
  H  H34  1  0.81970500  0.80823300  0.47467100  1
  H  H35  1  0.81970500  0.30823300  0.02532900  1
  H  H36  1  0.45139200  0.53839800  0.78835900  1
  H  H37  1  0.99415400  0.98387200  0.64137900  1
  H  H38  1  0.77466700  0.10083800  0.48623100  1
  H  H39  1  0.45139200  0.03839800  0.71164100  1
  H  H40  1  0.60237400  0.70629200  0.10351400  1
  H  H41  1  0.95139200  0.46160200  0.71164100  1
  H  H42  1  0.54860800  0.46160200  0.21164100  1
  H  H43  1  0.48755000  0.86415900  0.46889600  1
  H  H44  1  0.27466700  0.39916200  0.48623100  1
  H  H45  1  0.77466700  0.60083800  0.01376900  1
  H  H46  1  0.39762600  0.29370800  0.89648600  1
  H  H47  1  0.95139200  0.96160200  0.78835900  1
  H  H48  1  0.54860800  0.96160200  0.28835900  1
  H  H49  1  0.18029500  0.69176700  0.97467100  1
  H  H50  1  0.31443700  0.87826400  0.78646700  1
  H  H51  1  0.58036800  0.35034800  0.72973200  1
  H  H52  1  0.31970500  0.19176700  0.02532900  1
  H  H53  1  0.08036800  0.14965200  0.72973200  1
  H  H54  1  0.41963200  0.14965200  0.22973200  1
  H  H55  1  0.41963200  0.64965200  0.27026800  1
  H  H56  1  0.98755000  0.13584100  0.03110400  1
  H  H57  1  0.18029500  0.19176700  0.52532900  1
  H  H58  1  0.68029500  0.30823300  0.52532900  1
  H  H59  1  0.00584600  0.01612800  0.35862100  1
  H  H60  1  0.89762600  0.70629200  0.60351400  1
  H  H61  1  0.04860800  0.53839800  0.28835900  1
  H  H62  1  0.51245000  0.13584100  0.53110400  1
  H  H63  1  0.58036800  0.85034800  0.77026800  1
  H  H64  1  0.72533300  0.60083800  0.51376900  1
  H  H65  1  0.81443700  0.12173600  0.71353300  1
  H  H66  1  0.68029500  0.80823300  0.97467100  1
  H  H67  1  0.10237400  0.29370800  0.39648600  1
  H  H68  1  0.10237400  0.79370800  0.10351400  1
  H  H69  1  0.60237400  0.20629200  0.39648600  1
  H  H70  1  0.50584600  0.48387200  0.35862100  1
  H  H71  1  0.48755000  0.36415900  0.03110400  1
  H  H72  1  0.91963200  0.85034800  0.27026800  1
  H  H73  1  0.49415400  0.51612800  0.64137900  1
  H  H74  1  0.31970500  0.69176700  0.47467100  1
  H  H75  1  0.01245000  0.86415900  0.96889600  1
  H  H76  1  0.18556300  0.87826400  0.28646700  1
  H  H77  1  0.68556300  0.12173600  0.21353300  1
  H  H78  1  0.04860800  0.03839800  0.21164100  1
  H  H79  1  0.01245000  0.36415900  0.53110400  1
  H  H80  1  0.18556300  0.37826400  0.21353300  1
  H  H81  1  0.39762600  0.79370800  0.60351400  1
  H  H82  1  0.22533300  0.89916200  0.51376900  1
  H  H83  1  0.81443700  0.62173600  0.78646700  1
  H  H84  1  0.00584600  0.51612800  0.14137900  1
  H  H85  1  0.22533300  0.39916200  0.98623100  1
  H  H86  1  0.89762600  0.20629200  0.89648600  1
  H  H87  1  0.68556300  0.62173600  0.28646700  1
