# generated using pymatgen
data_SmTiClO3
_symmetry_space_group_name_H-M   'P 1'
_cell_length_a   9.84766400
_cell_length_b   3.97446000
_cell_length_c   10.16217241
_cell_angle_alpha   90.00000000
_cell_angle_beta   106.66518415
_cell_angle_gamma   90.00000000
_symmetry_Int_Tables_number   1
_chemical_formula_structural   SmTiClO3
_chemical_formula_sum   'Sm4 Ti4 Cl4 O12'
_cell_volume   381.03250867
_cell_formula_units_Z   4
loop_
 _symmetry_equiv_pos_site_id
 _symmetry_equiv_pos_as_xyz
  1  'x, y, z'
loop_
 _atom_site_type_symbol
 _atom_site_label
 _atom_site_symmetry_multiplicity
 _atom_site_fract_x
 _atom_site_fract_y
 _atom_site_fract_z
 _atom_site_occupancy
  Sm  Sm0  1  0.72015900  0.50000000  0.20571700  1
  Sm  Sm1  1  0.27984100  0.50000000  0.79428300  1
  Sm  Sm2  1  0.22015900  0.00000000  0.20571700  1
  Sm  Sm3  1  0.77984100  0.00000000  0.79428300  1
  Ti  Ti4  1  0.12034400  0.50000000  0.43378500  1
  Ti  Ti5  1  0.87965600  0.50000000  0.56621500  1
  Ti  Ti6  1  0.62034400  0.00000000  0.43378500  1
  Ti  Ti7  1  0.37965600  0.00000000  0.56621500  1
  Cl  Cl8  1  0.88654300  0.00000000  0.09548800  1
  Cl  Cl9  1  0.11345700  0.00000000  0.90451200  1
  Cl  Cl10  1  0.38654300  0.50000000  0.09548800  1
  Cl  Cl11  1  0.61345700  0.50000000  0.90451200  1
  O  O12  1  0.16772800  0.00000000  0.43856000  1
  O  O13  1  0.64881200  0.00000000  0.25884100  1
  O  O14  1  0.83227200  0.00000000  0.56144000  1
  O  O15  1  0.92343800  0.50000000  0.37866000  1
  O  O16  1  0.35118800  0.00000000  0.74115900  1
  O  O17  1  0.07656200  0.50000000  0.62134000  1
  O  O18  1  0.66772800  0.50000000  0.43856000  1
  O  O19  1  0.14881200  0.50000000  0.25884100  1
  O  O20  1  0.33227200  0.50000000  0.56144000  1
  O  O21  1  0.42343800  0.00000000  0.37866000  1
  O  O22  1  0.85118800  0.50000000  0.74115900  1
  O  O23  1  0.57656200  0.00000000  0.62134000  1
