# generated using pymatgen
data_CaGeO3
_symmetry_space_group_name_H-M   'P 1'
_cell_length_a   12.67542000
_cell_length_b   12.67542000
_cell_length_c   12.51985600
_cell_angle_alpha   90.00000000
_cell_angle_beta   90.00000000
_cell_angle_gamma   90.00000000
_symmetry_Int_Tables_number   1
_chemical_formula_structural   CaGeO3
_chemical_formula_sum   'Ca32 Ge32 O96'
_cell_volume   2011.51859171
_cell_formula_units_Z   32
loop_
 _symmetry_equiv_pos_site_id
 _symmetry_equiv_pos_as_xyz
  1  'x, y, z'
loop_
 _atom_site_type_symbol
 _atom_site_label
 _atom_site_symmetry_multiplicity
 _atom_site_fract_x
 _atom_site_fract_y
 _atom_site_fract_z
 _atom_site_occupancy
  Ca  Ca0  1  0.24599500  0.37551200  0.87228000  1
  Ca  Ca1  1  0.75400500  0.12448800  0.87772000  1
  Ca  Ca2  1  0.50000000  0.75000000  0.37500000  1
  Ca  Ca3  1  0.25000000  0.50000000  0.62500000  1
  Ca  Ca4  1  0.50000000  0.00000000  0.49794350  1
  Ca  Ca5  1  0.37551200  0.25400500  0.62228000  1
  Ca  Ca6  1  0.50000000  0.50000000  0.25205650  1
  Ca  Ca7  1  0.12448800  0.24599500  0.12228000  1
  Ca  Ca8  1  0.50000000  0.50000000  0.74794350  1
  Ca  Ca9  1  0.75000000  0.50000000  0.62500000  1
  Ca  Ca10  1  0.87551200  0.25400500  0.62772000  1
  Ca  Ca11  1  0.25400500  0.12448800  0.37228000  1
  Ca  Ca12  1  0.62448800  0.24599500  0.12772000  1
  Ca  Ca13  1  0.74599500  0.37551200  0.37772000  1
  Ca  Ca14  1  0.50000000  0.00000000  0.00205650  1
  Ca  Ca15  1  0.50000000  0.25000000  0.37500000  1
  Ca  Ca16  1  0.74599500  0.87551200  0.37228000  1
  Ca  Ca17  1  0.25400500  0.62448800  0.37772000  1
  Ca  Ca18  1  0.00000000  0.25000000  0.87500000  1
  Ca  Ca19  1  0.75000000  0.00000000  0.12500000  1
  Ca  Ca20  1  0.00000000  0.50000000  0.99794350  1
  Ca  Ca21  1  0.87551200  0.75400500  0.12228000  1
  Ca  Ca22  1  0.00000000  0.00000000  0.75205650  1
  Ca  Ca23  1  0.62448800  0.74599500  0.62228000  1
  Ca  Ca24  1  0.00000000  0.00000000  0.24794350  1
  Ca  Ca25  1  0.25000000  0.00000000  0.12500000  1
  Ca  Ca26  1  0.37551200  0.75400500  0.12772000  1
  Ca  Ca27  1  0.75400500  0.62448800  0.87228000  1
  Ca  Ca28  1  0.12448800  0.74599500  0.62772000  1
  Ca  Ca29  1  0.24599500  0.87551200  0.87772000  1
  Ca  Ca30  1  0.00000000  0.50000000  0.50205650  1
  Ca  Ca31  1  0.00000000  0.75000000  0.87500000  1
  Ge  Ge32  1  0.12636500  0.23510700  0.61845700  1
  Ge  Ge33  1  0.75000000  0.50000000  0.12500000  1
  Ge  Ge34  1  0.73510700  0.87363500  0.86845700  1
  Ge  Ge35  1  0.23510700  0.87363500  0.38154300  1
  Ge  Ge36  1  0.50000000  0.00000000  0.75000000  1
  Ge  Ge37  1  0.00000000  0.00000000  0.50000000  1
  Ge  Ge38  1  0.76489300  0.62636500  0.36845700  1
  Ge  Ge39  1  0.87363500  0.76489300  0.61845700  1
  Ge  Ge40  1  0.62636500  0.23510700  0.63154300  1
  Ge  Ge41  1  0.50000000  0.50000000  0.50000000  1
  Ge  Ge42  1  0.50000000  0.00000000  0.25000000  1
  Ge  Ge43  1  0.87363500  0.26489300  0.13154300  1
  Ge  Ge44  1  0.50000000  0.25000000  0.87500000  1
  Ge  Ge45  1  0.76489300  0.12636500  0.38154300  1
  Ge  Ge46  1  0.00000000  0.25000000  0.37500000  1
  Ge  Ge47  1  0.75000000  0.00000000  0.62500000  1
  Ge  Ge48  1  0.62636500  0.73510700  0.11845700  1
  Ge  Ge49  1  0.25000000  0.00000000  0.62500000  1
  Ge  Ge50  1  0.23510700  0.37363500  0.36845700  1
  Ge  Ge51  1  0.73510700  0.37363500  0.88154300  1
  Ge  Ge52  1  0.00000000  0.50000000  0.25000000  1
  Ge  Ge53  1  0.50000000  0.50000000  0.00000000  1
  Ge  Ge54  1  0.26489300  0.12636500  0.86845700  1
  Ge  Ge55  1  0.37363500  0.26489300  0.11845700  1
  Ge  Ge56  1  0.12636500  0.73510700  0.13154300  1
  Ge  Ge57  1  0.00000000  0.00000000  0.00000000  1
  Ge  Ge58  1  0.00000000  0.50000000  0.75000000  1
  Ge  Ge59  1  0.37363500  0.76489300  0.63154300  1
  Ge  Ge60  1  0.00000000  0.75000000  0.37500000  1
  Ge  Ge61  1  0.26489300  0.62636500  0.88154300  1
  Ge  Ge62  1  0.50000000  0.75000000  0.87500000  1
  Ge  Ge63  1  0.25000000  0.50000000  0.12500000  1
  O  O64  1  0.41654200  0.43295200  0.59222900  1
  O  O65  1  0.95905900  0.39753400  0.34118400  1
  O  O66  1  0.91654200  0.43295200  0.65777100  1
  O  O67  1  0.43295200  0.08345800  0.34222900  1
  O  O68  1  0.97008800  0.81577700  0.70441800  1
  O  O69  1  0.68422300  0.97008800  0.95441800  1
  O  O70  1  0.54094100  0.10246600  0.84118400  1
  O  O71  1  0.72434050  0.63951650  0.06832650  1
  O  O72  1  0.71176750  0.32835750  0.57539250  1
  O  O73  1  0.02991200  0.18422300  0.70441800  1
  O  O74  1  0.77565950  0.36048350  0.18167350  1
  O  O75  1  0.28823250  0.17164250  0.17460750  1
  O  O76  1  0.97008800  0.31577700  0.04558200  1
  O  O77  1  0.70653450  0.04172850  0.48505750  1
  O  O78  1  0.60246600  0.95905900  0.65881600  1
  O  O79  1  0.89753400  0.54094100  0.15881600  1
  O  O80  1  0.89753400  0.04094100  0.59118400  1
  O  O81  1  0.81577700  0.02991200  0.29558200  1
  O  O82  1  0.58345800  0.06704800  0.15777100  1
  O  O83  1  0.54172850  0.29346550  0.73505750  1
  O  O84  1  0.81577700  0.52991200  0.45441800  1
  O  O85  1  0.04094100  0.10246600  0.40881600  1
  O  O86  1  0.67164250  0.71176750  0.42460750  1
  O  O87  1  0.36048350  0.22434050  0.81832650  1
  O  O88  1  0.43295200  0.58345800  0.40777100  1
  O  O89  1  0.45827150  0.20653450  0.01494250  1
  O  O90  1  0.18422300  0.97008800  0.29558200  1
  O  O91  1  0.04172850  0.29346550  0.51494250  1
  O  O92  1  0.28823250  0.67164250  0.57539250  1
  O  O93  1  0.95827150  0.20653450  0.23505750  1
  O  O94  1  0.77565950  0.86048350  0.56832650  1
  O  O95  1  0.82835750  0.28823250  0.82539250  1
  O  O96  1  0.67164250  0.21176750  0.32539250  1
  O  O97  1  0.52991200  0.18422300  0.54558200  1
  O  O98  1  0.21176750  0.32835750  0.67460750  1
  O  O99  1  0.06704800  0.41654200  0.84222900  1
  O  O100  1  0.79346550  0.95827150  0.76494250  1
  O  O101  1  0.70653450  0.54172850  0.26494250  1
  O  O102  1  0.95905900  0.89753400  0.40881600  1
  O  O103  1  0.79346550  0.45827150  0.98505750  1
  O  O104  1  0.86048350  0.22434050  0.43167350  1
  O  O105  1  0.58345800  0.56704800  0.59222900  1
  O  O106  1  0.10246600  0.95905900  0.59118400  1
  O  O107  1  0.56704800  0.41654200  0.40777100  1
  O  O108  1  0.72434050  0.13951650  0.68167350  1
  O  O109  1  0.63951650  0.27565950  0.93167350  1
  O  O110  1  0.13951650  0.27565950  0.31832650  1
  O  O111  1  0.32835750  0.28823250  0.42460750  1
  O  O112  1  0.91654200  0.93295200  0.09222900  1
  O  O113  1  0.45905900  0.89753400  0.84118400  1
  O  O114  1  0.41654200  0.93295200  0.15777100  1
  O  O115  1  0.93295200  0.58345800  0.84222900  1
  O  O116  1  0.47008800  0.31577700  0.20441800  1
  O  O117  1  0.18422300  0.47008800  0.45441800  1
  O  O118  1  0.04094100  0.60246600  0.34118400  1
  O  O119  1  0.22434050  0.13951650  0.56832650  1
  O  O120  1  0.21176750  0.82835750  0.07539250  1
  O  O121  1  0.52991200  0.68422300  0.20441800  1
  O  O122  1  0.27565950  0.86048350  0.68167350  1
  O  O123  1  0.78823250  0.67164250  0.67460750  1
  O  O124  1  0.47008800  0.81577700  0.54558200  1
  O  O125  1  0.20653450  0.54172850  0.98505750  1
  O  O126  1  0.10246600  0.45905900  0.15881600  1
  O  O127  1  0.39753400  0.04094100  0.65881600  1
  O  O128  1  0.39753400  0.54094100  0.09118400  1
  O  O129  1  0.31577700  0.52991200  0.79558200  1
  O  O130  1  0.08345800  0.56704800  0.65777100  1
  O  O131  1  0.04172850  0.79346550  0.23505750  1
  O  O132  1  0.31577700  0.02991200  0.95441800  1
  O  O133  1  0.54094100  0.60246600  0.90881600  1
  O  O134  1  0.17164250  0.21176750  0.92460750  1
  O  O135  1  0.86048350  0.72434050  0.31832650  1
  O  O136  1  0.93295200  0.08345800  0.90777100  1
  O  O137  1  0.95827150  0.70653450  0.51494250  1
  O  O138  1  0.68422300  0.47008800  0.79558200  1
  O  O139  1  0.54172850  0.79346550  0.01494250  1
  O  O140  1  0.78823250  0.17164250  0.07539250  1
  O  O141  1  0.45827150  0.70653450  0.73505750  1
  O  O142  1  0.27565950  0.36048350  0.06832650  1
  O  O143  1  0.32835750  0.78823250  0.32539250  1
  O  O144  1  0.17164250  0.71176750  0.82539250  1
  O  O145  1  0.02991200  0.68422300  0.04558200  1
  O  O146  1  0.71176750  0.82835750  0.17460750  1
  O  O147  1  0.56704800  0.91654200  0.34222900  1
  O  O148  1  0.29346550  0.45827150  0.26494250  1
  O  O149  1  0.20653450  0.04172850  0.76494250  1
  O  O150  1  0.45905900  0.39753400  0.90881600  1
  O  O151  1  0.29346550  0.95827150  0.48505750  1
  O  O152  1  0.36048350  0.72434050  0.93167350  1
  O  O153  1  0.08345800  0.06704800  0.09222900  1
  O  O154  1  0.60246600  0.45905900  0.09118400  1
  O  O155  1  0.06704800  0.91654200  0.90777100  1
  O  O156  1  0.22434050  0.63951650  0.18167350  1
  O  O157  1  0.13951650  0.77565950  0.43167350  1
  O  O158  1  0.63951650  0.77565950  0.81832650  1
  O  O159  1  0.82835750  0.78823250  0.92460750  1
