# generated using pymatgen
data_SbSNCl5
_symmetry_space_group_name_H-M   'P 1'
_cell_length_a   15.48071600
_cell_length_b   15.48071600
_cell_length_c   16.60096400
_cell_angle_alpha   90.00000000
_cell_angle_beta   90.00000000
_cell_angle_gamma   90.00000000
_symmetry_Int_Tables_number   1
_chemical_formula_structural   SbSNCl5
_chemical_formula_sum   'Sb16 S16 N16 Cl80'
_cell_volume   3978.46365176
_cell_formula_units_Z   16
loop_
 _symmetry_equiv_pos_site_id
 _symmetry_equiv_pos_as_xyz
  1  'x, y, z'
loop_
 _atom_site_type_symbol
 _atom_site_label
 _atom_site_symmetry_multiplicity
 _atom_site_fract_x
 _atom_site_fract_y
 _atom_site_fract_z
 _atom_site_occupancy
  Sb  Sb0  1  0.25000000  0.53996900  0.37500000  1
  Sb  Sb1  1  0.25000000  0.52002600  0.87500000  1
  Sb  Sb2  1  0.47997400  0.25000000  0.12500000  1
  Sb  Sb3  1  0.02002600  0.25000000  0.62500000  1
  Sb  Sb4  1  0.75000000  0.46003100  0.37500000  1
  Sb  Sb5  1  0.25000000  0.97997400  0.37500000  1
  Sb  Sb6  1  0.03996900  0.25000000  0.12500000  1
  Sb  Sb7  1  0.96003100  0.75000000  0.12500000  1
  Sb  Sb8  1  0.75000000  0.03996900  0.87500000  1
  Sb  Sb9  1  0.75000000  0.02002600  0.37500000  1
  Sb  Sb10  1  0.97997400  0.75000000  0.62500000  1
  Sb  Sb11  1  0.52002600  0.75000000  0.12500000  1
  Sb  Sb12  1  0.25000000  0.96003100  0.87500000  1
  Sb  Sb13  1  0.75000000  0.47997400  0.87500000  1
  Sb  Sb14  1  0.53996900  0.75000000  0.62500000  1
  Sb  Sb15  1  0.46003100  0.25000000  0.62500000  1
  S  S16  1  0.24041450  0.32770450  0.60931250  1
  S  S17  1  0.32770450  0.75958550  0.39068750  1
  S  S18  1  0.67229550  0.25958550  0.85931250  1
  S  S19  1  0.24041450  0.17229550  0.64068750  1
  S  S20  1  0.17229550  0.74041450  0.89068750  1
  S  S21  1  0.25958550  0.17229550  0.10931250  1
  S  S22  1  0.25958550  0.32770450  0.14068750  1
  S  S23  1  0.82770450  0.24041450  0.35931250  1
  S  S24  1  0.74041450  0.82770450  0.10931250  1
  S  S25  1  0.82770450  0.25958550  0.89068750  1
  S  S26  1  0.17229550  0.75958550  0.35931250  1
  S  S27  1  0.74041450  0.67229550  0.14068750  1
  S  S28  1  0.67229550  0.24041450  0.39068750  1
  S  S29  1  0.75958550  0.67229550  0.60931250  1
  S  S30  1  0.75958550  0.82770450  0.64068750  1
  S  S31  1  0.32770450  0.74041450  0.85931250  1
  N  N32  1  0.75000000  0.31212600  0.37500000  1
  N  N33  1  0.75000000  0.18787400  0.87500000  1
  N  N34  1  0.16877200  0.25000000  0.62500000  1
  N  N35  1  0.18787400  0.25000000  0.12500000  1
  N  N36  1  0.25000000  0.66877200  0.87500000  1
  N  N37  1  0.33122800  0.25000000  0.12500000  1
  N  N38  1  0.25000000  0.83122800  0.37500000  1
  N  N39  1  0.31212600  0.25000000  0.62500000  1
  N  N40  1  0.25000000  0.81212600  0.87500000  1
  N  N41  1  0.25000000  0.68787400  0.37500000  1
  N  N42  1  0.66877200  0.75000000  0.12500000  1
  N  N43  1  0.68787400  0.75000000  0.62500000  1
  N  N44  1  0.75000000  0.16877200  0.37500000  1
  N  N45  1  0.83122800  0.75000000  0.62500000  1
  N  N46  1  0.75000000  0.33122800  0.87500000  1
  N  N47  1  0.81212600  0.75000000  0.12500000  1
  Cl  Cl48  1  0.04833800  0.39463600  0.58190200  1
  Cl  Cl49  1  0.25000000  0.36794700  0.87500000  1
  Cl  Cl50  1  0.45166200  0.10536400  0.08190200  1
  Cl  Cl51  1  0.70279850  0.02883050  0.23887650  1
  Cl  Cl52  1  0.76776200  0.45126700  0.51713800  1
  Cl  Cl53  1  0.47116950  0.29720150  0.98887650  1
  Cl  Cl54  1  0.10536400  0.54833800  0.91809800  1
  Cl  Cl55  1  0.04873300  0.26776200  0.98286200  1
  Cl  Cl56  1  0.26776200  0.54873300  0.23286200  1
  Cl  Cl57  1  0.43280100  0.40096400  0.60778200  1
  Cl  Cl58  1  0.25000000  0.38750400  0.37500000  1
  Cl  Cl59  1  0.02883050  0.20279850  0.48887650  1
  Cl  Cl60  1  0.29720150  0.97116950  0.23887650  1
  Cl  Cl61  1  0.63205300  0.25000000  0.12500000  1
  Cl  Cl62  1  0.11249600  0.75000000  0.12500000  1
  Cl  Cl63  1  0.09903600  0.93280100  0.89221800  1
  Cl  Cl64  1  0.25000000  0.13205300  0.37500000  1
  Cl  Cl65  1  0.23223800  0.95126700  0.73286200  1
  Cl  Cl66  1  0.93280100  0.59903600  0.14221800  1
  Cl  Cl67  1  0.90096400  0.43280100  0.35778200  1
  Cl  Cl68  1  0.39463600  0.95166200  0.41809800  1
  Cl  Cl69  1  0.20279850  0.97116950  0.51112350  1
  Cl  Cl70  1  0.52883050  0.79720150  0.26112350  1
  Cl  Cl71  1  0.04833800  0.10536400  0.66809800  1
  Cl  Cl72  1  0.47116950  0.20279850  0.26112350  1
  Cl  Cl73  1  0.04873300  0.23223800  0.26713800  1
  Cl  Cl74  1  0.09903600  0.56719900  0.35778200  1
  Cl  Cl75  1  0.45126700  0.26776200  0.76713800  1
  Cl  Cl76  1  0.45126700  0.23223800  0.48286200  1
  Cl  Cl77  1  0.88750400  0.25000000  0.12500000  1
  Cl  Cl78  1  0.29720150  0.52883050  0.01112350  1
  Cl  Cl79  1  0.73223800  0.04873300  0.01713800  1
  Cl  Cl80  1  0.39463600  0.54833800  0.83190200  1
  Cl  Cl81  1  0.06719900  0.40096400  0.14221800  1
  Cl  Cl82  1  0.86794700  0.25000000  0.62500000  1
  Cl  Cl83  1  0.06719900  0.09903600  0.10778200  1
  Cl  Cl84  1  0.75000000  0.61249600  0.37500000  1
  Cl  Cl85  1  0.40096400  0.56719900  0.39221800  1
  Cl  Cl86  1  0.10536400  0.95166200  0.33190200  1
  Cl  Cl87  1  0.45166200  0.39463600  0.16809800  1
  Cl  Cl88  1  0.54833800  0.89463600  0.08190200  1
  Cl  Cl89  1  0.75000000  0.86794700  0.37500000  1
  Cl  Cl90  1  0.95166200  0.60536400  0.58190200  1
  Cl  Cl91  1  0.20279850  0.52883050  0.73887650  1
  Cl  Cl92  1  0.26776200  0.95126700  0.01713800  1
  Cl  Cl93  1  0.97116950  0.79720150  0.48887650  1
  Cl  Cl94  1  0.60536400  0.04833800  0.41809800  1
  Cl  Cl95  1  0.54873300  0.76776200  0.48286200  1
  Cl  Cl96  1  0.76776200  0.04873300  0.73286200  1
  Cl  Cl97  1  0.93280100  0.90096400  0.10778200  1
  Cl  Cl98  1  0.75000000  0.88750400  0.87500000  1
  Cl  Cl99  1  0.52883050  0.70279850  0.98887650  1
  Cl  Cl100  1  0.79720150  0.47116950  0.73887650  1
  Cl  Cl101  1  0.13205300  0.75000000  0.62500000  1
  Cl  Cl102  1  0.61249600  0.25000000  0.62500000  1
  Cl  Cl103  1  0.59903600  0.43280100  0.39221800  1
  Cl  Cl104  1  0.75000000  0.63205300  0.87500000  1
  Cl  Cl105  1  0.73223800  0.45126700  0.23286200  1
  Cl  Cl106  1  0.43280100  0.09903600  0.64221800  1
  Cl  Cl107  1  0.40096400  0.93280100  0.85778200  1
  Cl  Cl108  1  0.89463600  0.45166200  0.91809800  1
  Cl  Cl109  1  0.70279850  0.47116950  0.01112350  1
  Cl  Cl110  1  0.02883050  0.29720150  0.76112350  1
  Cl  Cl111  1  0.54833800  0.60536400  0.16809800  1
  Cl  Cl112  1  0.97116950  0.70279850  0.76112350  1
  Cl  Cl113  1  0.54873300  0.73223800  0.76713800  1
  Cl  Cl114  1  0.59903600  0.06719900  0.85778200  1
  Cl  Cl115  1  0.95126700  0.76776200  0.26713800  1
  Cl  Cl116  1  0.95126700  0.73223800  0.98286200  1
  Cl  Cl117  1  0.38750400  0.75000000  0.62500000  1
  Cl  Cl118  1  0.79720150  0.02883050  0.51112350  1
  Cl  Cl119  1  0.23223800  0.54873300  0.51713800  1
  Cl  Cl120  1  0.89463600  0.04833800  0.33190200  1
  Cl  Cl121  1  0.56719900  0.90096400  0.64221800  1
  Cl  Cl122  1  0.36794700  0.75000000  0.12500000  1
  Cl  Cl123  1  0.56719900  0.59903600  0.60778200  1
  Cl  Cl124  1  0.25000000  0.11249600  0.87500000  1
  Cl  Cl125  1  0.90096400  0.06719900  0.89221800  1
  Cl  Cl126  1  0.60536400  0.45166200  0.83190200  1
  Cl  Cl127  1  0.95166200  0.89463600  0.66809800  1
