# generated using pymatgen
data_Ca5Te3O14
_symmetry_space_group_name_H-M   'P 1'
_cell_length_a   10.52594600
_cell_length_b   10.56818000
_cell_length_c   10.60172700
_cell_angle_alpha   90.00000000
_cell_angle_beta   90.00000000
_cell_angle_gamma   90.00000000
_symmetry_Int_Tables_number   1
_chemical_formula_structural   Ca5Te3O14
_chemical_formula_sum   'Ca20 Te12 O56'
_cell_volume   1179.33708682
_cell_formula_units_Z   4
loop_
 _symmetry_equiv_pos_site_id
 _symmetry_equiv_pos_as_xyz
  1  'x, y, z'
loop_
 _atom_site_type_symbol
 _atom_site_label
 _atom_site_symmetry_multiplicity
 _atom_site_fract_x
 _atom_site_fract_y
 _atom_site_fract_z
 _atom_site_occupancy
  Ca  Ca0  1  0.75500100  0.00000000  0.27281200  1
  Ca  Ca1  1  0.51766200  0.25000000  0.25000000  1
  Ca  Ca2  1  0.25500100  0.00000000  0.22718800  1
  Ca  Ca3  1  0.48233800  0.25000000  0.75000000  1
  Ca  Ca4  1  0.50000000  0.00000000  0.00000000  1
  Ca  Ca5  1  0.51766200  0.75000000  0.25000000  1
  Ca  Ca6  1  0.48233800  0.75000000  0.75000000  1
  Ca  Ca7  1  0.74499900  0.00000000  0.77281200  1
  Ca  Ca8  1  0.00000000  0.00000000  0.50000000  1
  Ca  Ca9  1  0.24499900  0.00000000  0.72718800  1
  Ca  Ca10  1  0.25500100  0.50000000  0.27281200  1
  Ca  Ca11  1  0.01766200  0.75000000  0.25000000  1
  Ca  Ca12  1  0.75500100  0.50000000  0.22718800  1
  Ca  Ca13  1  0.98233800  0.75000000  0.75000000  1
  Ca  Ca14  1  0.00000000  0.50000000  0.00000000  1
  Ca  Ca15  1  0.01766200  0.25000000  0.25000000  1
  Ca  Ca16  1  0.98233800  0.25000000  0.75000000  1
  Ca  Ca17  1  0.24499900  0.50000000  0.77281200  1
  Ca  Ca18  1  0.50000000  0.50000000  0.50000000  1
  Ca  Ca19  1  0.74499900  0.50000000  0.72718800  1
  Te  Te20  1  0.25000000  0.25000000  0.50000000  1
  Te  Te21  1  0.50000000  0.00000000  0.50000000  1
  Te  Te22  1  0.25000000  0.25000000  0.00000000  1
  Te  Te23  1  0.25000000  0.75000000  0.00000000  1
  Te  Te24  1  0.00000000  0.00000000  0.00000000  1
  Te  Te25  1  0.25000000  0.75000000  0.50000000  1
  Te  Te26  1  0.75000000  0.75000000  0.50000000  1
  Te  Te27  1  0.00000000  0.50000000  0.50000000  1
  Te  Te28  1  0.75000000  0.75000000  0.00000000  1
  Te  Te29  1  0.75000000  0.25000000  0.00000000  1
  Te  Te30  1  0.50000000  0.50000000  0.00000000  1
  Te  Te31  1  0.75000000  0.25000000  0.50000000  1
  O  O32  1  0.44516200  0.00000000  0.32987000  1
  O  O33  1  0.37951150  0.87276350  0.56487700  1
  O  O34  1  0.32084000  0.14293200  0.87025400  1
  O  O35  1  0.17916000  0.14293200  0.37025400  1
  O  O36  1  0.63149000  0.16435500  0.88756600  1
  O  O37  1  0.82084000  0.14293200  0.62974600  1
  O  O38  1  0.37951150  0.37276350  0.93512300  1
  O  O39  1  0.62048850  0.37276350  0.06487700  1
  O  O40  1  0.67916000  0.85706800  0.12974600  1
  O  O41  1  0.63149000  0.66435500  0.61243400  1
  O  O42  1  0.37951150  0.12723650  0.56487700  1
  O  O43  1  0.62048850  0.87276350  0.43512300  1
  O  O44  1  0.63149000  0.33564500  0.61243400  1
  O  O45  1  0.37951150  0.62723650  0.93512300  1
  O  O46  1  0.32084000  0.85706800  0.87025400  1
  O  O47  1  0.05483800  0.00000000  0.82987000  1
  O  O48  1  0.94516200  0.00000000  0.17013000  1
  O  O49  1  0.63149000  0.83564500  0.88756600  1
  O  O50  1  0.36851000  0.66435500  0.38756600  1
  O  O51  1  0.36851000  0.33564500  0.38756600  1
  O  O52  1  0.67916000  0.14293200  0.12974600  1
  O  O53  1  0.36851000  0.83564500  0.11243400  1
  O  O54  1  0.62048850  0.62723650  0.06487700  1
  O  O55  1  0.62048850  0.12723650  0.43512300  1
  O  O56  1  0.82084000  0.85706800  0.62974600  1
  O  O57  1  0.36851000  0.16435500  0.11243400  1
  O  O58  1  0.17916000  0.85706800  0.37025400  1
  O  O59  1  0.55483800  0.00000000  0.67013000  1
  O  O60  1  0.94516200  0.50000000  0.32987000  1
  O  O61  1  0.87951150  0.37276350  0.56487700  1
  O  O62  1  0.82084000  0.64293200  0.87025400  1
  O  O63  1  0.67916000  0.64293200  0.37025400  1
  O  O64  1  0.13149000  0.66435500  0.88756600  1
  O  O65  1  0.32084000  0.64293200  0.62974600  1
  O  O66  1  0.87951150  0.87276350  0.93512300  1
  O  O67  1  0.12048850  0.87276350  0.06487700  1
  O  O68  1  0.17916000  0.35706800  0.12974600  1
  O  O69  1  0.13149000  0.16435500  0.61243400  1
  O  O70  1  0.87951150  0.62723650  0.56487700  1
  O  O71  1  0.12048850  0.37276350  0.43512300  1
  O  O72  1  0.13149000  0.83564500  0.61243400  1
  O  O73  1  0.87951150  0.12723650  0.93512300  1
  O  O74  1  0.82084000  0.35706800  0.87025400  1
  O  O75  1  0.55483800  0.50000000  0.82987000  1
  O  O76  1  0.44516200  0.50000000  0.17013000  1
  O  O77  1  0.13149000  0.33564500  0.88756600  1
  O  O78  1  0.86851000  0.16435500  0.38756600  1
  O  O79  1  0.86851000  0.83564500  0.38756600  1
  O  O80  1  0.17916000  0.64293200  0.12974600  1
  O  O81  1  0.86851000  0.33564500  0.11243400  1
  O  O82  1  0.12048850  0.12723650  0.06487700  1
  O  O83  1  0.12048850  0.62723650  0.43512300  1
  O  O84  1  0.32084000  0.35706800  0.62974600  1
  O  O85  1  0.86851000  0.66435500  0.11243400  1
  O  O86  1  0.67916000  0.35706800  0.37025400  1
  O  O87  1  0.05483800  0.50000000  0.67013000  1
