# generated using pymatgen
data_NaLi3SiO4
_symmetry_space_group_name_H-M   'P 1'
_cell_length_a   10.87457000
_cell_length_b   10.87457000
_cell_length_c   12.73642600
_cell_angle_alpha   90.00000000
_cell_angle_beta   90.00000000
_cell_angle_gamma   90.00000000
_symmetry_Int_Tables_number   1
_chemical_formula_structural   NaLi3SiO4
_chemical_formula_sum   'Na16 Li48 Si16 O64'
_cell_volume   1506.16226609
_cell_formula_units_Z   16
loop_
 _symmetry_equiv_pos_site_id
 _symmetry_equiv_pos_as_xyz
  1  'x, y, z'
loop_
 _atom_site_type_symbol
 _atom_site_label
 _atom_site_symmetry_multiplicity
 _atom_site_fract_x
 _atom_site_fract_y
 _atom_site_fract_z
 _atom_site_occupancy
  Na  Na0  1  0.27864600  0.73546200  0.72043600  1
  Na  Na1  1  0.22135400  0.76453800  0.22043600  1
  Na  Na2  1  0.23546200  0.22135400  0.77956400  1
  Na  Na3  1  0.22135400  0.26453800  0.02956400  1
  Na  Na4  1  0.73546200  0.22135400  0.97043600  1
  Na  Na5  1  0.76453800  0.27864600  0.47043600  1
  Na  Na6  1  0.26453800  0.27864600  0.27956400  1
  Na  Na7  1  0.27864600  0.23546200  0.52956400  1
  Na  Na8  1  0.77864600  0.23546200  0.22043600  1
  Na  Na9  1  0.72135400  0.26453800  0.72043600  1
  Na  Na10  1  0.73546200  0.72135400  0.27956400  1
  Na  Na11  1  0.72135400  0.76453800  0.52956400  1
  Na  Na12  1  0.23546200  0.72135400  0.47043600  1
  Na  Na13  1  0.26453800  0.77864600  0.97043600  1
  Na  Na14  1  0.76453800  0.77864600  0.77956400  1
  Na  Na15  1  0.77864600  0.73546200  0.02956400  1
  Li  Li16  1  0.15981600  0.53011500  0.31176800  1
  Li  Li17  1  0.34191850  0.97945050  0.31913750  1
  Li  Li18  1  0.15808150  0.02054950  0.43086250  1
  Li  Li19  1  0.36582850  0.50118850  0.19691350  1
  Li  Li20  1  0.47945050  0.15808150  0.18086250  1
  Li  Li21  1  0.65981600  0.53011500  0.43823200  1
  Li  Li22  1  0.96988500  0.65981600  0.18823200  1
  Li  Li23  1  0.03011500  0.34018400  0.18823200  1
  Li  Li24  1  0.96988500  0.15981600  0.06176800  1
  Li  Li25  1  0.49881150  0.86582850  0.44691350  1
  Li  Li26  1  0.65808150  0.02054950  0.31913750  1
  Li  Li27  1  0.84018400  0.46988500  0.31176800  1
  Li  Li28  1  0.52054950  0.84191850  0.18086250  1
  Li  Li29  1  0.03011500  0.84018400  0.06176800  1
  Li  Li30  1  0.49881150  0.36582850  0.80308650  1
  Li  Li31  1  0.13417150  0.99881150  0.69691350  1
  Li  Li32  1  0.97945050  0.15808150  0.56913750  1
  Li  Li33  1  0.34018400  0.46988500  0.43823200  1
  Li  Li34  1  0.52054950  0.34191850  0.06913750  1
  Li  Li35  1  0.34191850  0.47945050  0.93086250  1
  Li  Li36  1  0.36582850  0.00118850  0.05308650  1
  Li  Li37  1  0.00118850  0.13417150  0.30308650  1
  Li  Li38  1  0.50118850  0.13417150  0.44691350  1
  Li  Li39  1  0.63417150  0.99881150  0.05308650  1
  Li  Li40  1  0.65981600  0.03011500  0.81176800  1
  Li  Li41  1  0.84191850  0.47945050  0.81913750  1
  Li  Li42  1  0.65808150  0.52054950  0.93086250  1
  Li  Li43  1  0.86582850  0.00118850  0.69691350  1
  Li  Li44  1  0.97945050  0.65808150  0.68086250  1
  Li  Li45  1  0.15981600  0.03011500  0.93823200  1
  Li  Li46  1  0.46988500  0.15981600  0.68823200  1
  Li  Li47  1  0.53011500  0.84018400  0.68823200  1
  Li  Li48  1  0.46988500  0.65981600  0.56176800  1
  Li  Li49  1  0.99881150  0.36582850  0.94691350  1
  Li  Li50  1  0.15808150  0.52054950  0.81913750  1
  Li  Li51  1  0.34018400  0.96988500  0.81176800  1
  Li  Li52  1  0.02054950  0.34191850  0.68086250  1
  Li  Li53  1  0.53011500  0.34018400  0.56176800  1
  Li  Li54  1  0.99881150  0.86582850  0.30308650  1
  Li  Li55  1  0.63417150  0.49881150  0.19691350  1
  Li  Li56  1  0.47945050  0.65808150  0.06913750  1
  Li  Li57  1  0.84018400  0.96988500  0.93823200  1
  Li  Li58  1  0.02054950  0.84191850  0.56913750  1
  Li  Li59  1  0.84191850  0.97945050  0.43086250  1
  Li  Li60  1  0.86582850  0.50118850  0.55308650  1
  Li  Li61  1  0.50118850  0.63417150  0.80308650  1
  Li  Li62  1  0.00118850  0.63417150  0.94691350  1
  Li  Li63  1  0.13417150  0.49881150  0.55308650  1
  Si  Si64  1  0.46115550  0.68148150  0.31985550  1
  Si  Si65  1  0.53884450  0.31851850  0.31985550  1
  Si  Si66  1  0.18148150  0.03884450  0.18014450  1
  Si  Si67  1  0.18148150  0.53884450  0.06985550  1
  Si  Si68  1  0.46115550  0.18148150  0.93014450  1
  Si  Si69  1  0.03884450  0.31851850  0.43014450  1
  Si  Si70  1  0.31851850  0.96115550  0.56985550  1
  Si  Si71  1  0.81851850  0.96115550  0.18014450  1
  Si  Si72  1  0.96115550  0.18148150  0.81985550  1
  Si  Si73  1  0.03884450  0.81851850  0.81985550  1
  Si  Si74  1  0.68148150  0.53884450  0.68014450  1
  Si  Si75  1  0.68148150  0.03884450  0.56985550  1
  Si  Si76  1  0.96115550  0.68148150  0.43014450  1
  Si  Si77  1  0.53884450  0.81851850  0.93014450  1
  Si  Si78  1  0.81851850  0.46115550  0.06985550  1
  Si  Si79  1  0.31851850  0.46115550  0.68014450  1
  O  O80  1  0.32686000  0.58220200  0.05810500  1
  O  O81  1  0.53861400  0.14776400  0.03828300  1
  O  O82  1  0.05099600  0.67352700  0.32596100  1
  O  O83  1  0.14776400  0.96138600  0.28828300  1
  O  O84  1  0.17352700  0.44900400  0.17403900  1
  O  O85  1  0.96138600  0.35223600  0.53828300  1
  O  O86  1  0.33593950  0.59611350  0.32878750  1
  O  O87  1  0.82647300  0.55099600  0.17403900  1
  O  O88  1  0.08220200  0.17314000  0.44189500  1
  O  O89  1  0.44900400  0.32647300  0.42403900  1
  O  O90  1  0.40388650  0.83593950  0.57878750  1
  O  O91  1  0.40388650  0.33593950  0.67121250  1
  O  O92  1  0.16406050  0.40388650  0.42121250  1
  O  O93  1  0.33593950  0.09611350  0.92121250  1
  O  O94  1  0.35223600  0.53861400  0.78828300  1
  O  O95  1  0.94900400  0.32647300  0.32596100  1
  O  O96  1  0.67314000  0.91779800  0.19189500  1
  O  O97  1  0.35223600  0.03861400  0.46171700  1
  O  O98  1  0.55099600  0.67352700  0.42403900  1
  O  O99  1  0.41779800  0.82686000  0.30810500  1
  O  O100  1  0.09611350  0.16406050  0.17121250  1
  O  O101  1  0.17352700  0.94900400  0.07596100  1
  O  O102  1  0.82647300  0.05099600  0.07596100  1
  O  O103  1  0.32686000  0.08220200  0.19189500  1
  O  O104  1  0.17314000  0.91779800  0.55810500  1
  O  O105  1  0.41779800  0.32686000  0.94189500  1
  O  O106  1  0.03861400  0.14776400  0.71171700  1
  O  O107  1  0.58220200  0.17314000  0.30810500  1
  O  O108  1  0.09611350  0.66406050  0.07878750  1
  O  O109  1  0.46138600  0.35223600  0.21171700  1
  O  O110  1  0.16406050  0.90388650  0.82878750  1
  O  O111  1  0.14776400  0.46138600  0.96171700  1
  O  O112  1  0.82686000  0.08220200  0.55810500  1
  O  O113  1  0.03861400  0.64776400  0.53828300  1
  O  O114  1  0.55099600  0.17352700  0.82596100  1
  O  O115  1  0.64776400  0.46138600  0.78828300  1
  O  O116  1  0.67352700  0.94900400  0.67403900  1
  O  O117  1  0.46138600  0.85223600  0.03828300  1
  O  O118  1  0.83593950  0.09611350  0.82878750  1
  O  O119  1  0.32647300  0.05099600  0.67403900  1
  O  O120  1  0.58220200  0.67314000  0.94189500  1
  O  O121  1  0.94900400  0.82647300  0.92403900  1
  O  O122  1  0.90388650  0.33593950  0.07878750  1
  O  O123  1  0.90388650  0.83593950  0.17121250  1
  O  O124  1  0.66406050  0.90388650  0.92121250  1
  O  O125  1  0.83593950  0.59611350  0.42121250  1
  O  O126  1  0.85223600  0.03861400  0.28828300  1
  O  O127  1  0.44900400  0.82647300  0.82596100  1
  O  O128  1  0.17314000  0.41779800  0.69189500  1
  O  O129  1  0.85223600  0.53861400  0.96171700  1
  O  O130  1  0.05099600  0.17352700  0.92403900  1
  O  O131  1  0.91779800  0.32686000  0.80810500  1
  O  O132  1  0.59611350  0.66406050  0.67121250  1
  O  O133  1  0.67352700  0.44900400  0.57596100  1
  O  O134  1  0.32647300  0.55099600  0.57596100  1
  O  O135  1  0.82686000  0.58220200  0.69189500  1
  O  O136  1  0.67314000  0.41779800  0.05810500  1
  O  O137  1  0.91779800  0.82686000  0.44189500  1
  O  O138  1  0.53861400  0.64776400  0.21171700  1
  O  O139  1  0.08220200  0.67314000  0.80810500  1
  O  O140  1  0.59611350  0.16406050  0.57878750  1
  O  O141  1  0.96138600  0.85223600  0.71171700  1
  O  O142  1  0.66406050  0.40388650  0.32878750  1
  O  O143  1  0.64776400  0.96138600  0.46171700  1
