# generated using pymatgen
data_Sc7CoI12
_symmetry_space_group_name_H-M   'P 1'
_cell_length_a   15.19512458
_cell_length_b   15.19512458
_cell_length_c   10.40614571
_cell_angle_alpha   90.00000000
_cell_angle_beta   90.00000000
_cell_angle_gamma   120.00000000
_symmetry_Int_Tables_number   1
_chemical_formula_structural   Sc7CoI12
_chemical_formula_sum   'Sc21 Co3 I36'
_cell_volume   2080.79389117
_cell_formula_units_Z   3
loop_
 _symmetry_equiv_pos_site_id
 _symmetry_equiv_pos_as_xyz
  1  'x, y, z'
loop_
 _atom_site_type_symbol
 _atom_site_label
 _atom_site_symmetry_multiplicity
 _atom_site_fract_x
 _atom_site_fract_y
 _atom_site_fract_z
 _atom_site_occupancy
  Sc  Sc0  1  0.00000000  0.00000000  0.50000000  1
  Sc  Sc1  1  0.04181267  0.89273133  0.87012833  1
  Sc  Sc2  1  0.10726867  0.14908133  0.87012833  1
  Sc  Sc3  1  0.85091867  0.95818733  0.87012833  1
  Sc  Sc4  1  0.95818733  0.10726867  0.12987167  1
  Sc  Sc5  1  0.89273133  0.85091867  0.12987167  1
  Sc  Sc6  1  0.14908133  0.04181267  0.12987167  1
  Sc  Sc7  1  0.66666667  0.33333333  0.83333333  1
  Sc  Sc8  1  0.70847933  0.22606467  0.20346167  1
  Sc  Sc9  1  0.77393533  0.48241467  0.20346167  1
  Sc  Sc10  1  0.51758533  0.29152067  0.20346167  1
  Sc  Sc11  1  0.62485400  0.44060200  0.46320500  1
  Sc  Sc12  1  0.55939800  0.18425200  0.46320500  1
  Sc  Sc13  1  0.81574800  0.37514600  0.46320500  1
  Sc  Sc14  1  0.33333333  0.66666667  0.16666667  1
  Sc  Sc15  1  0.37514600  0.55939800  0.53679500  1
  Sc  Sc16  1  0.44060200  0.81574800  0.53679500  1
  Sc  Sc17  1  0.18425200  0.62485400  0.53679500  1
  Sc  Sc18  1  0.29152067  0.77393533  0.79653833  1
  Sc  Sc19  1  0.22606467  0.51758533  0.79653833  1
  Sc  Sc20  1  0.48241467  0.70847933  0.79653833  1
  Co  Co21  1  0.00000000  0.00000000  0.00000000  1
  Co  Co22  1  0.66666667  0.33333333  0.33333333  1
  Co  Co23  1  0.33333333  0.66666667  0.66666667  1
  I  I24  1  0.89468300  0.25514600  0.32674000  1
  I  I25  1  0.74485400  0.63953700  0.32674000  1
  I  I26  1  0.36046300  0.10531700  0.32674000  1
  I  I27  1  0.10531700  0.74485400  0.67326000  1
  I  I28  1  0.25514600  0.36046300  0.67326000  1
  I  I29  1  0.63953700  0.89468300  0.67326000  1
  I  I30  1  0.17225800  0.04995700  0.66730700  1
  I  I31  1  0.95004300  0.12230100  0.66730700  1
  I  I32  1  0.87769900  0.82774200  0.66730700  1
  I  I33  1  0.82774200  0.95004300  0.33269300  1
  I  I34  1  0.04995700  0.87769900  0.33269300  1
  I  I35  1  0.12230100  0.17225800  0.33269300  1
  I  I36  1  0.56134967  0.58847933  0.66007333  1
  I  I37  1  0.41152067  0.97287033  0.66007333  1
  I  I38  1  0.02712967  0.43865033  0.66007333  1
  I  I39  1  0.77198367  0.07818733  0.00659333  1
  I  I40  1  0.92181267  0.69379633  0.00659333  1
  I  I41  1  0.30620367  0.22801633  0.00659333  1
  I  I42  1  0.83892467  0.38329033  0.00064033  1
  I  I43  1  0.61670967  0.45563433  0.00064033  1
  I  I44  1  0.54436567  0.16107533  0.00064033  1
  I  I45  1  0.49440867  0.28337633  0.66602633  1
  I  I46  1  0.71662367  0.21103233  0.66602633  1
  I  I47  1  0.78896767  0.50559133  0.66602633  1
  I  I48  1  0.22801633  0.92181267  0.99340667  1
  I  I49  1  0.07818733  0.30620367  0.99340667  1
  I  I50  1  0.69379633  0.77198367  0.99340667  1
  I  I51  1  0.43865033  0.41152067  0.33992667  1
  I  I52  1  0.58847933  0.02712967  0.33992667  1
  I  I53  1  0.97287033  0.56134967  0.33992667  1
  I  I54  1  0.50559133  0.71662367  0.33397367  1
  I  I55  1  0.28337633  0.78896767  0.33397367  1
  I  I56  1  0.21103233  0.49440867  0.33397367  1
  I  I57  1  0.16107533  0.61670967  0.99935967  1
  I  I58  1  0.38329033  0.54436567  0.99935967  1
  I  I59  1  0.45563433  0.83892467  0.99935967  1
