# generated using pymatgen
data_CsBe2BO3F2
_symmetry_space_group_name_H-M   'P 1'
_cell_length_a   4.48253238
_cell_length_b   4.48253238
_cell_length_c   22.11554032
_cell_angle_alpha   90.00000000
_cell_angle_beta   90.00000000
_cell_angle_gamma   120.00000000
_symmetry_Int_Tables_number   1
_chemical_formula_structural   CsBe2BO3F2
_chemical_formula_sum   'Cs3 Be6 B3 O9 F6'
_cell_volume   384.83543732
_cell_formula_units_Z   3
loop_
 _symmetry_equiv_pos_site_id
 _symmetry_equiv_pos_as_xyz
  1  'x, y, z'
loop_
 _atom_site_type_symbol
 _atom_site_label
 _atom_site_symmetry_multiplicity
 _atom_site_fract_x
 _atom_site_fract_y
 _atom_site_fract_z
 _atom_site_occupancy
  Cs  Cs0  1  0.00000000  0.00000000  0.00000000  1
  Cs  Cs1  1  0.66666667  0.33333333  0.33333333  1
  Cs  Cs2  1  0.33333333  0.66666667  0.66666667  1
  Be  Be3  1  0.66666667  0.33333333  0.14139633  1
  Be  Be4  1  0.00000000  0.00000000  0.19193700  1
  Be  Be5  1  0.33333333  0.66666667  0.47472967  1
  Be  Be6  1  0.66666667  0.33333333  0.52527033  1
  Be  Be7  1  0.00000000  0.00000000  0.80806300  1
  Be  Be8  1  0.33333333  0.66666667  0.85860367  1
  B  B9  1  0.33333333  0.66666667  0.16666667  1
  B  B10  1  0.00000000  0.00000000  0.50000000  1
  B  B11  1  0.66666667  0.33333333  0.83333333  1
  O  O12  1  0.02467333  0.66666667  0.16666667  1
  O  O13  1  0.33333333  0.35800667  0.16666667  1
  O  O14  1  0.64199333  0.97532667  0.16666667  1
  O  O15  1  0.69134000  0.00000000  0.50000000  1
  O  O16  1  0.00000000  0.69134000  0.50000000  1
  O  O17  1  0.30866000  0.30866000  0.50000000  1
  O  O18  1  0.35800667  0.33333333  0.83333333  1
  O  O19  1  0.66666667  0.02467333  0.83333333  1
  O  O20  1  0.97532667  0.64199333  0.83333333  1
  F  F21  1  0.66666667  0.33333333  0.07095233  1
  F  F22  1  0.00000000  0.00000000  0.26238100  1
  F  F23  1  0.33333333  0.66666667  0.40428567  1
  F  F24  1  0.66666667  0.33333333  0.59571433  1
  F  F25  1  0.00000000  0.00000000  0.73761900  1
  F  F26  1  0.33333333  0.66666667  0.92904767  1
