# generated using pymatgen
data_La2Ti2SiO9
_symmetry_space_group_name_H-M   'P 1'
_cell_length_a   17.10835400
_cell_length_b   5.78957000
_cell_length_c   7.73811984
_cell_angle_alpha   90.00000000
_cell_angle_beta   111.22816233
_cell_angle_gamma   90.00000000
_symmetry_Int_Tables_number   1
_chemical_formula_structural   La2Ti2SiO9
_chemical_formula_sum   'La8 Ti8 Si4 O36'
_cell_volume   714.45339011
_cell_formula_units_Z   4
loop_
 _symmetry_equiv_pos_site_id
 _symmetry_equiv_pos_as_xyz
  1  'x, y, z'
loop_
 _atom_site_type_symbol
 _atom_site_label
 _atom_site_symmetry_multiplicity
 _atom_site_fract_x
 _atom_site_fract_y
 _atom_site_fract_z
 _atom_site_occupancy
  La  La0  1  0.28833700  0.50000000  0.69326200  1
  La  La1  1  0.21166300  0.00000000  0.30673800  1
  La  La2  1  0.39394700  0.50000000  0.30579400  1
  La  La3  1  0.10605300  0.00000000  0.69420600  1
  La  La4  1  0.78833700  0.00000000  0.69326200  1
  La  La5  1  0.71166300  0.50000000  0.30673800  1
  La  La6  1  0.89394700  0.00000000  0.30579400  1
  La  La7  1  0.60605300  0.50000000  0.69420600  1
  Ti  Ti8  1  0.00000000  0.24069900  0.00000000  1
  Ti  Ti9  1  0.08116900  0.50000000  0.44709900  1
  Ti  Ti10  1  0.41883100  0.00000000  0.55290100  1
  Ti  Ti11  1  0.00000000  0.75930100  0.00000000  1
  Ti  Ti12  1  0.50000000  0.74069900  0.00000000  1
  Ti  Ti13  1  0.58116900  0.00000000  0.44709900  1
  Ti  Ti14  1  0.91883100  0.50000000  0.55290100  1
  Ti  Ti15  1  0.50000000  0.25930100  0.00000000  1
  Si  Si16  1  0.16248000  0.50000000  0.97996300  1
  Si  Si17  1  0.33752000  0.00000000  0.02003700  1
  Si  Si18  1  0.66248000  0.00000000  0.97996300  1
  Si  Si19  1  0.83752000  0.50000000  0.02003700  1
  O  O20  1  0.38265450  0.75694350  0.98708200  1
  O  O21  1  0.16104950  0.73989950  0.48270200  1
  O  O22  1  0.15534100  0.50000000  0.76466700  1
  O  O23  1  0.25574000  0.50000000  0.13359800  1
  O  O24  1  0.47213400  0.00000000  0.81347000  1
  O  O25  1  0.34465900  0.00000000  0.23533300  1
  O  O26  1  0.47564700  0.50000000  0.82197100  1
  O  O27  1  0.00000000  0.72289600  0.50000000  1
  O  O28  1  0.16104950  0.26010050  0.48270200  1
  O  O29  1  0.11734550  0.74305650  0.01291800  1
  O  O30  1  0.38265450  0.24305650  0.98708200  1
  O  O31  1  0.02786600  0.50000000  0.18653000  1
  O  O32  1  0.24426000  0.00000000  0.86640200  1
  O  O33  1  0.33895050  0.76010050  0.51729800  1
  O  O34  1  0.02435300  0.00000000  0.17802900  1
  O  O35  1  0.00000000  0.27710400  0.50000000  1
  O  O36  1  0.33895050  0.23989950  0.51729800  1
  O  O37  1  0.11734550  0.25694350  0.01291800  1
  O  O38  1  0.88265450  0.25694350  0.98708200  1
  O  O39  1  0.66104950  0.23989950  0.48270200  1
  O  O40  1  0.65534100  0.00000000  0.76466700  1
  O  O41  1  0.75574000  0.00000000  0.13359800  1
  O  O42  1  0.97213400  0.50000000  0.81347000  1
  O  O43  1  0.84465900  0.50000000  0.23533300  1
  O  O44  1  0.97564700  0.00000000  0.82197100  1
  O  O45  1  0.50000000  0.22289600  0.50000000  1
  O  O46  1  0.66104950  0.76010050  0.48270200  1
  O  O47  1  0.61734550  0.24305650  0.01291800  1
  O  O48  1  0.88265450  0.74305650  0.98708200  1
  O  O49  1  0.52786600  0.00000000  0.18653000  1
  O  O50  1  0.74426000  0.50000000  0.86640200  1
  O  O51  1  0.83895050  0.26010050  0.51729800  1
  O  O52  1  0.52435300  0.50000000  0.17802900  1
  O  O53  1  0.50000000  0.77710400  0.50000000  1
  O  O54  1  0.83895050  0.73989950  0.51729800  1
  O  O55  1  0.61734550  0.75694350  0.01291800  1
