# generated using pymatgen
data_KSb(PO4)2
_symmetry_space_group_name_H-M   'P 1'
_cell_length_a   4.85398619
_cell_length_b   4.85398619
_cell_length_c   25.84660403
_cell_angle_alpha   90.00000000
_cell_angle_beta   90.00000000
_cell_angle_gamma   120.00000000
_symmetry_Int_Tables_number   1
_chemical_formula_structural   KSb(PO4)2
_chemical_formula_sum   'K3 Sb3 P6 O24'
_cell_volume   527.38915377
_cell_formula_units_Z   3
loop_
 _symmetry_equiv_pos_site_id
 _symmetry_equiv_pos_as_xyz
  1  'x, y, z'
loop_
 _atom_site_type_symbol
 _atom_site_label
 _atom_site_symmetry_multiplicity
 _atom_site_fract_x
 _atom_site_fract_y
 _atom_site_fract_z
 _atom_site_occupancy
  K  K0  1  0.33333333  0.66666667  0.16666667  1
  K  K1  1  1.00000000  0.00000000  0.50000000  1
  K  K2  1  0.66666667  0.33333333  0.83333333  1
  Sb  Sb3  1  0.00000000  0.00000000  0.00000000  1
  Sb  Sb4  1  0.66666667  0.33333333  0.33333333  1
  Sb  Sb5  1  0.33333333  0.66666667  0.66666667  1
  P  P6  1  0.00000000  0.00000000  0.26483400  1
  P  P7  1  0.66666667  0.33333333  0.06849933  1
  P  P8  1  0.66666667  0.33333333  0.59816733  1
  P  P9  1  0.33333333  0.66666667  0.40183267  1
  P  P10  1  0.33333333  0.66666667  0.93150067  1
  P  P11  1  0.00000000  0.00000000  0.73516600  1
  O  O12  1  0.00000000  0.00000000  0.20717200  1
  O  O13  1  0.96962267  0.68380633  0.28729933  1
  O  O14  1  0.66666667  0.33333333  0.12616133  1
  O  O15  1  0.31619367  0.28581633  0.28729933  1
  O  O16  1  0.35047300  0.04751700  0.04603400  1
  O  O17  1  0.71418367  0.03037733  0.28729933  1
  O  O18  1  0.95248300  0.30295600  0.04603400  1
  O  O19  1  0.69704400  0.64952700  0.04603400  1
  O  O20  1  0.66666667  0.33333333  0.54050533  1
  O  O21  1  0.63628933  0.01713967  0.62063267  1
  O  O22  1  0.33333333  0.66666667  0.45949467  1
  O  O23  1  0.98286033  0.61914967  0.62063267  1
  O  O24  1  0.01713967  0.38085033  0.37936733  1
  O  O25  1  0.38085033  0.36371067  0.62063267  1
  O  O26  1  0.61914967  0.63628933  0.37936733  1
  O  O27  1  0.36371067  0.98286033  0.37936733  1
  O  O28  1  0.33333333  0.66666667  0.87383867  1
  O  O29  1  0.30295600  0.35047300  0.95396600  1
  O  O30  1  0.00000000  0.00000000  0.79282800  1
  O  O31  1  0.64952700  0.95248300  0.95396600  1
  O  O32  1  0.68380633  0.71418367  0.71270067  1
  O  O33  1  0.04751700  0.69704400  0.95396600  1
  O  O34  1  0.28581633  0.96962267  0.71270067  1
  O  O35  1  0.03037733  0.31619367  0.71270067  1
