# generated using pymatgen
data_K2Zn(SiO3)2
_symmetry_space_group_name_H-M   'P 1'
_cell_length_a   6.39187400
_cell_length_b   9.69261600
_cell_length_c   10.56793500
_cell_angle_alpha   90.00000000
_cell_angle_beta   90.00000000
_cell_angle_gamma   90.00000000
_symmetry_Int_Tables_number   1
_chemical_formula_structural   K2Zn(SiO3)2
_chemical_formula_sum   'K8 Zn4 Si8 O24'
_cell_volume   654.72563577
_cell_formula_units_Z   4
loop_
 _symmetry_equiv_pos_site_id
 _symmetry_equiv_pos_as_xyz
  1  'x, y, z'
loop_
 _atom_site_type_symbol
 _atom_site_label
 _atom_site_symmetry_multiplicity
 _atom_site_fract_x
 _atom_site_fract_y
 _atom_site_fract_z
 _atom_site_occupancy
  K  K0  1  0.60784600  0.32686600  0.57541200  1
  K  K1  1  0.39215400  0.32686600  0.92458800  1
  K  K2  1  0.39215400  0.67313400  0.07541200  1
  K  K3  1  0.60784600  0.67313400  0.42458800  1
  K  K4  1  0.10784600  0.82686600  0.57541200  1
  K  K5  1  0.89215400  0.82686600  0.92458800  1
  K  K6  1  0.89215400  0.17313400  0.07541200  1
  K  K7  1  0.10784600  0.17313400  0.42458800  1
  Zn  Zn8  1  0.50000000  0.30633700  0.25000000  1
  Zn  Zn9  1  0.50000000  0.69366300  0.75000000  1
  Zn  Zn10  1  0.00000000  0.80633700  0.25000000  1
  Zn  Zn11  1  0.00000000  0.19366300  0.75000000  1
  Si  Si12  1  0.34800250  0.98272850  0.86311200  1
  Si  Si13  1  0.34800250  0.01727150  0.13688800  1
  Si  Si14  1  0.65199750  0.98272850  0.63688800  1
  Si  Si15  1  0.65199750  0.01727150  0.36311200  1
  Si  Si16  1  0.84800250  0.48272850  0.86311200  1
  Si  Si17  1  0.84800250  0.51727150  0.13688800  1
  Si  Si18  1  0.15199750  0.48272850  0.63688800  1
  Si  Si19  1  0.15199750  0.51727150  0.36311200  1
  O  O20  1  0.50000000  0.95259900  0.25000000  1
  O  O21  1  0.69949600  0.17929800  0.33652700  1
  O  O22  1  0.51568200  0.00000000  0.50000000  1
  O  O23  1  0.69949600  0.82070200  0.66347300  1
  O  O24  1  0.30050400  0.82070200  0.83652700  1
  O  O25  1  0.14025600  0.07829900  0.87584800  1
  O  O26  1  0.85974400  0.92170100  0.37584800  1
  O  O27  1  0.50000000  0.04740100  0.75000000  1
  O  O28  1  0.30050400  0.17929800  0.16347300  1
  O  O29  1  0.14025600  0.92170100  0.12415200  1
  O  O30  1  0.85974400  0.07829900  0.62415200  1
  O  O31  1  0.48431800  0.00000000  0.00000000  1
  O  O32  1  0.00000000  0.45259900  0.25000000  1
  O  O33  1  0.19949600  0.67929800  0.33652700  1
  O  O34  1  0.01568200  0.50000000  0.50000000  1
  O  O35  1  0.19949600  0.32070200  0.66347300  1
  O  O36  1  0.80050400  0.32070200  0.83652700  1
  O  O37  1  0.64025600  0.57829900  0.87584800  1
  O  O38  1  0.35974400  0.42170100  0.37584800  1
  O  O39  1  0.00000000  0.54740100  0.75000000  1
  O  O40  1  0.80050400  0.67929800  0.16347300  1
  O  O41  1  0.64025600  0.42170100  0.12415200  1
  O  O42  1  0.35974400  0.57829900  0.62415200  1
  O  O43  1  0.98431800  0.50000000  0.00000000  1
