# generated using pymatgen
data_Hg2SeO3
_symmetry_space_group_name_H-M   'P 1'
_cell_length_a   8.17952600
_cell_length_b   10.91018000
_cell_length_c   12.10157000
_cell_angle_alpha   90.00000000
_cell_angle_beta   90.00000000
_cell_angle_gamma   90.00000000
_symmetry_Int_Tables_number   1
_chemical_formula_structural   Hg2SeO3
_chemical_formula_sum   'Hg16 Se8 O24'
_cell_volume   1079.94532875
_cell_formula_units_Z   8
loop_
 _symmetry_equiv_pos_site_id
 _symmetry_equiv_pos_as_xyz
  1  'x, y, z'
loop_
 _atom_site_type_symbol
 _atom_site_label
 _atom_site_symmetry_multiplicity
 _atom_site_fract_x
 _atom_site_fract_y
 _atom_site_fract_z
 _atom_site_occupancy
  Hg  Hg0  1  0.24414250  0.83120950  0.60754550  1
  Hg  Hg1  1  0.74414250  0.83120950  0.39245450  1
  Hg  Hg2  1  0.75585750  0.83120950  0.60754550  1
  Hg  Hg3  1  0.24414250  0.16879050  0.39245450  1
  Hg  Hg4  1  0.74414250  0.16879050  0.60754550  1
  Hg  Hg5  1  0.75585750  0.16879050  0.39245450  1
  Hg  Hg6  1  0.25585750  0.16879050  0.60754550  1
  Hg  Hg7  1  0.25585750  0.83120950  0.39245450  1
  Hg  Hg8  1  0.74414250  0.33120950  0.10754550  1
  Hg  Hg9  1  0.24414250  0.33120950  0.89245450  1
  Hg  Hg10  1  0.25585750  0.33120950  0.10754550  1
  Hg  Hg11  1  0.74414250  0.66879050  0.89245450  1
  Hg  Hg12  1  0.24414250  0.66879050  0.10754550  1
  Hg  Hg13  1  0.25585750  0.66879050  0.89245450  1
  Hg  Hg14  1  0.75585750  0.66879050  0.10754550  1
  Hg  Hg15  1  0.75585750  0.33120950  0.89245450  1
  Se  Se16  1  0.50000000  0.03793400  0.79877100  1
  Se  Se17  1  0.00000000  0.96206600  0.79877100  1
  Se  Se18  1  0.50000000  0.96206600  0.20122900  1
  Se  Se19  1  0.00000000  0.03793400  0.20122900  1
  Se  Se20  1  0.00000000  0.53793400  0.29877100  1
  Se  Se21  1  0.50000000  0.46206600  0.29877100  1
  Se  Se22  1  0.00000000  0.46206600  0.70122900  1
  Se  Se23  1  0.50000000  0.53793400  0.70122900  1
  O  O24  1  0.16728800  0.13695000  0.21696200  1
  O  O25  1  0.50000000  0.96331200  0.67506900  1
  O  O26  1  0.66728800  0.86305000  0.21696200  1
  O  O27  1  0.00000000  0.03668800  0.67506900  1
  O  O28  1  0.50000000  0.03668800  0.32493100  1
  O  O29  1  0.83271200  0.86305000  0.78303800  1
  O  O30  1  0.16728800  0.86305000  0.78303800  1
  O  O31  1  0.66728800  0.13695000  0.78303800  1
  O  O32  1  0.33271200  0.86305000  0.21696200  1
  O  O33  1  0.00000000  0.96331200  0.32493100  1
  O  O34  1  0.83271200  0.13695000  0.21696200  1
  O  O35  1  0.33271200  0.13695000  0.78303800  1
  O  O36  1  0.66728800  0.63695000  0.71696200  1
  O  O37  1  0.00000000  0.46331200  0.17506900  1
  O  O38  1  0.16728800  0.36305000  0.71696200  1
  O  O39  1  0.50000000  0.53668800  0.17506900  1
  O  O40  1  0.00000000  0.53668800  0.82493100  1
  O  O41  1  0.33271200  0.36305000  0.28303800  1
  O  O42  1  0.66728800  0.36305000  0.28303800  1
  O  O43  1  0.16728800  0.63695000  0.28303800  1
  O  O44  1  0.83271200  0.36305000  0.71696200  1
  O  O45  1  0.50000000  0.46331200  0.82493100  1
  O  O46  1  0.33271200  0.63695000  0.71696200  1
  O  O47  1  0.83271200  0.63695000  0.28303800  1
