# generated using pymatgen
data_LiHo3Ge2(O4F)2
_symmetry_space_group_name_H-M   'P 1'
_cell_length_a   17.71993200
_cell_length_b   5.11065000
_cell_length_c   11.68939787
_cell_angle_alpha   90.00000000
_cell_angle_beta   130.59687721
_cell_angle_gamma   90.00000000
_symmetry_Int_Tables_number   1
_chemical_formula_structural   LiHo3Ge2(O4F)2
_chemical_formula_sum   'Li4 Ho12 Ge8 O32 F8'
_cell_volume   803.79926812
_cell_formula_units_Z   4
loop_
 _symmetry_equiv_pos_site_id
 _symmetry_equiv_pos_as_xyz
  1  'x, y, z'
loop_
 _atom_site_type_symbol
 _atom_site_label
 _atom_site_symmetry_multiplicity
 _atom_site_fract_x
 _atom_site_fract_y
 _atom_site_fract_z
 _atom_site_occupancy
  Li  Li0  1  0.25000000  0.25000000  0.50000000  1
  Li  Li1  1  0.75000000  0.25000000  0.00000000  1
  Li  Li2  1  0.75000000  0.75000000  0.50000000  1
  Li  Li3  1  0.25000000  0.75000000  0.00000000  1
  Ho  Ho4  1  0.62218150  0.29416050  0.15116500  1
  Ho  Ho5  1  0.87781850  0.79416050  0.34883500  1
  Ho  Ho6  1  0.37781850  0.70583950  0.84883500  1
  Ho  Ho7  1  0.00000000  0.21024100  0.25000000  1
  Ho  Ho8  1  0.00000000  0.78975900  0.75000000  1
  Ho  Ho9  1  0.12218150  0.20583950  0.65116500  1
  Ho  Ho10  1  0.12218150  0.79416050  0.15116500  1
  Ho  Ho11  1  0.37781850  0.29416050  0.34883500  1
  Ho  Ho12  1  0.87781850  0.20583950  0.84883500  1
  Ho  Ho13  1  0.50000000  0.71024100  0.25000000  1
  Ho  Ho14  1  0.50000000  0.28975900  0.75000000  1
  Ho  Ho15  1  0.62218150  0.70583950  0.65116500  1
  Ge  Ge16  1  0.14461600  0.23578600  0.98942600  1
  Ge  Ge17  1  0.85538400  0.23578600  0.51057400  1
  Ge  Ge18  1  0.14461600  0.76421400  0.48942600  1
  Ge  Ge19  1  0.85538400  0.76421400  0.01057400  1
  Ge  Ge20  1  0.64461600  0.73578600  0.98942600  1
  Ge  Ge21  1  0.35538400  0.73578600  0.51057400  1
  Ge  Ge22  1  0.64461600  0.26421400  0.48942600  1
  Ge  Ge23  1  0.35538400  0.26421400  0.01057400  1
  O  O24  1  0.77222750  0.09605450  0.32920900  1
  O  O25  1  0.22777250  0.90394550  0.67079100  1
  O  O26  1  0.15510550  0.93109650  0.36596700  1
  O  O27  1  0.03262750  0.07427750  0.92839700  1
  O  O28  1  0.96737250  0.92572250  0.07160300  1
  O  O29  1  0.96737250  0.07427750  0.57160300  1
  O  O30  1  0.13162900  0.57916200  0.97607200  1
  O  O31  1  0.86837100  0.42083800  0.02392800  1
  O  O32  1  0.86837100  0.57916200  0.52392800  1
  O  O33  1  0.13162900  0.42083800  0.47607200  1
  O  O34  1  0.84489450  0.06890350  0.63403300  1
  O  O35  1  0.15510550  0.06890350  0.86596700  1
  O  O36  1  0.27222750  0.40394550  0.82920900  1
  O  O37  1  0.84489450  0.93109650  0.13403300  1
  O  O38  1  0.72777250  0.59605450  0.17079100  1
  O  O39  1  0.03262750  0.92572250  0.42839700  1
  O  O40  1  0.27222750  0.59605450  0.32920900  1
  O  O41  1  0.72777250  0.40394550  0.67079100  1
  O  O42  1  0.65510550  0.43109650  0.36596700  1
  O  O43  1  0.53262750  0.57427750  0.92839700  1
  O  O44  1  0.46737250  0.42572250  0.07160300  1
  O  O45  1  0.46737250  0.57427750  0.57160300  1
  O  O46  1  0.63162900  0.07916200  0.97607200  1
  O  O47  1  0.36837100  0.92083800  0.02392800  1
  O  O48  1  0.36837100  0.07916200  0.52392800  1
  O  O49  1  0.63162900  0.92083800  0.47607200  1
  O  O50  1  0.34489450  0.56890350  0.63403300  1
  O  O51  1  0.65510550  0.56890350  0.86596700  1
  O  O52  1  0.77222750  0.90394550  0.82920900  1
  O  O53  1  0.34489450  0.43109650  0.13403300  1
  O  O54  1  0.22777250  0.09605450  0.17079100  1
  O  O55  1  0.53262750  0.42572250  0.42839700  1
  F  F56  1  0.07119400  0.41138200  0.17116300  1
  F  F57  1  0.07119400  0.58861800  0.67116300  1
  F  F58  1  0.92880600  0.41138200  0.32883700  1
  F  F59  1  0.92880600  0.58861800  0.82883700  1
  F  F60  1  0.57119400  0.91138200  0.17116300  1
  F  F61  1  0.57119400  0.08861800  0.67116300  1
  F  F62  1  0.42880600  0.91138200  0.32883700  1
  F  F63  1  0.42880600  0.08861800  0.82883700  1
