# generated using pymatgen
data_MnBiS2Br
_symmetry_space_group_name_H-M   'P 1'
_cell_length_a   12.76846200
_cell_length_b   3.94346200
_cell_length_c   9.52838945
_cell_angle_alpha   90.00000000
_cell_angle_beta   91.49477784
_cell_angle_gamma   90.00000000
_symmetry_Int_Tables_number   1
_chemical_formula_structural   MnBiS2Br
_chemical_formula_sum   'Mn4 Bi4 S8 Br4'
_cell_volume   479.60967496
_cell_formula_units_Z   4
loop_
 _symmetry_equiv_pos_site_id
 _symmetry_equiv_pos_as_xyz
  1  'x, y, z'
loop_
 _atom_site_type_symbol
 _atom_site_label
 _atom_site_symmetry_multiplicity
 _atom_site_fract_x
 _atom_site_fract_y
 _atom_site_fract_z
 _atom_site_occupancy
  Mn  Mn0  1  0.00000000  0.50000000  0.00000000  1
  Mn  Mn1  1  0.00000000  0.50000000  0.50000000  1
  Mn  Mn2  1  0.50000000  0.00000000  0.00000000  1
  Mn  Mn3  1  0.50000000  0.00000000  0.50000000  1
  Bi  Bi4  1  0.78547000  0.00000000  0.19685200  1
  Bi  Bi5  1  0.71453000  0.50000000  0.80314800  1
  Bi  Bi6  1  0.28547000  0.50000000  0.19685200  1
  Bi  Bi7  1  0.21453000  0.00000000  0.80314800  1
  S  S8  1  0.86395600  0.00000000  0.94647500  1
  S  S9  1  0.92868100  0.50000000  0.24533500  1
  S  S10  1  0.63604400  0.50000000  0.05352500  1
  S  S11  1  0.57131900  0.00000000  0.75466500  1
  S  S12  1  0.36395600  0.50000000  0.94647500  1
  S  S13  1  0.42868100  0.00000000  0.24533500  1
  S  S14  1  0.13604400  0.00000000  0.05352500  1
  S  S15  1  0.07131900  0.50000000  0.75466500  1
  Br  Br16  1  0.86573800  0.00000000  0.56604400  1
  Br  Br17  1  0.63426200  0.50000000  0.43395600  1
  Br  Br18  1  0.36573800  0.50000000  0.56604400  1
  Br  Br19  1  0.13426200  0.00000000  0.43395600  1
