# generated using pymatgen
data_Tm2Te4O11
_symmetry_space_group_name_H-M   'P 1'
_cell_length_a   12.39315000
_cell_length_b   5.12624000
_cell_length_c   16.19567904
_cell_angle_alpha   90.00000000
_cell_angle_beta   105.50720690
_cell_angle_gamma   90.00000000
_symmetry_Int_Tables_number   1
_chemical_formula_structural   Tm2Te4O11
_chemical_formula_sum   'Tm8 Te16 O44'
_cell_volume   991.45992784
_cell_formula_units_Z   4
loop_
 _symmetry_equiv_pos_site_id
 _symmetry_equiv_pos_as_xyz
  1  'x, y, z'
loop_
 _atom_site_type_symbol
 _atom_site_label
 _atom_site_symmetry_multiplicity
 _atom_site_fract_x
 _atom_site_fract_y
 _atom_site_fract_z
 _atom_site_occupancy
  Tm  Tm0  1  0.61956600  0.74943600  0.03678500  1
  Tm  Tm1  1  0.88043400  0.24943600  0.46321500  1
  Tm  Tm2  1  0.11956600  0.75056400  0.53678500  1
  Tm  Tm3  1  0.38043400  0.25056400  0.96321500  1
  Tm  Tm4  1  0.11956600  0.24943600  0.03678500  1
  Tm  Tm5  1  0.38043400  0.74943600  0.46321500  1
  Tm  Tm6  1  0.61956600  0.25056400  0.53678500  1
  Tm  Tm7  1  0.88043400  0.75056400  0.96321500  1
  Te  Te8  1  0.87286100  0.28250800  0.12491900  1
  Te  Te9  1  0.37772250  0.77938750  0.80233600  1
  Te  Te10  1  0.62227750  0.22061250  0.19766400  1
  Te  Te11  1  0.12227750  0.27938750  0.69766400  1
  Te  Te12  1  0.12713900  0.71749200  0.87508100  1
  Te  Te13  1  0.12713900  0.28250800  0.37508100  1
  Te  Te14  1  0.87772250  0.72061250  0.30233600  1
  Te  Te15  1  0.87286100  0.71749200  0.62491900  1
  Te  Te16  1  0.37286100  0.78250800  0.12491900  1
  Te  Te17  1  0.87772250  0.27938750  0.80233600  1
  Te  Te18  1  0.12227750  0.72061250  0.19766400  1
  Te  Te19  1  0.62227750  0.77938750  0.69766400  1
  Te  Te20  1  0.62713900  0.21749200  0.87508100  1
  Te  Te21  1  0.62713900  0.78250800  0.37508100  1
  Te  Te22  1  0.37772250  0.22061250  0.30233600  1
  Te  Te23  1  0.37286100  0.21749200  0.62491900  1
  O  O24  1  0.64922400  0.56027300  0.16601100  1
  O  O25  1  0.97606350  0.42536350  0.90566600  1
  O  O26  1  0.02393650  0.42536350  0.59433400  1
  O  O27  1  0.20794600  0.54772900  0.44867900  1
  O  O28  1  0.85077600  0.06027300  0.33398900  1
  O  O29  1  0.00000000  0.85574700  0.25000000  1
  O  O30  1  0.06875800  0.89663400  0.95599400  1
  O  O31  1  0.93124200  0.10336600  0.04400600  1
  O  O32  1  0.00000000  0.14425300  0.75000000  1
  O  O33  1  0.93124200  0.89663400  0.54400600  1
  O  O34  1  0.79205400  0.45227100  0.55132100  1
  O  O35  1  0.75304850  0.56080950  0.37281100  1
  O  O36  1  0.20794600  0.45227100  0.94867900  1
  O  O37  1  0.97606350  0.57463650  0.40566600  1
  O  O38  1  0.14922400  0.93972700  0.66601100  1
  O  O39  1  0.06875800  0.10336600  0.45599400  1
  O  O40  1  0.24695150  0.43919050  0.62718900  1
  O  O41  1  0.35077600  0.43972700  0.83398900  1
  O  O42  1  0.74695150  0.06080950  0.12718900  1
  O  O43  1  0.02393650  0.57463650  0.09433400  1
  O  O44  1  0.25304850  0.93919050  0.87281100  1
  O  O45  1  0.79205400  0.54772900  0.05132100  1
  O  O46  1  0.14922400  0.06027300  0.16601100  1
  O  O47  1  0.47606350  0.92536350  0.90566600  1
  O  O48  1  0.52393650  0.92536350  0.59433400  1
  O  O49  1  0.70794600  0.04772900  0.44867900  1
  O  O50  1  0.35077600  0.56027300  0.33398900  1
  O  O51  1  0.50000000  0.35574700  0.25000000  1
  O  O52  1  0.56875800  0.39663400  0.95599400  1
  O  O53  1  0.43124200  0.60336600  0.04400600  1
  O  O54  1  0.50000000  0.64425300  0.75000000  1
  O  O55  1  0.43124200  0.39663400  0.54400600  1
  O  O56  1  0.29205400  0.95227100  0.55132100  1
  O  O57  1  0.25304850  0.06080950  0.37281100  1
  O  O58  1  0.70794600  0.95227100  0.94867900  1
  O  O59  1  0.47606350  0.07463650  0.40566600  1
  O  O60  1  0.64922400  0.43972700  0.66601100  1
  O  O61  1  0.56875800  0.60336600  0.45599400  1
  O  O62  1  0.74695150  0.93919050  0.62718900  1
  O  O63  1  0.85077600  0.93972700  0.83398900  1
  O  O64  1  0.24695150  0.56080950  0.12718900  1
  O  O65  1  0.52393650  0.07463650  0.09433400  1
  O  O66  1  0.75304850  0.43919050  0.87281100  1
  O  O67  1  0.29205400  0.04772900  0.05132100  1
