# generated using pymatgen
data_K2S2O7
_symmetry_space_group_name_H-M   'P 1'
_cell_length_a   12.67970600
_cell_length_b   7.45897800
_cell_length_c   7.42276964
_cell_angle_alpha   90.00000000
_cell_angle_beta   92.08190399
_cell_angle_gamma   90.00000000
_symmetry_Int_Tables_number   1
_chemical_formula_structural   K2S2O7
_chemical_formula_sum   'K8 S8 O28'
_cell_volume   701.56469852
_cell_formula_units_Z   4
loop_
 _symmetry_equiv_pos_site_id
 _symmetry_equiv_pos_as_xyz
  1  'x, y, z'
loop_
 _atom_site_type_symbol
 _atom_site_label
 _atom_site_symmetry_multiplicity
 _atom_site_fract_x
 _atom_site_fract_y
 _atom_site_fract_z
 _atom_site_occupancy
  K  K0  1  0.64608350  0.84470250  0.85094600  1
  K  K1  1  0.64608350  0.15529750  0.35094600  1
  K  K2  1  0.35391650  0.84470250  0.64905400  1
  K  K3  1  0.35391650  0.15529750  0.14905400  1
  K  K4  1  0.14608350  0.34470250  0.85094600  1
  K  K5  1  0.14608350  0.65529750  0.35094600  1
  K  K6  1  0.85391650  0.34470250  0.64905400  1
  K  K7  1  0.85391650  0.65529750  0.14905400  1
  S  S8  1  0.60126700  0.68548600  0.35629200  1
  S  S9  1  0.39873300  0.68548600  0.14370800  1
  S  S10  1  0.39873300  0.31451400  0.64370800  1
  S  S11  1  0.60126700  0.31451400  0.85629200  1
  S  S12  1  0.10126700  0.18548600  0.35629200  1
  S  S13  1  0.89873300  0.18548600  0.14370800  1
  S  S14  1  0.89873300  0.81451400  0.64370800  1
  S  S15  1  0.10126700  0.81451400  0.85629200  1
  O  O16  1  0.83453250  0.03262250  0.08812700  1
  O  O17  1  0.16546750  0.03262250  0.41187300  1
  O  O18  1  0.35051750  0.20025350  0.77870300  1
  O  O19  1  0.64948250  0.20025350  0.72129700  1
  O  O20  1  0.16546750  0.96737750  0.91187300  1
  O  O21  1  0.55726000  0.21089200  0.00295500  1
  O  O22  1  0.50000000  0.41823600  0.75000000  1
  O  O23  1  0.44274000  0.21089200  0.49704500  1
  O  O24  1  0.44274000  0.78910800  0.99704500  1
  O  O25  1  0.35051750  0.79974650  0.27870300  1
  O  O26  1  0.64948250  0.79974650  0.22129700  1
  O  O27  1  0.50000000  0.58176400  0.25000000  1
  O  O28  1  0.55726000  0.78910800  0.50295500  1
  O  O29  1  0.83453250  0.96737750  0.58812700  1
  O  O30  1  0.33453250  0.53262250  0.08812700  1
  O  O31  1  0.66546750  0.53262250  0.41187300  1
  O  O32  1  0.85051750  0.70025350  0.77870300  1
  O  O33  1  0.14948250  0.70025350  0.72129700  1
  O  O34  1  0.66546750  0.46737750  0.91187300  1
  O  O35  1  0.05726000  0.71089200  0.00295500  1
  O  O36  1  0.00000000  0.91823600  0.75000000  1
  O  O37  1  0.94274000  0.71089200  0.49704500  1
  O  O38  1  0.94274000  0.28910800  0.99704500  1
  O  O39  1  0.85051750  0.29974650  0.27870300  1
  O  O40  1  0.14948250  0.29974650  0.22129700  1
  O  O41  1  0.00000000  0.08176400  0.25000000  1
  O  O42  1  0.05726000  0.28910800  0.50295500  1
  O  O43  1  0.33453250  0.46737750  0.58812700  1
