# generated using pymatgen
data_Cs4Tc6S13
_symmetry_space_group_name_H-M   'P 1'
_cell_length_a   10.20805600
_cell_length_b   17.33421400
_cell_length_c   13.93373496
_cell_angle_alpha   90.00000000
_cell_angle_beta   100.49772702
_cell_angle_gamma   90.00000000
_symmetry_Int_Tables_number   1
_chemical_formula_structural   Cs4Tc6S13
_chemical_formula_sum   'Cs16 Tc24 S52'
_cell_volume   2424.28714462
_cell_formula_units_Z   4
loop_
 _symmetry_equiv_pos_site_id
 _symmetry_equiv_pos_as_xyz
  1  'x, y, z'
loop_
 _atom_site_type_symbol
 _atom_site_label
 _atom_site_symmetry_multiplicity
 _atom_site_fract_x
 _atom_site_fract_y
 _atom_site_fract_z
 _atom_site_occupancy
  Cs  Cs0  1  0.78658050  0.87330850  0.08859000  1
  Cs  Cs1  1  0.78658050  0.12669150  0.58859000  1
  Cs  Cs2  1  0.21341950  0.87330850  0.41141000  1
  Cs  Cs3  1  0.70552700  0.02162300  0.28869800  1
  Cs  Cs4  1  0.29447300  0.02162300  0.21130200  1
  Cs  Cs5  1  0.21341950  0.12669150  0.91141000  1
  Cs  Cs6  1  0.70552700  0.97837700  0.78869800  1
  Cs  Cs7  1  0.29447300  0.97837700  0.71130200  1
  Cs  Cs8  1  0.28658050  0.37330850  0.08859000  1
  Cs  Cs9  1  0.28658050  0.62669150  0.58859000  1
  Cs  Cs10  1  0.71341950  0.37330850  0.41141000  1
  Cs  Cs11  1  0.20552700  0.52162300  0.28869800  1
  Cs  Cs12  1  0.79447300  0.52162300  0.21130200  1
  Cs  Cs13  1  0.71341950  0.62669150  0.91141000  1
  Cs  Cs14  1  0.20552700  0.47837700  0.78869800  1
  Cs  Cs15  1  0.79447300  0.47837700  0.71130200  1
  Tc  Tc16  1  0.34562600  0.34208700  0.52131500  1
  Tc  Tc17  1  0.34562600  0.65791300  0.02131500  1
  Tc  Tc18  1  0.64098450  0.20574150  0.89149500  1
  Tc  Tc19  1  0.63466250  0.21632850  0.07885400  1
  Tc  Tc20  1  0.35901550  0.79425850  0.10850500  1
  Tc  Tc21  1  0.36533750  0.78367150  0.92114600  1
  Tc  Tc22  1  0.65437400  0.65791300  0.47868500  1
  Tc  Tc23  1  0.35901550  0.20574150  0.60850500  1
  Tc  Tc24  1  0.65437400  0.34208700  0.97868500  1
  Tc  Tc25  1  0.63466250  0.78367150  0.57885400  1
  Tc  Tc26  1  0.36533750  0.21632850  0.42114600  1
  Tc  Tc27  1  0.64098450  0.79425850  0.39149500  1
  Tc  Tc28  1  0.84562600  0.84208700  0.52131500  1
  Tc  Tc29  1  0.84562600  0.15791300  0.02131500  1
  Tc  Tc30  1  0.14098450  0.70574150  0.89149500  1
  Tc  Tc31  1  0.13466250  0.71632850  0.07885400  1
  Tc  Tc32  1  0.85901550  0.29425850  0.10850500  1
  Tc  Tc33  1  0.86533750  0.28367150  0.92114600  1
  Tc  Tc34  1  0.15437400  0.15791300  0.47868500  1
  Tc  Tc35  1  0.85901550  0.70574150  0.60850500  1
  Tc  Tc36  1  0.15437400  0.84208700  0.97868500  1
  Tc  Tc37  1  0.13466250  0.28367150  0.57885400  1
  Tc  Tc38  1  0.86533750  0.71632850  0.42114600  1
  Tc  Tc39  1  0.14098450  0.29425850  0.39149500  1
  S  S40  1  0.63139850  0.09367150  0.99476800  1
  S  S41  1  0.66794850  0.32372950  0.80960400  1
  S  S42  1  0.50000000  0.14133800  0.75000000  1
  S  S43  1  0.36860150  0.90632850  0.00523200  1
  S  S44  1  0.65409450  0.34256250  0.15077700  1
  S  S45  1  0.50000000  0.85866200  0.25000000  1
  S  S46  1  0.66794850  0.67627050  0.30960400  1
  S  S47  1  0.45866700  0.73766800  0.45207400  1
  S  S48  1  0.54133300  0.26233200  0.54792600  1
  S  S49  1  0.53748150  0.18276650  0.32538900  1
  S  S50  1  0.48656800  0.53479600  0.06065300  1
  S  S51  1  0.36860150  0.09367150  0.50523200  1
  S  S52  1  0.33205150  0.67627050  0.19039600  1
  S  S53  1  0.51343200  0.46520400  0.93934700  1
  S  S54  1  0.34590550  0.65743750  0.84922300  1
  S  S55  1  0.53748150  0.81723350  0.82538900  1
  S  S56  1  0.65409450  0.65743750  0.65077700  1
  S  S57  1  0.51343200  0.53479600  0.43934700  1
  S  S58  1  0.33205150  0.32372950  0.69039600  1
  S  S59  1  0.54133300  0.73766800  0.04792600  1
  S  S60  1  0.63139850  0.90632850  0.49476800  1
  S  S61  1  0.48656800  0.46520400  0.56065300  1
  S  S62  1  0.45866700  0.26233200  0.95207400  1
  S  S63  1  0.46251850  0.81723350  0.67461100  1
  S  S64  1  0.34590550  0.34256250  0.34922300  1
  S  S65  1  0.46251850  0.18276650  0.17461100  1
  S  S66  1  0.13139850  0.59367150  0.99476800  1
  S  S67  1  0.16794850  0.82372950  0.80960400  1
  S  S68  1  0.00000000  0.64133800  0.75000000  1
  S  S69  1  0.86860150  0.40632850  0.00523200  1
  S  S70  1  0.15409450  0.84256250  0.15077700  1
  S  S71  1  0.00000000  0.35866200  0.25000000  1
  S  S72  1  0.16794850  0.17627050  0.30960400  1
  S  S73  1  0.95866700  0.23766800  0.45207400  1
  S  S74  1  0.04133300  0.76233200  0.54792600  1
  S  S75  1  0.03748150  0.68276650  0.32538900  1
  S  S76  1  0.98656800  0.03479600  0.06065300  1
  S  S77  1  0.86860150  0.59367150  0.50523200  1
  S  S78  1  0.83205150  0.17627050  0.19039600  1
  S  S79  1  0.01343200  0.96520400  0.93934700  1
  S  S80  1  0.84590550  0.15743750  0.84922300  1
  S  S81  1  0.03748150  0.31723350  0.82538900  1
  S  S82  1  0.15409450  0.15743750  0.65077700  1
  S  S83  1  0.01343200  0.03479600  0.43934700  1
  S  S84  1  0.83205150  0.82372950  0.69039600  1
  S  S85  1  0.04133300  0.23766800  0.04792600  1
  S  S86  1  0.13139850  0.40632850  0.49476800  1
  S  S87  1  0.98656800  0.96520400  0.56065300  1
  S  S88  1  0.95866700  0.76233200  0.95207400  1
  S  S89  1  0.96251850  0.31723350  0.67461100  1
  S  S90  1  0.84590550  0.84256250  0.34922300  1
  S  S91  1  0.96251850  0.68276650  0.17461100  1
