# generated using pymatgen
data_K3Cu11Te16
_symmetry_space_group_name_H-M   'P 1'
_cell_length_a   6.97973800
_cell_length_b   19.72063600
_cell_length_c   23.87261400
_cell_angle_alpha   90.00000000
_cell_angle_beta   90.00000000
_cell_angle_gamma   90.00000000
_symmetry_Int_Tables_number   1
_chemical_formula_structural   K3Cu11Te16
_chemical_formula_sum   'K12 Cu44 Te64'
_cell_volume   3285.94290964
_cell_formula_units_Z   4
loop_
 _symmetry_equiv_pos_site_id
 _symmetry_equiv_pos_as_xyz
  1  'x, y, z'
loop_
 _atom_site_type_symbol
 _atom_site_label
 _atom_site_symmetry_multiplicity
 _atom_site_fract_x
 _atom_site_fract_y
 _atom_site_fract_z
 _atom_site_occupancy
  K  K0  1  0.07294500  0.34775900  0.25000000  1
  K  K1  1  0.07294500  0.65224100  0.25000000  1
  K  K2  1  0.50000000  0.00000000  0.00000000  1
  K  K3  1  0.92705500  0.65224100  0.75000000  1
  K  K4  1  0.00000000  0.50000000  0.00000000  1
  K  K5  1  0.92705500  0.34775900  0.75000000  1
  K  K6  1  0.57294500  0.84775900  0.75000000  1
  K  K7  1  0.57294500  0.15224100  0.75000000  1
  K  K8  1  0.00000000  0.50000000  0.50000000  1
  K  K9  1  0.42705500  0.15224100  0.25000000  1
  K  K10  1  0.50000000  0.00000000  0.50000000  1
  K  K11  1  0.42705500  0.84775900  0.25000000  1
  Cu  Cu12  1  0.29676100  0.61284300  0.91077700  1
  Cu  Cu13  1  0.79676100  0.11284300  0.08922300  1
  Cu  Cu14  1  0.81162250  0.10542050  0.90714550  1
  Cu  Cu15  1  0.29676100  0.38715700  0.91077700  1
  Cu  Cu16  1  0.64881800  0.50000000  0.75000000  1
  Cu  Cu17  1  0.18837750  0.10542050  0.09285450  1
  Cu  Cu18  1  0.18837750  0.89457950  0.09285450  1
  Cu  Cu19  1  0.31162250  0.39457950  0.09285450  1
  Cu  Cu20  1  0.70323900  0.61284300  0.08922300  1
  Cu  Cu21  1  0.68837750  0.39457950  0.90714550  1
  Cu  Cu22  1  0.20323900  0.11284300  0.91077700  1
  Cu  Cu23  1  0.20323900  0.88715700  0.91077700  1
  Cu  Cu24  1  0.35118200  0.50000000  0.25000000  1
  Cu  Cu25  1  0.31162250  0.60542050  0.09285450  1
  Cu  Cu26  1  0.25000000  0.25000000  0.89370600  1
  Cu  Cu27  1  0.68837750  0.60542050  0.90714550  1
  Cu  Cu28  1  0.70323900  0.38715700  0.08922300  1
  Cu  Cu29  1  0.75000000  0.25000000  0.10629400  1
  Cu  Cu30  1  0.81162250  0.89457950  0.90714550  1
  Cu  Cu31  1  0.79676100  0.88715700  0.08922300  1
  Cu  Cu32  1  0.25000000  0.75000000  0.89370600  1
  Cu  Cu33  1  0.75000000  0.75000000  0.10629400  1
  Cu  Cu34  1  0.79676100  0.11284300  0.41077700  1
  Cu  Cu35  1  0.29676100  0.61284300  0.58922300  1
  Cu  Cu36  1  0.31162250  0.60542050  0.40714550  1
  Cu  Cu37  1  0.79676100  0.88715700  0.41077700  1
  Cu  Cu38  1  0.14881800  0.00000000  0.25000000  1
  Cu  Cu39  1  0.68837750  0.60542050  0.59285450  1
  Cu  Cu40  1  0.68837750  0.39457950  0.59285450  1
  Cu  Cu41  1  0.81162250  0.89457950  0.59285450  1
  Cu  Cu42  1  0.20323900  0.11284300  0.58922300  1
  Cu  Cu43  1  0.18837750  0.89457950  0.40714550  1
  Cu  Cu44  1  0.70323900  0.61284300  0.41077700  1
  Cu  Cu45  1  0.70323900  0.38715700  0.41077700  1
  Cu  Cu46  1  0.85118200  0.00000000  0.75000000  1
  Cu  Cu47  1  0.81162250  0.10542050  0.59285450  1
  Cu  Cu48  1  0.75000000  0.75000000  0.39370600  1
  Cu  Cu49  1  0.18837750  0.10542050  0.40714550  1
  Cu  Cu50  1  0.20323900  0.88715700  0.58922300  1
  Cu  Cu51  1  0.25000000  0.75000000  0.60629400  1
  Cu  Cu52  1  0.31162250  0.39457950  0.40714550  1
  Cu  Cu53  1  0.29676100  0.38715700  0.58922300  1
  Cu  Cu54  1  0.75000000  0.25000000  0.39370600  1
  Cu  Cu55  1  0.25000000  0.25000000  0.60629400  1
  Te  Te56  1  0.98560450  0.32399850  0.94034150  1
  Te  Te57  1  0.51439550  0.17600150  0.94034150  1
  Te  Te58  1  0.48218850  0.68732750  0.16100150  1
  Te  Te59  1  0.20811000  0.50000000  0.85830700  1
  Te  Te60  1  0.51781150  0.68732750  0.83899850  1
  Te  Te61  1  0.60345800  0.40235500  0.25000000  1
  Te  Te62  1  0.20811000  0.50000000  0.64169300  1
  Te  Te63  1  0.51781150  0.31267250  0.83899850  1
  Te  Te64  1  0.79189000  0.50000000  0.14169300  1
  Te  Te65  1  0.48560450  0.17600150  0.05965850  1
  Te  Te66  1  0.79189000  0.50000000  0.35830700  1
  Te  Te67  1  0.98560450  0.67600150  0.94034150  1
  Te  Te68  1  0.20396800  0.50000000  0.14970700  1
  Te  Te69  1  0.01781150  0.18732750  0.16100150  1
  Te  Te70  1  0.39654200  0.40235500  0.75000000  1
  Te  Te71  1  0.50000000  0.57431800  0.00000000  1
  Te  Te72  1  0.79603200  0.50000000  0.85029300  1
  Te  Te73  1  0.50000000  0.42568200  0.00000000  1
  Te  Te74  1  0.48560450  0.82399850  0.05965850  1
  Te  Te75  1  0.98218850  0.81267250  0.83899850  1
  Te  Te76  1  0.60345800  0.59764500  0.25000000  1
  Te  Te77  1  0.39654200  0.59764500  0.75000000  1
  Te  Te78  1  0.79603200  0.50000000  0.64970700  1
  Te  Te79  1  0.00000000  0.07431800  0.00000000  1
  Te  Te80  1  0.48218850  0.31267250  0.16100150  1
  Te  Te81  1  0.20396800  0.50000000  0.35029300  1
  Te  Te82  1  0.01781150  0.81267250  0.16100150  1
  Te  Te83  1  0.98218850  0.18732750  0.83899850  1
  Te  Te84  1  0.01439550  0.32399850  0.05965850  1
  Te  Te85  1  0.01439550  0.67600150  0.05965850  1
  Te  Te86  1  0.00000000  0.92568200  0.00000000  1
  Te  Te87  1  0.51439550  0.82399850  0.94034150  1
  Te  Te88  1  0.48560450  0.82399850  0.44034150  1
  Te  Te89  1  0.01439550  0.67600150  0.44034150  1
  Te  Te90  1  0.98218850  0.18732750  0.66100150  1
  Te  Te91  1  0.70811000  0.00000000  0.35830700  1
  Te  Te92  1  0.01781150  0.18732750  0.33899850  1
  Te  Te93  1  0.10345800  0.90235500  0.75000000  1
  Te  Te94  1  0.70811000  0.00000000  0.14169300  1
  Te  Te95  1  0.01781150  0.81267250  0.33899850  1
  Te  Te96  1  0.29189000  0.00000000  0.64169300  1
  Te  Te97  1  0.98560450  0.67600150  0.55965850  1
  Te  Te98  1  0.29189000  0.00000000  0.85830700  1
  Te  Te99  1  0.48560450  0.17600150  0.44034150  1
  Te  Te100  1  0.70396800  0.00000000  0.64970700  1
  Te  Te101  1  0.51781150  0.68732750  0.66100150  1
  Te  Te102  1  0.89654200  0.90235500  0.25000000  1
  Te  Te103  1  0.00000000  0.07431800  0.50000000  1
  Te  Te104  1  0.29603200  0.00000000  0.35029300  1
  Te  Te105  1  0.00000000  0.92568200  0.50000000  1
  Te  Te106  1  0.98560450  0.32399850  0.55965850  1
  Te  Te107  1  0.48218850  0.31267250  0.33899850  1
  Te  Te108  1  0.10345800  0.09764500  0.75000000  1
  Te  Te109  1  0.89654200  0.09764500  0.25000000  1
  Te  Te110  1  0.29603200  0.00000000  0.14970700  1
  Te  Te111  1  0.50000000  0.57431800  0.50000000  1
  Te  Te112  1  0.98218850  0.81267250  0.66100150  1
  Te  Te113  1  0.70396800  0.00000000  0.85029300  1
  Te  Te114  1  0.51781150  0.31267250  0.66100150  1
  Te  Te115  1  0.48218850  0.68732750  0.33899850  1
  Te  Te116  1  0.51439550  0.82399850  0.55965850  1
  Te  Te117  1  0.51439550  0.17600150  0.55965850  1
  Te  Te118  1  0.50000000  0.42568200  0.50000000  1
  Te  Te119  1  0.01439550  0.32399850  0.44034150  1
