# generated using pymatgen
data_K3Ta2Ag3S8
_symmetry_space_group_name_H-M   'P 1'
_cell_length_a   25.11438600
_cell_length_b   6.00103600
_cell_length_c   14.37275475
_cell_angle_alpha   90.00000000
_cell_angle_beta   119.70076215
_cell_angle_gamma   90.00000000
_symmetry_Int_Tables_number   1
_chemical_formula_structural   K3Ta2Ag3S8
_chemical_formula_sum   'K12 Ta8 Ag12 S32'
_cell_volume   1881.57311362
_cell_formula_units_Z   4
loop_
 _symmetry_equiv_pos_site_id
 _symmetry_equiv_pos_as_xyz
  1  'x, y, z'
loop_
 _atom_site_type_symbol
 _atom_site_label
 _atom_site_symmetry_multiplicity
 _atom_site_fract_x
 _atom_site_fract_y
 _atom_site_fract_z
 _atom_site_occupancy
  K  K0  1  0.80280200  0.56405800  0.39792900  1
  K  K1  1  0.00000000  0.00000000  0.00000000  1
  K  K2  1  0.30280200  0.93594200  0.89792900  1
  K  K3  1  0.00000000  0.00000000  0.50000000  1
  K  K4  1  0.69719800  0.06405800  0.10207100  1
  K  K5  1  0.19719800  0.43594200  0.60207100  1
  K  K6  1  0.30280200  0.06405800  0.39792900  1
  K  K7  1  0.50000000  0.50000000  0.00000000  1
  K  K8  1  0.80280200  0.43594200  0.89792900  1
  K  K9  1  0.50000000  0.50000000  0.50000000  1
  K  K10  1  0.19719800  0.56405800  0.10207100  1
  K  K11  1  0.69719800  0.93594200  0.60207100  1
  Ta  Ta12  1  0.12751800  0.28922200  0.27870200  1
  Ta  Ta13  1  0.12751800  0.71077800  0.77870200  1
  Ta  Ta14  1  0.87248200  0.28922200  0.22129800  1
  Ta  Ta15  1  0.87248200  0.71077800  0.72129800  1
  Ta  Ta16  1  0.62751800  0.78922200  0.27870200  1
  Ta  Ta17  1  0.62751800  0.21077800  0.77870200  1
  Ta  Ta18  1  0.37248200  0.78922200  0.22129800  1
  Ta  Ta19  1  0.37248200  0.21077800  0.72129800  1
  Ag  Ag20  1  0.00000000  0.71195300  0.75000000  1
  Ag  Ag21  1  0.87315950  0.78930850  0.21399700  1
  Ag  Ag22  1  0.87315950  0.21069150  0.71399700  1
  Ag  Ag23  1  0.12684050  0.78930850  0.28600300  1
  Ag  Ag24  1  0.00000000  0.28804700  0.25000000  1
  Ag  Ag25  1  0.12684050  0.21069150  0.78600300  1
  Ag  Ag26  1  0.50000000  0.21195300  0.75000000  1
  Ag  Ag27  1  0.37315950  0.28930850  0.21399700  1
  Ag  Ag28  1  0.37315950  0.71069150  0.71399700  1
  Ag  Ag29  1  0.62684050  0.28930850  0.28600300  1
  Ag  Ag30  1  0.50000000  0.78804700  0.25000000  1
  Ag  Ag31  1  0.62684050  0.71069150  0.78600300  1
  S  S32  1  0.04691050  0.49494750  0.65347100  1
  S  S33  1  0.34252100  0.43446400  0.81715200  1
  S  S34  1  0.04691050  0.50505250  0.15347100  1
  S  S35  1  0.65747900  0.56553600  0.18284800  1
  S  S36  1  0.95308950  0.49494750  0.84652900  1
  S  S37  1  0.21036500  0.49767500  0.89032500  1
  S  S38  1  0.28963500  0.99767500  0.60967500  1
  S  S39  1  0.71036500  0.00232500  0.39032500  1
  S  S40  1  0.15747900  0.93446400  0.68284800  1
  S  S41  1  0.90128050  0.91688750  0.61596300  1
  S  S42  1  0.78963500  0.50232500  0.10967500  1
  S  S43  1  0.95308950  0.50505250  0.34652900  1
  S  S44  1  0.09871950  0.91688750  0.88403700  1
  S  S45  1  0.84252100  0.06553600  0.31715200  1
  S  S46  1  0.09871950  0.08311250  0.38403700  1
  S  S47  1  0.90128050  0.08311250  0.11596300  1
  S  S48  1  0.54691050  0.99494750  0.65347100  1
  S  S49  1  0.84252100  0.93446400  0.81715200  1
  S  S50  1  0.54691050  0.00505250  0.15347100  1
  S  S51  1  0.15747900  0.06553600  0.18284800  1
  S  S52  1  0.45308950  0.99494750  0.84652900  1
  S  S53  1  0.71036500  0.99767500  0.89032500  1
  S  S54  1  0.78963500  0.49767500  0.60967500  1
  S  S55  1  0.21036500  0.50232500  0.39032500  1
  S  S56  1  0.65747900  0.43446400  0.68284800  1
  S  S57  1  0.40128050  0.41688750  0.61596300  1
  S  S58  1  0.28963500  0.00232500  0.10967500  1
  S  S59  1  0.45308950  0.00505250  0.34652900  1
  S  S60  1  0.59871950  0.41688750  0.88403700  1
  S  S61  1  0.34252100  0.56553600  0.31715200  1
  S  S62  1  0.59871950  0.58311250  0.38403700  1
  S  S63  1  0.40128050  0.58311250  0.11596300  1
