# generated using pymatgen
data_KW3Br7
_symmetry_space_group_name_H-M   'P 1'
_cell_length_a   14.13441400
_cell_length_b   14.39811700
_cell_length_c   14.41957700
_cell_angle_alpha   90.00000000
_cell_angle_beta   90.00000000
_cell_angle_gamma   90.00000000
_symmetry_Int_Tables_number   1
_chemical_formula_structural   KW3Br7
_chemical_formula_sum   'K8 W24 Br56'
_cell_volume   2934.51292422
_cell_formula_units_Z   8
loop_
 _symmetry_equiv_pos_site_id
 _symmetry_equiv_pos_as_xyz
  1  'x, y, z'
loop_
 _atom_site_type_symbol
 _atom_site_label
 _atom_site_symmetry_multiplicity
 _atom_site_fract_x
 _atom_site_fract_y
 _atom_site_fract_z
 _atom_site_occupancy
  K  K0  1  0.25000000  0.75000000  0.75000000  1
  K  K1  1  0.75000000  0.25000000  0.75000000  1
  K  K2  1  0.00000000  0.50000000  0.00000000  1
  K  K3  1  0.50000000  0.00000000  0.00000000  1
  K  K4  1  0.25000000  0.25000000  0.25000000  1
  K  K5  1  0.75000000  0.75000000  0.25000000  1
  K  K6  1  0.50000000  0.00000000  0.50000000  1
  K  K7  1  0.00000000  0.50000000  0.50000000  1
  W  W8  1  0.37252000  0.29003000  0.77935000  1
  W  W9  1  0.62748000  0.70997000  0.77935000  1
  W  W10  1  0.28052400  0.12953200  0.79094500  1
  W  W11  1  0.71947600  0.87046800  0.79094500  1
  W  W12  1  0.79089000  0.71832700  0.87007000  1
  W  W13  1  0.20911000  0.28167300  0.87007000  1
  W  W14  1  0.20911000  0.71832700  0.12993000  1
  W  W15  1  0.79089000  0.28167300  0.12993000  1
  W  W16  1  0.28052400  0.87046800  0.20905500  1
  W  W17  1  0.71947600  0.12953200  0.20905500  1
  W  W18  1  0.62748000  0.29003000  0.22065000  1
  W  W19  1  0.37252000  0.70997000  0.22065000  1
  W  W20  1  0.12748000  0.79003000  0.27935000  1
  W  W21  1  0.87252000  0.20997000  0.27935000  1
  W  W22  1  0.78052400  0.37046800  0.29094500  1
  W  W23  1  0.21947600  0.62953200  0.29094500  1
  W  W24  1  0.70911000  0.21832700  0.37007000  1
  W  W25  1  0.29089000  0.78167300  0.37007000  1
  W  W26  1  0.29089000  0.21832700  0.62993000  1
  W  W27  1  0.70911000  0.78167300  0.62993000  1
  W  W28  1  0.21947600  0.37046800  0.70905500  1
  W  W29  1  0.78052400  0.62953200  0.70905500  1
  W  W30  1  0.87252000  0.79003000  0.72065000  1
  W  W31  1  0.12748000  0.20997000  0.72065000  1
  Br  Br32  1  0.94392400  0.63766100  0.79912000  1
  Br  Br33  1  0.05607600  0.36233900  0.79912000  1
  Br  Br34  1  0.54380700  0.34281900  0.82121300  1
  Br  Br35  1  0.45619300  0.65718100  0.82121300  1
  Br  Br36  1  0.32618800  0.95966800  0.84637300  1
  Br  Br37  1  0.67381200  0.04033200  0.84637300  1
  Br  Br38  1  0.30197100  0.44115200  0.85820800  1
  Br  Br39  1  0.69802900  0.55884800  0.85820800  1
  Br  Br40  1  0.11786800  0.12063000  0.88194400  1
  Br  Br41  1  0.88213200  0.87937000  0.88194400  1
  Br  Br42  1  0.63823600  0.79783200  0.94140900  1
  Br  Br43  1  0.36176400  0.20216800  0.94140900  1
  Br  Br44  1  0.84644800  0.32707500  0.96035300  1
  Br  Br45  1  0.15355200  0.67292500  0.96035300  1
  Br  Br46  1  0.15355200  0.32707500  0.03964700  1
  Br  Br47  1  0.84644800  0.67292500  0.03964700  1
  Br  Br48  1  0.36176400  0.79783200  0.05859100  1
  Br  Br49  1  0.63823600  0.20216800  0.05859100  1
  Br  Br50  1  0.11786800  0.87937000  0.11805600  1
  Br  Br51  1  0.88213200  0.12063000  0.11805600  1
  Br  Br52  1  0.69802900  0.44115200  0.14179200  1
  Br  Br53  1  0.30197100  0.55884800  0.14179200  1
  Br  Br54  1  0.67381200  0.95966800  0.15362700  1
  Br  Br55  1  0.32618800  0.04033200  0.15362700  1
  Br  Br56  1  0.45619300  0.34281900  0.17878700  1
  Br  Br57  1  0.54380700  0.65718100  0.17878700  1
  Br  Br58  1  0.94392400  0.36233900  0.20088000  1
  Br  Br59  1  0.05607600  0.63766100  0.20088000  1
  Br  Br60  1  0.44392400  0.86233900  0.29912000  1
  Br  Br61  1  0.55607600  0.13766100  0.29912000  1
  Br  Br62  1  0.95619300  0.84281900  0.32121300  1
  Br  Br63  1  0.04380700  0.15718100  0.32121300  1
  Br  Br64  1  0.17381200  0.45966800  0.34637300  1
  Br  Br65  1  0.82618800  0.54033200  0.34637300  1
  Br  Br66  1  0.19802900  0.94115200  0.35820800  1
  Br  Br67  1  0.80197100  0.05884800  0.35820800  1
  Br  Br68  1  0.61786800  0.37937000  0.38194400  1
  Br  Br69  1  0.38213200  0.62063000  0.38194400  1
  Br  Br70  1  0.13823600  0.70216800  0.44140900  1
  Br  Br71  1  0.86176400  0.29783200  0.44140900  1
  Br  Br72  1  0.65355200  0.82707500  0.46035300  1
  Br  Br73  1  0.34644800  0.17292500  0.46035300  1
  Br  Br74  1  0.34644800  0.82707500  0.53964700  1
  Br  Br75  1  0.65355200  0.17292500  0.53964700  1
  Br  Br76  1  0.13823600  0.29783200  0.55859100  1
  Br  Br77  1  0.86176400  0.70216800  0.55859100  1
  Br  Br78  1  0.61786800  0.62063000  0.61805600  1
  Br  Br79  1  0.38213200  0.37937000  0.61805600  1
  Br  Br80  1  0.80197100  0.94115200  0.64179200  1
  Br  Br81  1  0.19802900  0.05884800  0.64179200  1
  Br  Br82  1  0.82618800  0.45966800  0.65362700  1
  Br  Br83  1  0.17381200  0.54033200  0.65362700  1
  Br  Br84  1  0.04380700  0.84281900  0.67878700  1
  Br  Br85  1  0.95619300  0.15718100  0.67878700  1
  Br  Br86  1  0.44392400  0.13766100  0.70088000  1
  Br  Br87  1  0.55607600  0.86233900  0.70088000  1
