# generated using pymatgen
data_BaSbClO2
_symmetry_space_group_name_H-M   'P 1'
_cell_length_a   5.95254400
_cell_length_b   13.11673800
_cell_length_c   5.59924500
_cell_angle_alpha   90.00000000
_cell_angle_beta   90.00000000
_cell_angle_gamma   90.00000000
_symmetry_Int_Tables_number   1
_chemical_formula_structural   BaSbClO2
_chemical_formula_sum   'Ba4 Sb4 Cl4 O8'
_cell_volume   437.17762760
_cell_formula_units_Z   4
loop_
 _symmetry_equiv_pos_site_id
 _symmetry_equiv_pos_as_xyz
  1  'x, y, z'
loop_
 _atom_site_type_symbol
 _atom_site_label
 _atom_site_symmetry_multiplicity
 _atom_site_fract_x
 _atom_site_fract_y
 _atom_site_fract_z
 _atom_site_occupancy
  Ba  Ba0  1  0.50000000  0.12781600  0.75000000  1
  Ba  Ba1  1  0.00000000  0.37218400  0.25000000  1
  Ba  Ba2  1  0.00000000  0.62781600  0.75000000  1
  Ba  Ba3  1  0.50000000  0.87218400  0.25000000  1
  Sb  Sb4  1  0.50000000  0.43146100  0.75000000  1
  Sb  Sb5  1  0.00000000  0.06853900  0.25000000  1
  Sb  Sb6  1  0.00000000  0.93146100  0.75000000  1
  Sb  Sb7  1  0.50000000  0.56853900  0.25000000  1
  Cl  Cl8  1  0.50000000  0.24697700  0.25000000  1
  Cl  Cl9  1  0.00000000  0.25302300  0.75000000  1
  Cl  Cl10  1  0.00000000  0.74697700  0.25000000  1
  Cl  Cl11  1  0.50000000  0.75302300  0.75000000  1
  O  O12  1  0.21694900  0.00000000  0.00000000  1
  O  O13  1  0.78305100  0.00000000  0.50000000  1
  O  O14  1  0.21694900  0.00000000  0.50000000  1
  O  O15  1  0.78305100  0.00000000  0.00000000  1
  O  O16  1  0.71694900  0.50000000  0.00000000  1
  O  O17  1  0.28305100  0.50000000  0.50000000  1
  O  O18  1  0.71694900  0.50000000  0.50000000  1
  O  O19  1  0.28305100  0.50000000  0.00000000  1
