# generated using pymatgen
data_Ag3AsS3
_symmetry_space_group_name_H-M   'P 1'
_cell_length_a   11.65184371
_cell_length_b   11.65184371
_cell_length_c   8.69645692
_cell_angle_alpha   90.00000000
_cell_angle_beta   90.00000000
_cell_angle_gamma   120.00000000
_symmetry_Int_Tables_number   1
_chemical_formula_structural   Ag3AsS3
_chemical_formula_sum   'Ag18 As6 S18'
_cell_volume   1022.49756693
_cell_formula_units_Z   6
loop_
 _symmetry_equiv_pos_site_id
 _symmetry_equiv_pos_as_xyz
  1  'x, y, z'
loop_
 _atom_site_type_symbol
 _atom_site_label
 _atom_site_symmetry_multiplicity
 _atom_site_fract_x
 _atom_site_fract_y
 _atom_site_fract_z
 _atom_site_occupancy
  Ag  Ag0  1  0.31024400  0.10923600  0.23295700  1
  Ag  Ag1  1  0.64357733  0.86767467  0.39962367  1
  Ag  Ag2  1  0.79899200  0.68975600  0.23295700  1
  Ag  Ag3  1  0.22409733  0.35642267  0.39962367  1
  Ag  Ag4  1  0.89076400  0.20100800  0.23295700  1
  Ag  Ag5  1  0.13232533  0.77590267  0.39962367  1
  Ag  Ag6  1  0.97691067  0.44256933  0.56629033  1
  Ag  Ag7  1  0.31024400  0.20100800  0.73295700  1
  Ag  Ag8  1  0.46565867  0.02308933  0.56629033  1
  Ag  Ag9  1  0.89076400  0.68975600  0.73295700  1
  Ag  Ag10  1  0.55743067  0.53434133  0.56629033  1
  Ag  Ag11  1  0.79899200  0.10923600  0.73295700  1
  Ag  Ag12  1  0.64357733  0.77590267  0.89962367  1
  Ag  Ag13  1  0.97691067  0.53434133  0.06629033  1
  Ag  Ag14  1  0.13232533  0.35642267  0.89962367  1
  Ag  Ag15  1  0.55743067  0.02308933  0.06629033  1
  Ag  Ag16  1  0.22409733  0.86767467  0.89962367  1
  Ag  Ag17  1  0.46565867  0.44256933  0.06629033  1
  As  As18  1  0.00000000  0.00000000  0.58692800  1
  As  As19  1  0.00000000  0.00000000  0.08692800  1
  As  As20  1  0.66666667  0.33333333  0.92026133  1
  As  As21  1  0.66666667  0.33333333  0.42026133  1
  As  As22  1  0.33333333  0.66666667  0.25359467  1
  As  As23  1  0.33333333  0.66666667  0.75359467  1
  S  S24  1  0.93589800  0.79641700  0.47746700  1
  S  S25  1  0.26923133  0.80614767  0.64413367  1
  S  S26  1  0.86051900  0.06410200  0.47746700  1
  S  S27  1  0.53691633  0.73076867  0.64413367  1
  S  S28  1  0.20358300  0.13948100  0.47746700  1
  S  S29  1  0.19385233  0.46308367  0.64413367  1
  S  S30  1  0.60256467  0.12975033  0.81080033  1
  S  S31  1  0.93589800  0.13948100  0.97746700  1
  S  S32  1  0.52718567  0.39743533  0.81080033  1
  S  S33  1  0.20358300  0.06410200  0.97746700  1
  S  S34  1  0.87024967  0.47281433  0.81080033  1
  S  S35  1  0.86051900  0.79641700  0.97746700  1
  S  S36  1  0.26923133  0.46308367  0.14413367  1
  S  S37  1  0.60256467  0.47281433  0.31080033  1
  S  S38  1  0.19385233  0.73076867  0.14413367  1
  S  S39  1  0.87024967  0.39743533  0.31080033  1
  S  S40  1  0.53691633  0.80614767  0.14413367  1
  S  S41  1  0.52718567  0.12975033  0.31080033  1
