# generated using pymatgen
data_LiCrPO4
_symmetry_space_group_name_H-M   'P 1'
_cell_length_a   5.99065665
_cell_length_b   6.50136152
_cell_length_c   9.70901582
_cell_angle_alpha   70.47666250
_cell_angle_beta   81.32082100
_cell_angle_gamma   81.25180224
_symmetry_Int_Tables_number   1
_chemical_formula_structural   LiCrPO4
_chemical_formula_sum   'Li4 Cr4 P4 O16'
_cell_volume   350.21530292
_cell_formula_units_Z   4
loop_
 _symmetry_equiv_pos_site_id
 _symmetry_equiv_pos_as_xyz
  1  'x, y, z'
loop_
 _atom_site_type_symbol
 _atom_site_label
 _atom_site_symmetry_multiplicity
 _atom_site_fract_x
 _atom_site_fract_y
 _atom_site_fract_z
 _atom_site_occupancy
  Li  Li0  1  0.41715300  0.63790100  0.32449000  1
  Li  Li1  1  0.58284700  0.36209900  0.67551000  1
  Li  Li2  1  0.40917600  0.16597900  0.29514300  1
  Li  Li3  1  0.59082400  0.83402100  0.70485700  1
  Cr  Cr4  1  0.01501900  0.09970500  0.72421200  1
  Cr  Cr5  1  0.98498100  0.90029500  0.27578800  1
  Cr  Cr6  1  0.79480200  0.63777200  0.07312400  1
  Cr  Cr7  1  0.20519800  0.36222800  0.92687600  1
  P  P8  1  0.70781100  0.18388300  0.01407100  1
  P  P9  1  0.29218900  0.81611700  0.98592900  1
  P  P10  1  0.84501500  0.27261000  0.38921000  1
  P  P11  1  0.15498500  0.72739000  0.61079000  1
  O  O12  1  0.09585500  0.25886500  0.33029800  1
  O  O13  1  0.90414500  0.74113500  0.66970200  1
  O  O14  1  0.20751100  0.05868000  0.89496000  1
  O  O15  1  0.79248900  0.94132000  0.10504000  1
  O  O16  1  0.73058800  0.20689200  0.84845900  1
  O  O17  1  0.26941200  0.79310800  0.15154100  1
  O  O18  1  0.28718600  0.50111000  0.69157000  1
  O  O19  1  0.71281400  0.49889000  0.30843000  1
  O  O20  1  0.86518700  0.33542500  0.03898400  1
  O  O21  1  0.13481300  0.66457500  0.96101600  1
  O  O22  1  0.19108900  0.75280800  0.44297400  1
  O  O23  1  0.80891100  0.24719200  0.55702600  1
  O  O24  1  0.53722700  0.75887900  0.92585500  1
  O  O25  1  0.46277300  0.24112100  0.07414500  1
  O  O26  1  0.27139600  0.91309000  0.63459100  1
  O  O27  1  0.72860400  0.08691000  0.36540900  1
