# generated using pymatgen
data_Pr3Si2S8I
_symmetry_space_group_name_H-M   'P 1'
_cell_length_a   16.10155400
_cell_length_b   7.91473000
_cell_length_c   10.93602657
_cell_angle_alpha   90.00000000
_cell_angle_beta   98.05843573
_cell_angle_gamma   90.00000000
_symmetry_Int_Tables_number   1
_chemical_formula_structural   Pr3Si2S8I
_chemical_formula_sum   'Pr12 Si8 S32 I4'
_cell_volume   1379.91948914
_cell_formula_units_Z   4
loop_
 _symmetry_equiv_pos_site_id
 _symmetry_equiv_pos_as_xyz
  1  'x, y, z'
loop_
 _atom_site_type_symbol
 _atom_site_label
 _atom_site_symmetry_multiplicity
 _atom_site_fract_x
 _atom_site_fract_y
 _atom_site_fract_z
 _atom_site_occupancy
  Pr  Pr0  1  0.80114450  0.87738550  0.81861100  1
  Pr  Pr1  1  0.00000000  0.40214100  0.75000000  1
  Pr  Pr2  1  0.69885550  0.62261450  0.18138900  1
  Pr  Pr3  1  0.69885550  0.37738550  0.68138900  1
  Pr  Pr4  1  0.80114450  0.12261450  0.31861100  1
  Pr  Pr5  1  0.00000000  0.59785900  0.25000000  1
  Pr  Pr6  1  0.30114450  0.37738550  0.81861100  1
  Pr  Pr7  1  0.50000000  0.90214100  0.75000000  1
  Pr  Pr8  1  0.19885550  0.12261450  0.18138900  1
  Pr  Pr9  1  0.19885550  0.87738550  0.68138900  1
  Pr  Pr10  1  0.30114450  0.62261450  0.31861100  1
  Pr  Pr11  1  0.50000000  0.09785900  0.25000000  1
  Si  Si12  1  0.65971250  0.96303550  0.52940400  1
  Si  Si13  1  0.84028750  0.46303550  0.97059600  1
  Si  Si14  1  0.84028750  0.53696450  0.47059600  1
  Si  Si15  1  0.65971250  0.03696450  0.02940400  1
  Si  Si16  1  0.15971250  0.46303550  0.52940400  1
  Si  Si17  1  0.34028750  0.96303550  0.97059600  1
  Si  Si18  1  0.34028750  0.03696450  0.47059600  1
  Si  Si19  1  0.15971250  0.53696450  0.02940400  1
  S  S20  1  0.71870200  0.56913300  0.91417300  1
  S  S21  1  0.56852200  0.84656100  0.04274300  1
  S  S22  1  0.78129800  0.06913300  0.58582700  1
  S  S23  1  0.64960700  0.09888400  0.83868600  1
  S  S24  1  0.85501250  0.74448950  0.35259400  1
  S  S25  1  0.64498750  0.24448950  0.14740600  1
  S  S26  1  0.93147800  0.65343900  0.95725700  1
  S  S27  1  0.78129800  0.93086700  0.08582700  1
  S  S28  1  0.64960700  0.90111600  0.33868600  1
  S  S29  1  0.85039300  0.59888400  0.66131400  1
  S  S30  1  0.64498750  0.75551050  0.64740600  1
  S  S31  1  0.56852200  0.15343900  0.54274300  1
  S  S32  1  0.85039300  0.40111600  0.16131400  1
  S  S33  1  0.85501250  0.25551050  0.85259400  1
  S  S34  1  0.93147800  0.34656100  0.45725700  1
  S  S35  1  0.71870200  0.43086700  0.41417300  1
  S  S36  1  0.21870200  0.06913300  0.91417300  1
  S  S37  1  0.06852200  0.34656100  0.04274300  1
  S  S38  1  0.28129800  0.56913300  0.58582700  1
  S  S39  1  0.14960700  0.59888400  0.83868600  1
  S  S40  1  0.35501250  0.24448950  0.35259400  1
  S  S41  1  0.14498750  0.74448950  0.14740600  1
  S  S42  1  0.43147800  0.15343900  0.95725700  1
  S  S43  1  0.28129800  0.43086700  0.08582700  1
  S  S44  1  0.14960700  0.40111600  0.33868600  1
  S  S45  1  0.35039300  0.09888400  0.66131400  1
  S  S46  1  0.14498750  0.25551050  0.64740600  1
  S  S47  1  0.06852200  0.65343900  0.54274300  1
  S  S48  1  0.35039300  0.90111600  0.16131400  1
  S  S49  1  0.35501250  0.75551050  0.85259400  1
  S  S50  1  0.43147800  0.84656100  0.45725700  1
  S  S51  1  0.21870200  0.93086700  0.41417300  1
  I  I52  1  0.00000000  0.01338400  0.25000000  1
  I  I53  1  0.00000000  0.98661600  0.75000000  1
  I  I54  1  0.50000000  0.51338400  0.25000000  1
  I  I55  1  0.50000000  0.48661600  0.75000000  1
