# generated using pymatgen
data_NaZr2(AsO4)3
_symmetry_space_group_name_H-M   'P 1'
_cell_length_a   9.33981594
_cell_length_b   9.33981594
_cell_length_c   23.47779541
_cell_angle_alpha   90.00000000
_cell_angle_beta   90.00000000
_cell_angle_gamma   120.00000000
_symmetry_Int_Tables_number   1
_chemical_formula_structural   NaZr2(AsO4)3
_chemical_formula_sum   'Na6 Zr12 As18 O72'
_cell_volume   1773.63634967
_cell_formula_units_Z   6
loop_
 _symmetry_equiv_pos_site_id
 _symmetry_equiv_pos_as_xyz
  1  'x, y, z'
loop_
 _atom_site_type_symbol
 _atom_site_label
 _atom_site_symmetry_multiplicity
 _atom_site_fract_x
 _atom_site_fract_y
 _atom_site_fract_z
 _atom_site_occupancy
  Na  Na0  1  0.00000000  0.00000000  0.00000000  1
  Na  Na1  1  0.33333333  0.66666667  0.16666667  1
  Na  Na2  1  0.66666667  0.33333333  0.33333333  1
  Na  Na3  1  0.00000000  0.00000000  0.50000000  1
  Na  Na4  1  0.33333333  0.66666667  0.66666667  1
  Na  Na5  1  0.66666667  0.33333333  0.83333333  1
  Zr  Zr6  1  0.66666667  0.33333333  0.19014133  1
  Zr  Zr7  1  0.33333333  0.66666667  0.30985867  1
  Zr  Zr8  1  0.33333333  0.66666667  0.02347467  1
  Zr  Zr9  1  0.00000000  0.00000000  0.14319200  1
  Zr  Zr10  1  0.33333333  0.66666667  0.52347467  1
  Zr  Zr11  1  0.00000000  0.00000000  0.64319200  1
  Zr  Zr12  1  0.00000000  0.00000000  0.35680800  1
  Zr  Zr13  1  0.66666667  0.33333333  0.47652533  1
  Zr  Zr14  1  0.00000000  0.00000000  0.85680800  1
  Zr  Zr15  1  0.66666667  0.33333333  0.97652533  1
  Zr  Zr16  1  0.66666667  0.33333333  0.69014133  1
  Zr  Zr17  1  0.33333333  0.66666667  0.80985867  1
  As  As18  1  0.66666667  0.62425933  0.08333333  1
  As  As19  1  0.70907400  0.00000000  0.25000000  1
  As  As20  1  0.95759267  0.33333333  0.08333333  1
  As  As21  1  0.00000000  0.70907400  0.25000000  1
  As  As22  1  0.37574067  0.04240733  0.08333333  1
  As  As23  1  0.29092600  0.29092600  0.25000000  1
  As  As24  1  0.33333333  0.95759267  0.41666667  1
  As  As25  1  0.37574067  0.33333333  0.58333333  1
  As  As26  1  0.62425933  0.66666667  0.41666667  1
  As  As27  1  0.66666667  0.04240733  0.58333333  1
  As  As28  1  0.04240733  0.37574067  0.41666667  1
  As  As29  1  0.95759267  0.62425933  0.58333333  1
  As  As30  1  0.00000000  0.29092600  0.75000000  1
  As  As31  1  0.04240733  0.66666667  0.91666667  1
  As  As32  1  0.29092600  0.00000000  0.75000000  1
  As  As33  1  0.33333333  0.37574067  0.91666667  1
  As  As34  1  0.70907400  0.70907400  0.75000000  1
  As  As35  1  0.62425933  0.95759267  0.91666667  1
  O  O36  1  0.84625333  0.31937067  0.02376367  1
  O  O37  1  0.18392300  0.02325300  0.08379600  1
  O  O38  1  0.65270400  0.51292000  0.14290300  1
  O  O39  1  0.49400333  0.64341367  0.08287067  1
  O  O40  1  0.82041333  0.01396267  0.30956967  1
  O  O41  1  0.83933000  0.81607700  0.08379600  1
  O  O42  1  0.48274367  0.31008033  0.24953733  1
  O  O43  1  0.51725633  0.82733667  0.25046267  1
  O  O44  1  0.17266333  0.68991967  0.25046267  1
  O  O45  1  0.47311733  0.15374667  0.02376367  1
  O  O46  1  0.82733667  0.51725633  0.24953733  1
  O  O47  1  0.01396267  0.82041333  0.19043033  1
  O  O48  1  0.80645067  0.98603733  0.19043033  1
  O  O49  1  0.17958667  0.19354933  0.19043033  1
  O  O50  1  0.68991967  0.17266333  0.24953733  1
  O  O51  1  0.19354933  0.17958667  0.30956967  1
  O  O52  1  0.14941033  0.50599667  0.08287067  1
  O  O53  1  0.48708000  0.13978400  0.14290300  1
  O  O54  1  0.86021600  0.34729600  0.14290300  1
  O  O55  1  0.35658633  0.85058967  0.08287067  1
  O  O56  1  0.31008033  0.48274367  0.25046267  1
  O  O57  1  0.68062933  0.52688267  0.02376367  1
  O  O58  1  0.98603733  0.80645067  0.30956967  1
  O  O59  1  0.97674700  0.16067000  0.08379600  1
  O  O60  1  0.51292000  0.65270400  0.35709700  1
  O  O61  1  0.85058967  0.35658633  0.41712933  1
  O  O62  1  0.31937067  0.84625333  0.47623633  1
  O  O63  1  0.16067000  0.97674700  0.41620400  1
  O  O64  1  0.48708000  0.34729600  0.64290300  1
  O  O65  1  0.50599667  0.14941033  0.41712933  1
  O  O66  1  0.14941033  0.64341367  0.58287067  1
  O  O67  1  0.18392300  0.16067000  0.58379600  1
  O  O68  1  0.83933000  0.02325300  0.58379600  1
  O  O69  1  0.13978400  0.48708000  0.35709700  1
  O  O70  1  0.49400333  0.85058967  0.58287067  1
  O  O71  1  0.68062933  0.15374667  0.52376367  1
  O  O72  1  0.47311733  0.31937067  0.52376367  1
  O  O73  1  0.84625333  0.52688267  0.52376367  1
  O  O74  1  0.35658633  0.50599667  0.58287067  1
  O  O75  1  0.86021600  0.51292000  0.64290300  1
  O  O76  1  0.81607700  0.83933000  0.41620400  1
  O  O77  1  0.15374667  0.47311733  0.47623633  1
  O  O78  1  0.52688267  0.68062933  0.47623633  1
  O  O79  1  0.02325300  0.18392300  0.41620400  1
  O  O80  1  0.97674700  0.81607700  0.58379600  1
  O  O81  1  0.34729600  0.86021600  0.35709700  1
  O  O82  1  0.65270400  0.13978400  0.64290300  1
  O  O83  1  0.64341367  0.49400333  0.41712933  1
  O  O84  1  0.17958667  0.98603733  0.69043033  1
  O  O85  1  0.51725633  0.68991967  0.75046267  1
  O  O86  1  0.98603733  0.17958667  0.80956967  1
  O  O87  1  0.82733667  0.31008033  0.74953733  1
  O  O88  1  0.15374667  0.68062933  0.97623633  1
  O  O89  1  0.17266333  0.48274367  0.75046267  1
  O  O90  1  0.81607700  0.97674700  0.91620400  1
  O  O91  1  0.85058967  0.49400333  0.91712933  1
  O  O92  1  0.50599667  0.35658633  0.91712933  1
  O  O93  1  0.80645067  0.82041333  0.69043033  1
  O  O94  1  0.16067000  0.18392300  0.91620400  1
  O  O95  1  0.34729600  0.48708000  0.85709700  1
  O  O96  1  0.13978400  0.65270400  0.85709700  1
  O  O97  1  0.51292000  0.86021600  0.85709700  1
  O  O98  1  0.02325300  0.83933000  0.91620400  1
  O  O99  1  0.52688267  0.84625333  0.97623633  1
  O  O100  1  0.48274367  0.17266333  0.74953733  1
  O  O101  1  0.82041333  0.80645067  0.80956967  1
  O  O102  1  0.19354933  0.01396267  0.80956967  1
  O  O103  1  0.68991967  0.51725633  0.74953733  1
  O  O104  1  0.64341367  0.14941033  0.91712933  1
  O  O105  1  0.01396267  0.19354933  0.69043033  1
  O  O106  1  0.31937067  0.47311733  0.97623633  1
  O  O107  1  0.31008033  0.82733667  0.75046267  1
