# generated using pymatgen
data_Rb4Ti3S14
_symmetry_space_group_name_H-M   'P 1'
_cell_length_a   21.52096600
_cell_length_b   8.33286600
_cell_length_c   13.70156862
_cell_angle_alpha   90.00000000
_cell_angle_beta   113.93637094
_cell_angle_gamma   90.00000000
_symmetry_Int_Tables_number   1
_chemical_formula_structural   Rb4Ti3S14
_chemical_formula_sum   'Rb16 Ti12 S56'
_cell_volume   2245.79972881
_cell_formula_units_Z   4
loop_
 _symmetry_equiv_pos_site_id
 _symmetry_equiv_pos_as_xyz
  1  'x, y, z'
loop_
 _atom_site_type_symbol
 _atom_site_label
 _atom_site_symmetry_multiplicity
 _atom_site_fract_x
 _atom_site_fract_y
 _atom_site_fract_z
 _atom_site_occupancy
  Rb  Rb0  1  0.20264000  0.67851200  0.11349300  1
  Rb  Rb1  1  0.29736000  0.17851200  0.38650700  1
  Rb  Rb2  1  0.29736000  0.82148800  0.88650700  1
  Rb  Rb3  1  0.20264000  0.32148800  0.61349300  1
  Rb  Rb4  1  0.43395650  0.73733550  0.35298200  1
  Rb  Rb5  1  0.06604350  0.23733550  0.14701800  1
  Rb  Rb6  1  0.06604350  0.76266450  0.64701800  1
  Rb  Rb7  1  0.43395650  0.26266450  0.85298200  1
  Rb  Rb8  1  0.70264000  0.17851200  0.11349300  1
  Rb  Rb9  1  0.79736000  0.67851200  0.38650700  1
  Rb  Rb10  1  0.79736000  0.32148800  0.88650700  1
  Rb  Rb11  1  0.70264000  0.82148800  0.61349300  1
  Rb  Rb12  1  0.93395650  0.23733550  0.35298200  1
  Rb  Rb13  1  0.56604350  0.73733550  0.14701800  1
  Rb  Rb14  1  0.56604350  0.26266450  0.64701800  1
  Rb  Rb15  1  0.93395650  0.76266450  0.85298200  1
  Ti  Ti16  1  0.16730550  0.74408250  0.41688300  1
  Ti  Ti17  1  0.33269450  0.24408250  0.08311700  1
  Ti  Ti18  1  0.33269450  0.75591750  0.58311700  1
  Ti  Ti19  1  0.16730550  0.25591750  0.91688300  1
  Ti  Ti20  1  0.00000000  0.73564400  0.25000000  1
  Ti  Ti21  1  0.00000000  0.26435600  0.75000000  1
  Ti  Ti22  1  0.66730550  0.24408250  0.41688300  1
  Ti  Ti23  1  0.83269450  0.74408250  0.08311700  1
  Ti  Ti24  1  0.83269450  0.25591750  0.58311700  1
  Ti  Ti25  1  0.66730550  0.75591750  0.91688300  1
  Ti  Ti26  1  0.50000000  0.23564400  0.25000000  1
  Ti  Ti27  1  0.50000000  0.76435600  0.75000000  1
  S  S28  1  0.09535850  0.83467450  0.21407600  1
  S  S29  1  0.40464150  0.33467450  0.28592400  1
  S  S30  1  0.40464150  0.66532550  0.78592400  1
  S  S31  1  0.09535850  0.16532550  0.71407600  1
  S  S32  1  0.27833150  0.78644450  0.40149800  1
  S  S33  1  0.22166850  0.28644450  0.09850200  1
  S  S34  1  0.22166850  0.71355550  0.59850200  1
  S  S35  1  0.27833150  0.21355550  0.90149800  1
  S  S36  1  0.43065850  0.59439850  0.58415200  1
  S  S37  1  0.06934150  0.09439850  0.91584800  1
  S  S38  1  0.06934150  0.90560150  0.41584800  1
  S  S39  1  0.43065850  0.40560150  0.08415200  1
  S  S40  1  0.17172850  0.51321850  0.83954600  1
  S  S41  1  0.32827150  0.01321850  0.66045400  1
  S  S42  1  0.32827150  0.98678150  0.16045400  1
  S  S43  1  0.17172850  0.48678150  0.33954600  1
  S  S44  1  0.03855500  0.65601800  0.11032900  1
  S  S45  1  0.46144500  0.15601800  0.38967100  1
  S  S46  1  0.46144500  0.84398200  0.88967100  1
  S  S47  1  0.03855500  0.34398200  0.61032900  1
  S  S48  1  0.08535950  0.47947250  0.86888600  1
  S  S49  1  0.41464050  0.97947250  0.63111400  1
  S  S50  1  0.41464050  0.02052750  0.13111400  1
  S  S51  1  0.08535950  0.52052750  0.36888600  1
  S  S52  1  0.35390400  0.53721700  0.10196200  1
  S  S53  1  0.14609600  0.03721700  0.39803800  1
  S  S54  1  0.14609600  0.96278300  0.89803800  1
  S  S55  1  0.35390400  0.46278300  0.60196200  1
  S  S56  1  0.59535850  0.33467450  0.21407600  1
  S  S57  1  0.90464150  0.83467450  0.28592400  1
  S  S58  1  0.90464150  0.16532550  0.78592400  1
  S  S59  1  0.59535850  0.66532550  0.71407600  1
  S  S60  1  0.77833150  0.28644450  0.40149800  1
  S  S61  1  0.72166850  0.78644450  0.09850200  1
  S  S62  1  0.72166850  0.21355550  0.59850200  1
  S  S63  1  0.77833150  0.71355550  0.90149800  1
  S  S64  1  0.93065850  0.09439850  0.58415200  1
  S  S65  1  0.56934150  0.59439850  0.91584800  1
  S  S66  1  0.56934150  0.40560150  0.41584800  1
  S  S67  1  0.93065850  0.90560150  0.08415200  1
  S  S68  1  0.67172850  0.01321850  0.83954600  1
  S  S69  1  0.82827150  0.51321850  0.66045400  1
  S  S70  1  0.82827150  0.48678150  0.16045400  1
  S  S71  1  0.67172850  0.98678150  0.33954600  1
  S  S72  1  0.53855500  0.15601800  0.11032900  1
  S  S73  1  0.96144500  0.65601800  0.38967100  1
  S  S74  1  0.96144500  0.34398200  0.88967100  1
  S  S75  1  0.53855500  0.84398200  0.61032900  1
  S  S76  1  0.58535950  0.97947250  0.86888600  1
  S  S77  1  0.91464050  0.47947250  0.63111400  1
  S  S78  1  0.91464050  0.52052750  0.13111400  1
  S  S79  1  0.58535950  0.02052750  0.36888600  1
  S  S80  1  0.85390400  0.03721700  0.10196200  1
  S  S81  1  0.64609600  0.53721700  0.39803800  1
  S  S82  1  0.64609600  0.46278300  0.89803800  1
  S  S83  1  0.85390400  0.96278300  0.60196200  1
