# generated using pymatgen
data_Tl2SiF6
_symmetry_space_group_name_H-M   'P 1'
_cell_length_a   8.65927400
_cell_length_b   8.65927400
_cell_length_c   8.65927400
_cell_angle_alpha   90.00000000
_cell_angle_beta   90.00000000
_cell_angle_gamma   90.00000000
_symmetry_Int_Tables_number   1
_chemical_formula_structural   Tl2SiF6
_chemical_formula_sum   'Tl8 Si4 F24'
_cell_volume   649.29856928
_cell_formula_units_Z   4
loop_
 _symmetry_equiv_pos_site_id
 _symmetry_equiv_pos_as_xyz
  1  'x, y, z'
loop_
 _atom_site_type_symbol
 _atom_site_label
 _atom_site_symmetry_multiplicity
 _atom_site_fract_x
 _atom_site_fract_y
 _atom_site_fract_z
 _atom_site_occupancy
  Tl  Tl0  1  0.25000000  0.75000000  0.75000000  1
  Tl  Tl1  1  0.25000000  0.25000000  0.75000000  1
  Tl  Tl2  1  0.25000000  0.25000000  0.25000000  1
  Tl  Tl3  1  0.25000000  0.75000000  0.25000000  1
  Tl  Tl4  1  0.75000000  0.75000000  0.25000000  1
  Tl  Tl5  1  0.75000000  0.25000000  0.25000000  1
  Tl  Tl6  1  0.75000000  0.25000000  0.75000000  1
  Tl  Tl7  1  0.75000000  0.75000000  0.75000000  1
  Si  Si8  1  0.00000000  0.00000000  0.00000000  1
  Si  Si9  1  0.00000000  0.50000000  0.50000000  1
  Si  Si10  1  0.50000000  0.00000000  0.50000000  1
  Si  Si11  1  0.50000000  0.50000000  0.00000000  1
  F  F12  1  0.00000000  0.00000000  0.80091800  1
  F  F13  1  0.50000000  0.30091800  0.00000000  1
  F  F14  1  0.50000000  0.69908200  0.00000000  1
  F  F15  1  0.50000000  0.00000000  0.69908200  1
  F  F16  1  0.80091800  0.00000000  0.00000000  1
  F  F17  1  0.19908200  0.00000000  0.00000000  1
  F  F18  1  0.00000000  0.50000000  0.30091800  1
  F  F19  1  0.50000000  0.80091800  0.50000000  1
  F  F20  1  0.50000000  0.19908200  0.50000000  1
  F  F21  1  0.50000000  0.50000000  0.19908200  1
  F  F22  1  0.80091800  0.50000000  0.50000000  1
  F  F23  1  0.19908200  0.50000000  0.50000000  1
  F  F24  1  0.50000000  0.00000000  0.30091800  1
  F  F25  1  0.00000000  0.30091800  0.50000000  1
  F  F26  1  0.00000000  0.69908200  0.50000000  1
  F  F27  1  0.00000000  0.00000000  0.19908200  1
  F  F28  1  0.30091800  0.00000000  0.50000000  1
  F  F29  1  0.69908200  0.00000000  0.50000000  1
  F  F30  1  0.50000000  0.50000000  0.80091800  1
  F  F31  1  0.00000000  0.80091800  0.00000000  1
  F  F32  1  0.00000000  0.19908200  0.00000000  1
  F  F33  1  0.00000000  0.50000000  0.69908200  1
  F  F34  1  0.30091800  0.50000000  0.00000000  1
  F  F35  1  0.69908200  0.50000000  0.00000000  1
