# generated using pymatgen
data_TlNO3
_symmetry_space_group_name_H-M   'P 1'
_cell_length_a   10.58512152
_cell_length_b   10.58512152
_cell_length_c   7.59971900
_cell_angle_alpha   90.00000000
_cell_angle_beta   90.00000000
_cell_angle_gamma   120.00000000
_symmetry_Int_Tables_number   1
_chemical_formula_structural   TlNO3
_chemical_formula_sum   'Tl9 N9 O27'
_cell_volume   737.42840575
_cell_formula_units_Z   9
loop_
 _symmetry_equiv_pos_site_id
 _symmetry_equiv_pos_as_xyz
  1  'x, y, z'
loop_
 _atom_site_type_symbol
 _atom_site_label
 _atom_site_symmetry_multiplicity
 _atom_site_fract_x
 _atom_site_fract_y
 _atom_site_fract_z
 _atom_site_occupancy
  Tl  Tl0  1  0.44757700  0.88370200  0.98370600  1
  Tl  Tl1  1  0.77835900  0.88879800  0.28259700  1
  Tl  Tl2  1  0.76271300  0.55064500  0.95214600  1
  Tl  Tl3  1  0.78793200  0.23728700  0.61881267  1
  Tl  Tl4  1  0.11120200  0.88956100  0.61593033  1
  Tl  Tl5  1  0.11629800  0.56387500  0.31703933  1
  Tl  Tl6  1  0.11043900  0.22164100  0.94926367  1
  Tl  Tl7  1  0.44935500  0.21206800  0.28547933  1
  Tl  Tl8  1  0.43612500  0.55242300  0.65037267  1
  N  N9  1  0.13057400  0.20684500  0.44026700  1
  N  N10  1  0.79315500  0.92372900  0.77360033  1
  N  N11  1  0.07627100  0.86942600  0.10693367  1
  N  N12  1  0.12743600  0.55586700  0.83788200  1
  N  N13  1  0.42843100  0.87256400  0.50454867  1
  N  N14  1  0.76714200  0.22831200  0.09701700  1
  N  N15  1  0.77168800  0.53883000  0.43035033  1
  N  N16  1  0.44413300  0.57156900  0.17121533  1
  N  N17  1  0.46117000  0.23285800  0.76368367  1
  O  O18  1  0.56227300  0.92455500  0.53635800  1
  O  O19  1  0.68124800  0.57611700  0.37906400  1
  O  O20  1  0.40157800  0.25559300  0.89429500  1
  O  O21  1  0.38393900  0.91469700  0.37463900  1
  O  O22  1  0.85401500  0.59842200  0.56096167  1
  O  O23  1  0.75877300  0.97770700  0.90237800  1
  O  O24  1  0.77959800  0.43752100  0.34727000  1
  O  O25  1  0.98895100  0.88416400  0.00343500  1
  O  O26  1  0.05885100  0.27008500  0.41335300  1
  O  O27  1  0.02229300  0.78106600  0.23571133  1
  O  O28  1  0.89521300  0.01104900  0.67010167  1
  O  O29  1  0.44021700  0.66666000  0.27226000  1
  O  O30  1  0.33334000  0.77355700  0.60559333  1
  O  O31  1  0.89486900  0.31875200  0.04573067  1
  O  O32  1  0.53075800  0.61606100  0.04130567  1
  O  O33  1  0.11583600  0.10478700  0.33676833  1
  O  O34  1  0.36228200  0.43772700  0.20302467  1
  O  O35  1  0.72991500  0.78876600  0.74668633  1
  O  O36  1  0.08530300  0.46924200  0.70797233  1
  O  O37  1  0.07544500  0.63771800  0.86969133  1
  O  O38  1  0.42388300  0.10513100  0.71239733  1
  O  O39  1  0.56247900  0.34207700  0.68060333  1
  O  O40  1  0.22644300  0.55978300  0.93892667  1
  O  O41  1  0.21893400  0.24122700  0.56904467  1
  O  O42  1  0.74440700  0.14598500  0.22762833  1
  O  O43  1  0.21123400  0.94114900  0.08001967  1
  O  O44  1  0.65792300  0.22040200  0.01393667  1
