# generated using pymatgen
data_Y3BrO4
_symmetry_space_group_name_H-M   'P 1'
_cell_length_a   4.10437400
_cell_length_b   11.81783600
_cell_length_c   11.71879300
_cell_angle_alpha   90.00000000
_cell_angle_beta   90.00000000
_cell_angle_gamma   90.00000000
_symmetry_Int_Tables_number   1
_chemical_formula_structural   Y3BrO4
_chemical_formula_sum   'Y12 Br4 O16'
_cell_volume   568.41793119
_cell_formula_units_Z   4
loop_
 _symmetry_equiv_pos_site_id
 _symmetry_equiv_pos_as_xyz
  1  'x, y, z'
loop_
 _atom_site_type_symbol
 _atom_site_label
 _atom_site_symmetry_multiplicity
 _atom_site_fract_x
 _atom_site_fract_y
 _atom_site_fract_z
 _atom_site_occupancy
  Y  Y0  1  0.50000000  0.18572800  0.60309700  1
  Y  Y1  1  0.00000000  0.31427200  0.39690300  1
  Y  Y2  1  0.00000000  0.31427200  0.10309700  1
  Y  Y3  1  0.50000000  0.18572800  0.89690300  1
  Y  Y4  1  0.00000000  0.38134700  0.75000000  1
  Y  Y5  1  0.50000000  0.11865300  0.25000000  1
  Y  Y6  1  0.00000000  0.68572800  0.60309700  1
  Y  Y7  1  0.50000000  0.81427200  0.39690300  1
  Y  Y8  1  0.50000000  0.81427200  0.10309700  1
  Y  Y9  1  0.00000000  0.68572800  0.89690300  1
  Y  Y10  1  0.50000000  0.88134700  0.75000000  1
  Y  Y11  1  0.00000000  0.61865300  0.25000000  1
  Br  Br12  1  0.00000000  0.00000000  0.50000000  1
  Br  Br13  1  0.00000000  0.00000000  0.00000000  1
  Br  Br14  1  0.50000000  0.50000000  0.50000000  1
  Br  Br15  1  0.50000000  0.50000000  0.00000000  1
  O  O16  1  0.50000000  0.30898900  0.75000000  1
  O  O17  1  0.50000000  0.23019700  0.08952600  1
  O  O18  1  0.50000000  0.23019700  0.41047400  1
  O  O19  1  0.00000000  0.19101100  0.25000000  1
  O  O20  1  0.00000000  0.26980300  0.91047400  1
  O  O21  1  0.50000000  0.06608400  0.75000000  1
  O  O22  1  0.00000000  0.43391600  0.25000000  1
  O  O23  1  0.00000000  0.26980300  0.58952600  1
  O  O24  1  0.00000000  0.80898900  0.75000000  1
  O  O25  1  0.00000000  0.73019700  0.08952600  1
  O  O26  1  0.00000000  0.73019700  0.41047400  1
  O  O27  1  0.50000000  0.69101100  0.25000000  1
  O  O28  1  0.50000000  0.76980300  0.91047400  1
  O  O29  1  0.00000000  0.56608400  0.75000000  1
  O  O30  1  0.50000000  0.93391600  0.25000000  1
  O  O31  1  0.50000000  0.76980300  0.58952600  1
