# generated using pymatgen
data_Nb3Sb2Te5
_symmetry_space_group_name_H-M   'P 1'
_cell_length_a   9.92134800
_cell_length_b   9.92134800
_cell_length_c   9.92134800
_cell_angle_alpha   90.00000000
_cell_angle_beta   90.00000000
_cell_angle_gamma   90.00000000
_symmetry_Int_Tables_number   1
_chemical_formula_structural   Nb3Sb2Te5
_chemical_formula_sum   'Nb12 Sb8 Te20'
_cell_volume   976.58949756
_cell_formula_units_Z   4
loop_
 _symmetry_equiv_pos_site_id
 _symmetry_equiv_pos_as_xyz
  1  'x, y, z'
loop_
 _atom_site_type_symbol
 _atom_site_label
 _atom_site_symmetry_multiplicity
 _atom_site_fract_x
 _atom_site_fract_y
 _atom_site_fract_z
 _atom_site_occupancy
  Nb  Nb0  1  0.00000000  0.34270900  0.00000000  1
  Nb  Nb1  1  0.34270900  0.00000000  0.00000000  1
  Nb  Nb2  1  0.65729100  0.00000000  0.00000000  1
  Nb  Nb3  1  0.00000000  0.00000000  0.34270900  1
  Nb  Nb4  1  0.00000000  0.00000000  0.65729100  1
  Nb  Nb5  1  0.00000000  0.65729100  0.00000000  1
  Nb  Nb6  1  0.50000000  0.84270900  0.50000000  1
  Nb  Nb7  1  0.84270900  0.50000000  0.50000000  1
  Nb  Nb8  1  0.15729100  0.50000000  0.50000000  1
  Nb  Nb9  1  0.50000000  0.50000000  0.84270900  1
  Nb  Nb10  1  0.50000000  0.50000000  0.15729100  1
  Nb  Nb11  1  0.50000000  0.15729100  0.50000000  1
  Sb  Sb12  1  0.66487100  0.33512900  0.33512900  1
  Sb  Sb13  1  0.33512900  0.66487100  0.33512900  1
  Sb  Sb14  1  0.33512900  0.33512900  0.66487100  1
  Sb  Sb15  1  0.16487100  0.16487100  0.16487100  1
  Sb  Sb16  1  0.16487100  0.83512900  0.83512900  1
  Sb  Sb17  1  0.83512900  0.16487100  0.83512900  1
  Sb  Sb18  1  0.83512900  0.83512900  0.16487100  1
  Sb  Sb19  1  0.66487100  0.66487100  0.66487100  1
  Te  Te20  1  0.16395400  0.16395400  0.83604600  1
  Te  Te21  1  0.50000000  0.00000000  0.25000000  1
  Te  Te22  1  0.16395400  0.83604600  0.16395400  1
  Te  Te23  1  0.00000000  0.25000000  0.50000000  1
  Te  Te24  1  0.00000000  0.50000000  0.25000000  1
  Te  Te25  1  0.50000000  0.25000000  0.00000000  1
  Te  Te26  1  0.83604600  0.16395400  0.16395400  1
  Te  Te27  1  0.33604600  0.33604600  0.33604600  1
  Te  Te28  1  0.25000000  0.50000000  0.00000000  1
  Te  Te29  1  0.25000000  0.00000000  0.50000000  1
  Te  Te30  1  0.66395400  0.66395400  0.33604600  1
  Te  Te31  1  0.00000000  0.50000000  0.75000000  1
  Te  Te32  1  0.66395400  0.33604600  0.66395400  1
  Te  Te33  1  0.50000000  0.75000000  0.00000000  1
  Te  Te34  1  0.50000000  0.00000000  0.75000000  1
  Te  Te35  1  0.00000000  0.75000000  0.50000000  1
  Te  Te36  1  0.33604600  0.66395400  0.66395400  1
  Te  Te37  1  0.83604600  0.83604600  0.83604600  1
  Te  Te38  1  0.75000000  0.00000000  0.50000000  1
  Te  Te39  1  0.75000000  0.50000000  0.00000000  1
