# generated using pymatgen
data_ReH8(Br3N)2
_symmetry_space_group_name_H-M   'P 1'
_cell_length_a   10.45403600
_cell_length_b   10.45403600
_cell_length_c   10.45403600
_cell_angle_alpha   90.00000000
_cell_angle_beta   90.00000000
_cell_angle_gamma   90.00000000
_symmetry_Int_Tables_number   1
_chemical_formula_structural   ReH8(Br3N)2
_chemical_formula_sum   'Re4 H32 Br24 N8'
_cell_volume   1142.48885961
_cell_formula_units_Z   4
loop_
 _symmetry_equiv_pos_site_id
 _symmetry_equiv_pos_as_xyz
  1  'x, y, z'
loop_
 _atom_site_type_symbol
 _atom_site_label
 _atom_site_symmetry_multiplicity
 _atom_site_fract_x
 _atom_site_fract_y
 _atom_site_fract_z
 _atom_site_occupancy
  Re  Re0  1  0.00000000  0.00000000  0.00000000  1
  Re  Re1  1  0.00000000  0.50000000  0.50000000  1
  Re  Re2  1  0.50000000  0.00000000  0.50000000  1
  Re  Re3  1  0.50000000  0.50000000  0.00000000  1
  H  H4  1  0.30710800  0.69289200  0.69289200  1
  H  H5  1  0.30710800  0.30710800  0.69289200  1
  H  H6  1  0.19289200  0.19289200  0.69289200  1
  H  H7  1  0.30710800  0.19289200  0.80710800  1
  H  H8  1  0.19289200  0.80710800  0.69289200  1
  H  H9  1  0.19289200  0.69289200  0.80710800  1
  H  H10  1  0.30710800  0.80710800  0.80710800  1
  H  H11  1  0.19289200  0.30710800  0.80710800  1
  H  H12  1  0.30710800  0.19289200  0.19289200  1
  H  H13  1  0.30710800  0.80710800  0.19289200  1
  H  H14  1  0.19289200  0.69289200  0.19289200  1
  H  H15  1  0.30710800  0.69289200  0.30710800  1
  H  H16  1  0.19289200  0.30710800  0.19289200  1
  H  H17  1  0.19289200  0.19289200  0.30710800  1
  H  H18  1  0.30710800  0.30710800  0.30710800  1
  H  H19  1  0.19289200  0.80710800  0.30710800  1
  H  H20  1  0.80710800  0.69289200  0.19289200  1
  H  H21  1  0.80710800  0.30710800  0.19289200  1
  H  H22  1  0.69289200  0.19289200  0.19289200  1
  H  H23  1  0.80710800  0.19289200  0.30710800  1
  H  H24  1  0.69289200  0.80710800  0.19289200  1
  H  H25  1  0.69289200  0.69289200  0.30710800  1
  H  H26  1  0.80710800  0.80710800  0.30710800  1
  H  H27  1  0.69289200  0.30710800  0.30710800  1
  H  H28  1  0.80710800  0.19289200  0.69289200  1
  H  H29  1  0.80710800  0.80710800  0.69289200  1
  H  H30  1  0.69289200  0.69289200  0.69289200  1
  H  H31  1  0.80710800  0.69289200  0.80710800  1
  H  H32  1  0.69289200  0.30710800  0.69289200  1
  H  H33  1  0.69289200  0.19289200  0.80710800  1
  H  H34  1  0.80710800  0.30710800  0.80710800  1
  H  H35  1  0.69289200  0.80710800  0.80710800  1
  Br  Br36  1  0.00000000  0.00000000  0.75900500  1
  Br  Br37  1  0.75900500  0.00000000  0.00000000  1
  Br  Br38  1  0.24099500  0.00000000  0.00000000  1
  Br  Br39  1  0.50000000  0.25900500  0.00000000  1
  Br  Br40  1  0.50000000  0.74099500  0.00000000  1
  Br  Br41  1  0.50000000  0.00000000  0.74099500  1
  Br  Br42  1  0.00000000  0.50000000  0.25900500  1
  Br  Br43  1  0.75900500  0.50000000  0.50000000  1
  Br  Br44  1  0.24099500  0.50000000  0.50000000  1
  Br  Br45  1  0.50000000  0.75900500  0.50000000  1
  Br  Br46  1  0.50000000  0.24099500  0.50000000  1
  Br  Br47  1  0.50000000  0.50000000  0.24099500  1
  Br  Br48  1  0.50000000  0.00000000  0.25900500  1
  Br  Br49  1  0.25900500  0.00000000  0.50000000  1
  Br  Br50  1  0.74099500  0.00000000  0.50000000  1
  Br  Br51  1  0.00000000  0.25900500  0.50000000  1
  Br  Br52  1  0.00000000  0.74099500  0.50000000  1
  Br  Br53  1  0.00000000  0.00000000  0.24099500  1
  Br  Br54  1  0.50000000  0.50000000  0.75900500  1
  Br  Br55  1  0.25900500  0.50000000  0.00000000  1
  Br  Br56  1  0.74099500  0.50000000  0.00000000  1
  Br  Br57  1  0.00000000  0.75900500  0.00000000  1
  Br  Br58  1  0.00000000  0.24099500  0.00000000  1
  Br  Br59  1  0.00000000  0.50000000  0.74099500  1
  N  N60  1  0.25000000  0.75000000  0.75000000  1
  N  N61  1  0.25000000  0.25000000  0.75000000  1
  N  N62  1  0.25000000  0.25000000  0.25000000  1
  N  N63  1  0.25000000  0.75000000  0.25000000  1
  N  N64  1  0.75000000  0.75000000  0.25000000  1
  N  N65  1  0.75000000  0.25000000  0.25000000  1
  N  N66  1  0.75000000  0.25000000  0.75000000  1
  N  N67  1  0.75000000  0.75000000  0.75000000  1
