# generated using pymatgen
data_Ta2SnO6
_symmetry_space_group_name_H-M   'P 1'
_cell_length_a   17.43268000
_cell_length_b   4.92316000
_cell_length_c   5.62191553
_cell_angle_alpha   90.00000000
_cell_angle_beta   91.43270799
_cell_angle_gamma   90.00000000
_symmetry_Int_Tables_number   1
_chemical_formula_structural   Ta2SnO6
_chemical_formula_sum   'Ta8 Sn4 O24'
_cell_volume   482.34372569
_cell_formula_units_Z   4
loop_
 _symmetry_equiv_pos_site_id
 _symmetry_equiv_pos_as_xyz
  1  'x, y, z'
loop_
 _atom_site_type_symbol
 _atom_site_label
 _atom_site_symmetry_multiplicity
 _atom_site_fract_x
 _atom_site_fract_y
 _atom_site_fract_z
 _atom_site_occupancy
  Ta  Ta0  1  0.83037800  0.24425900  0.83673200  1
  Ta  Ta1  1  0.83037800  0.75574100  0.33673200  1
  Ta  Ta2  1  0.67089800  0.74432500  0.66522600  1
  Ta  Ta3  1  0.67089800  0.25567500  0.16522600  1
  Ta  Ta4  1  0.33037800  0.74425900  0.83673200  1
  Ta  Ta5  1  0.33037800  0.25574100  0.33673200  1
  Ta  Ta6  1  0.17089800  0.24432500  0.66522600  1
  Ta  Ta7  1  0.17089800  0.75567500  0.16522600  1
  Sn  Sn8  1  0.50109550  0.73032150  0.26332300  1
  Sn  Sn9  1  0.50109550  0.26967850  0.76332300  1
  Sn  Sn10  1  0.00109550  0.23032150  0.26332300  1
  Sn  Sn11  1  0.00109550  0.76967850  0.76332300  1
  O  O12  1  0.64388100  0.03556100  0.42474100  1
  O  O13  1  0.85588850  0.45794150  0.57079900  1
  O  O14  1  0.78113950  0.93943650  0.64733600  1
  O  O15  1  0.64388100  0.96443900  0.92474100  1
  O  O16  1  0.92686450  0.91613850  0.40558500  1
  O  O17  1  0.57326300  0.58234800  0.60042100  1
  O  O18  1  0.92686450  0.08386150  0.90558500  1
  O  O19  1  0.71891850  0.55914150  0.35356200  1
  O  O20  1  0.57326300  0.41765200  0.10042100  1
  O  O21  1  0.78113950  0.06056350  0.14733600  1
  O  O22  1  0.71891850  0.44085850  0.85356200  1
  O  O23  1  0.85588850  0.54205850  0.07079900  1
  O  O24  1  0.14388100  0.53556100  0.42474100  1
  O  O25  1  0.35588850  0.95794150  0.57079900  1
  O  O26  1  0.28113950  0.43943650  0.64733600  1
  O  O27  1  0.14388100  0.46443900  0.92474100  1
  O  O28  1  0.42686450  0.41613850  0.40558500  1
  O  O29  1  0.07326300  0.08234800  0.60042100  1
  O  O30  1  0.42686450  0.58386150  0.90558500  1
  O  O31  1  0.21891850  0.05914150  0.35356200  1
  O  O32  1  0.07326300  0.91765200  0.10042100  1
  O  O33  1  0.28113950  0.56056350  0.14733600  1
  O  O34  1  0.21891850  0.94085850  0.85356200  1
  O  O35  1  0.35588850  0.04205850  0.07079900  1
