# generated using pymatgen
data_SiO2
_symmetry_space_group_name_H-M   'P 1'
_cell_length_a   17.29464778
_cell_length_b   17.29464778
_cell_length_c   12.89612700
_cell_angle_alpha   90.00000000
_cell_angle_beta   90.00000000
_cell_angle_gamma   120.00000000
_symmetry_Int_Tables_number   1
_chemical_formula_structural   SiO2
_chemical_formula_sum   'Si54 O108'
_cell_volume   3340.51461533
_cell_formula_units_Z   54
loop_
 _symmetry_equiv_pos_site_id
 _symmetry_equiv_pos_as_xyz
  1  'x, y, z'
loop_
 _atom_site_type_symbol
 _atom_site_label
 _atom_site_symmetry_multiplicity
 _atom_site_fract_x
 _atom_site_fract_y
 _atom_site_fract_z
 _atom_site_occupancy
  Si  Si0  1  0.81688800  0.81688800  0.37903900  1
  Si  Si1  1  0.81688800  0.81688800  0.62096100  1
  Si  Si2  1  0.81376900  0.81376900  0.00000000  1
  Si  Si3  1  0.69735600  0.69735600  0.19656600  1
  Si  Si4  1  0.69735600  0.69735600  0.80343400  1
  Si  Si5  1  0.66635400  0.51260500  0.12173800  1
  Si  Si6  1  0.66635400  0.51260500  0.87826200  1
  Si  Si7  1  0.30264400  0.30264400  0.19656600  1
  Si  Si8  1  0.30264400  0.30264400  0.80343400  1
  Si  Si9  1  0.18623100  0.18623100  0.00000000  1
  Si  Si10  1  0.18311200  0.18311200  0.62096100  1
  Si  Si11  1  0.18311200  0.18311200  0.37903900  1
  Si  Si12  1  0.48739500  0.33364600  0.12173800  1
  Si  Si13  1  0.48739500  0.33364600  0.87826200  1
  Si  Si14  1  0.84625100  0.51260500  0.12173800  1
  Si  Si15  1  0.84625100  0.51260500  0.87826200  1
  Si  Si16  1  0.84625100  0.33364600  0.12173800  1
  Si  Si17  1  0.84625100  0.33364600  0.87826200  1
  Si  Si18  1  0.48739500  0.15374900  0.12173800  1
  Si  Si19  1  0.48739500  0.15374900  0.87826200  1
  Si  Si20  1  0.18311200  0.00000000  0.62096100  1
  Si  Si21  1  0.18311200  0.00000000  0.37903900  1
  Si  Si22  1  0.18623100  0.00000000  0.00000000  1
  Si  Si23  1  0.30264400  0.00000000  0.19656600  1
  Si  Si24  1  0.30264400  0.00000000  0.80343400  1
  Si  Si25  1  0.66635400  0.15374900  0.12173800  1
  Si  Si26  1  0.66635400  0.15374900  0.87826200  1
  Si  Si27  1  0.00000000  0.81688800  0.62096100  1
  Si  Si28  1  0.00000000  0.81688800  0.37903900  1
  Si  Si29  1  0.00000000  0.81376900  0.00000000  1
  Si  Si30  1  0.00000000  0.69735600  0.19656600  1
  Si  Si31  1  0.00000000  0.69735600  0.80343400  1
  Si  Si32  1  0.33364600  0.84625100  0.12173800  1
  Si  Si33  1  0.33364600  0.84625100  0.87826200  1
  Si  Si34  1  0.69735600  0.00000000  0.19656600  1
  Si  Si35  1  0.69735600  0.00000000  0.80343400  1
  Si  Si36  1  0.81376900  0.00000000  0.00000000  1
  Si  Si37  1  0.81688800  0.00000000  0.37903900  1
  Si  Si38  1  0.81688800  0.00000000  0.62096100  1
  Si  Si39  1  0.51260500  0.84625100  0.12173800  1
  Si  Si40  1  0.51260500  0.84625100  0.87826200  1
  Si  Si41  1  0.15374900  0.66635400  0.12173800  1
  Si  Si42  1  0.15374900  0.66635400  0.87826200  1
  Si  Si43  1  0.15374900  0.48739500  0.12173800  1
  Si  Si44  1  0.15374900  0.48739500  0.87826200  1
  Si  Si45  1  0.51260500  0.66635400  0.12173800  1
  Si  Si46  1  0.51260500  0.66635400  0.87826200  1
  Si  Si47  1  0.33364600  0.48739500  0.12173800  1
  Si  Si48  1  0.33364600  0.48739500  0.87826200  1
  Si  Si49  1  0.00000000  0.30264400  0.80343400  1
  Si  Si50  1  0.00000000  0.30264400  0.19656600  1
  Si  Si51  1  0.00000000  0.18623100  0.00000000  1
  Si  Si52  1  0.00000000  0.18311200  0.62096100  1
  Si  Si53  1  0.00000000  0.18311200  0.37903900  1
  O  O54  1  0.91228600  0.82457200  0.00000000  1
  O  O55  1  0.08745600  0.91254400  0.64720700  1
  O  O56  1  0.91254400  0.82508800  0.35279300  1
  O  O57  1  0.82508800  0.91254400  0.35279300  1
  O  O58  1  0.82457200  0.91228600  0.00000000  1
  O  O59  1  0.14078400  0.57039200  0.15690200  1
  O  O60  1  0.85921600  0.42960800  0.84309800  1
  O  O61  1  0.17491200  0.08745600  0.64720700  1
  O  O62  1  0.12657500  0.46303300  0.00000000  1
  O  O63  1  0.87342500  0.33645800  0.00000000  1
  O  O64  1  0.25760000  0.51520000  0.86048200  1
  O  O65  1  0.25760000  0.51520000  0.13951800  1
  O  O66  1  0.74240000  0.25760000  0.13951800  1
  O  O67  1  0.74240000  0.25760000  0.86048200  1
  O  O68  1  0.08771400  0.91228600  0.00000000  1
  O  O69  1  0.91254400  0.82508800  0.64720700  1
  O  O70  1  0.08745600  0.91254400  0.35279300  1
  O  O71  1  0.08922500  0.40058800  0.19092700  1
  O  O72  1  0.08922500  0.40058800  0.80907300  1
  O  O73  1  0.91077500  0.31136300  0.19092700  1
  O  O74  1  0.91077500  0.31136300  0.80907300  1
  O  O75  1  0.42960800  0.57039200  0.84309800  1
  O  O76  1  0.57039200  0.14078400  0.15690200  1
  O  O77  1  0.33645800  0.46303300  0.00000000  1
  O  O78  1  0.66354200  0.12657500  0.00000000  1
  O  O79  1  0.00000000  0.26025200  0.30844900  1
  O  O80  1  0.00000000  0.26025200  0.69155100  1
  O  O81  1  0.31136300  0.40058800  0.19092700  1
  O  O82  1  0.31136300  0.40058800  0.80907300  1
  O  O83  1  0.68863700  0.08922500  0.19092700  1
  O  O84  1  0.68863700  0.08922500  0.80907300  1
  O  O85  1  0.00000000  0.23947500  0.10350100  1
  O  O86  1  0.00000000  0.23947500  0.89649900  1
  O  O87  1  0.00000000  0.20948400  0.50000000  1
  O  O88  1  0.57039200  0.42960800  0.15690200  1
  O  O89  1  0.42960800  0.85921600  0.84309800  1
  O  O90  1  0.26025200  0.26025200  0.30844900  1
  O  O91  1  0.73974800  0.00000000  0.30844900  1
  O  O92  1  0.26025200  0.26025200  0.69155100  1
  O  O93  1  0.73974800  0.00000000  0.69155100  1
  O  O94  1  0.23947500  0.23947500  0.10350100  1
  O  O95  1  0.23947500  0.23947500  0.89649900  1
  O  O96  1  0.76052500  0.00000000  0.10350100  1
  O  O97  1  0.76052500  0.00000000  0.89649900  1
  O  O98  1  0.40058800  0.31136300  0.19092700  1
  O  O99  1  0.40058800  0.31136300  0.80907300  1
  O  O100  1  0.59941200  0.91077500  0.19092700  1
  O  O101  1  0.59941200  0.91077500  0.80907300  1
  O  O102  1  0.46303300  0.33645800  0.00000000  1
  O  O103  1  0.53696700  0.87342500  0.00000000  1
  O  O104  1  0.20948400  0.20948400  0.50000000  1
  O  O105  1  0.79051600  0.00000000  0.50000000  1
  O  O106  1  0.51520000  0.25760000  0.86048200  1
  O  O107  1  0.51520000  0.25760000  0.13951800  1
  O  O108  1  0.48480000  0.74240000  0.86048200  1
  O  O109  1  0.48480000  0.74240000  0.13951800  1
  O  O110  1  0.20948400  0.00000000  0.50000000  1
  O  O111  1  0.79051600  0.79051600  0.50000000  1
  O  O112  1  0.46303300  0.12657500  0.00000000  1
  O  O113  1  0.53696700  0.66354200  0.00000000  1
  O  O114  1  0.40058800  0.08922500  0.19092700  1
  O  O115  1  0.40058800  0.08922500  0.80907300  1
  O  O116  1  0.59941200  0.68863700  0.19092700  1
  O  O117  1  0.59941200  0.68863700  0.80907300  1
  O  O118  1  0.23947500  0.00000000  0.10350100  1
  O  O119  1  0.23947500  0.00000000  0.89649900  1
  O  O120  1  0.76052500  0.76052500  0.10350100  1
  O  O121  1  0.76052500  0.76052500  0.89649900  1
  O  O122  1  0.26025200  0.00000000  0.30844900  1
  O  O123  1  0.73974800  0.73974800  0.30844900  1
  O  O124  1  0.26025200  0.00000000  0.69155100  1
  O  O125  1  0.73974800  0.73974800  0.69155100  1
  O  O126  1  0.57039200  0.14078400  0.84309800  1
  O  O127  1  0.42960800  0.57039200  0.15690200  1
  O  O128  1  0.00000000  0.79051600  0.50000000  1
  O  O129  1  0.00000000  0.76052500  0.10350100  1
  O  O130  1  0.00000000  0.76052500  0.89649900  1
  O  O131  1  0.31136300  0.91077500  0.19092700  1
  O  O132  1  0.31136300  0.91077500  0.80907300  1
  O  O133  1  0.68863700  0.59941200  0.19092700  1
  O  O134  1  0.68863700  0.59941200  0.80907300  1
  O  O135  1  0.00000000  0.73974800  0.30844900  1
  O  O136  1  0.00000000  0.73974800  0.69155100  1
  O  O137  1  0.33645800  0.87342500  0.00000000  1
  O  O138  1  0.66354200  0.53696700  0.00000000  1
  O  O139  1  0.42960800  0.85921600  0.15690200  1
  O  O140  1  0.57039200  0.42960800  0.84309800  1
  O  O141  1  0.08922500  0.68863700  0.19092700  1
  O  O142  1  0.08922500  0.68863700  0.80907300  1
  O  O143  1  0.91077500  0.59941200  0.19092700  1
  O  O144  1  0.91077500  0.59941200  0.80907300  1
  O  O145  1  0.91254400  0.08745600  0.35279300  1
  O  O146  1  0.08745600  0.17491200  0.64720700  1
  O  O147  1  0.91228600  0.08771400  0.00000000  1
  O  O148  1  0.25760000  0.74240000  0.13951800  1
  O  O149  1  0.25760000  0.74240000  0.86048200  1
  O  O150  1  0.74240000  0.48480000  0.86048200  1
  O  O151  1  0.74240000  0.48480000  0.13951800  1
  O  O152  1  0.12657500  0.66354200  0.00000000  1
  O  O153  1  0.87342500  0.53696700  0.00000000  1
  O  O154  1  0.82508800  0.91254400  0.64720700  1
  O  O155  1  0.14078400  0.57039200  0.84309800  1
  O  O156  1  0.85921600  0.42960800  0.15690200  1
  O  O157  1  0.17542800  0.08771400  0.00000000  1
  O  O158  1  0.17491200  0.08745600  0.35279300  1
  O  O159  1  0.91254400  0.08745600  0.64720700  1
  O  O160  1  0.08745600  0.17491200  0.35279300  1
  O  O161  1  0.08771400  0.17542800  0.00000000  1
