# generated using pymatgen
data_GaI2
_symmetry_space_group_name_H-M   'P 1'
_cell_length_a   27.06307040
_cell_length_b   27.06307040
_cell_length_c   7.79586129
_cell_angle_alpha   90.00000000
_cell_angle_beta   90.00000000
_cell_angle_gamma   120.00000000
_symmetry_Int_Tables_number   1
_chemical_formula_structural   GaI2
_chemical_formula_sum   'Ga36 I72'
_cell_volume   4944.80157886
_cell_formula_units_Z   36
loop_
 _symmetry_equiv_pos_site_id
 _symmetry_equiv_pos_as_xyz
  1  'x, y, z'
loop_
 _atom_site_type_symbol
 _atom_site_label
 _atom_site_symmetry_multiplicity
 _atom_site_fract_x
 _atom_site_fract_y
 _atom_site_fract_z
 _atom_site_occupancy
  Ga  Ga0  1  0.15779867  0.15461533  0.89878933  1
  Ga  Ga1  1  0.33304633  0.85678467  0.55970267  1
  Ga  Ga2  1  0.19040500  0.19011800  0.39303600  1
  Ga  Ga3  1  0.19040500  0.00028700  0.89303600  1
  Ga  Ga4  1  0.51205133  0.17553467  0.73212267  1
  Ga  Ga5  1  0.33015000  0.82128200  0.06545600  1
  Ga  Ga6  1  0.15779867  0.00318333  0.39878933  1
  Ga  Ga7  1  0.33304633  0.47626167  0.05970267  1
  Ga  Ga8  1  0.33015000  0.50886800  0.56545600  1
  Ga  Ga9  1  0.47654867  0.33362033  0.72636933  1
  Ga  Ga10  1  0.51205133  0.33651667  0.23212267  1
  Ga  Ga11  1  0.47654867  0.14292833  0.22636933  1
  Ga  Ga12  1  0.82446533  0.48794867  0.23212267  1
  Ga  Ga13  1  0.99971300  0.19011800  0.89303600  1
  Ga  Ga14  1  0.85707167  0.52345133  0.72636933  1
  Ga  Ga15  1  0.85707167  0.33362033  0.22636933  1
  Ga  Ga16  1  0.17871800  0.50886800  0.06545600  1
  Ga  Ga17  1  0.99681667  0.15461533  0.39878933  1
  Ga  Ga18  1  0.82446533  0.33651667  0.73212267  1
  Ga  Ga19  1  0.99971300  0.80959500  0.39303600  1
  Ga  Ga20  1  0.99681667  0.84220133  0.89878933  1
  Ga  Ga21  1  0.14321533  0.66695367  0.05970267  1
  Ga  Ga22  1  0.17871800  0.66985000  0.56545600  1
  Ga  Ga23  1  0.14321533  0.47626167  0.55970267  1
  Ga  Ga24  1  0.49113200  0.82128200  0.56545600  1
  Ga  Ga25  1  0.66637967  0.52345133  0.22636933  1
  Ga  Ga26  1  0.52373833  0.85678467  0.05970267  1
  Ga  Ga27  1  0.52373833  0.66695367  0.55970267  1
  Ga  Ga28  1  0.84538467  0.84220133  0.39878933  1
  Ga  Ga29  1  0.66348333  0.48794867  0.73212267  1
  Ga  Ga30  1  0.49113200  0.66985000  0.06545600  1
  Ga  Ga31  1  0.66637967  0.14292833  0.72636933  1
  Ga  Ga32  1  0.66348333  0.17553467  0.23212267  1
  Ga  Ga33  1  0.80988200  0.00028700  0.39303600  1
  Ga  Ga34  1  0.84538467  0.00318333  0.89878933  1
  Ga  Ga35  1  0.80988200  0.80959500  0.89303600  1
  I  I36  1  0.42038500  0.17406900  0.02940300  1
  I  I37  1  0.50858067  0.08503233  0.03958533  1
  I  I38  1  0.09917733  0.09874967  0.50421567  1
  I  I39  1  0.15926433  0.91298267  0.69606967  1
  I  I40  1  0.41522467  0.33156533  0.98397033  1
  I  I41  1  0.09917733  0.00042767  0.00421567  1
  I  I42  1  0.24830100  0.09021500  0.70625200  1
  I  I43  1  0.24830100  0.15808600  0.20625200  1
  I  I44  1  0.42035067  0.50740233  0.86273633  1
  I  I45  1  0.56791700  0.33376100  0.83754900  1
  I  I46  1  0.33510133  0.41699267  0.31730367  1
  I  I47  1  0.24967400  0.99823200  0.15063700  1
  I  I48  1  0.42035067  0.91294833  0.36273633  1
  I  I49  1  0.24311833  0.82475267  0.37291867  1
  I  I50  1  0.56791700  0.23415600  0.33754900  1
  I  I51  1  0.33290567  0.56748933  0.17088233  1
  I  I52  1  0.33510133  0.91810867  0.81730367  1
  I  I53  1  0.24967400  0.25144200  0.65063700  1
  I  I54  1  0.33290567  0.76541633  0.67088233  1
  I  I55  1  0.15926433  0.24628167  0.19606967  1
  I  I56  1  0.24311833  0.41836567  0.87291867  1
  I  I57  1  0.41522467  0.08365933  0.48397033  1
  I  I58  1  0.50858067  0.42354833  0.53958533  1
  I  I59  1  0.42038500  0.24631600  0.52940300  1
  I  I60  1  0.08705167  0.50740233  0.36273633  1
  I  I61  1  0.17524733  0.41836567  0.37291867  1
  I  I62  1  0.76584400  0.43208300  0.83754900  1
  I  I63  1  0.82593100  0.24631600  0.02940300  1
  I  I64  1  0.08189133  0.66489867  0.31730367  1
  I  I65  1  0.76584400  0.33376100  0.33754900  1
  I  I66  1  0.91496767  0.42354833  0.03958533  1
  I  I67  1  0.91496767  0.49141933  0.53958533  1
  I  I68  1  0.08701733  0.84073567  0.19606967  1
  I  I69  1  0.23458367  0.66709433  0.17088233  1
  I  I70  1  0.00176800  0.75032600  0.65063700  1
  I  I71  1  0.91634067  0.33156533  0.48397033  1
  I  I72  1  0.08701733  0.24628167  0.69606967  1
  I  I73  1  0.90978500  0.15808600  0.70625200  1
  I  I74  1  0.23458367  0.56748933  0.67088233  1
  I  I75  1  0.99957233  0.90082267  0.50421567  1
  I  I76  1  0.00176800  0.25144200  0.15063700  1
  I  I77  1  0.91634067  0.58477533  0.98397033  1
  I  I78  1  0.99957233  0.09874967  0.00421567  1
  I  I79  1  0.82593100  0.57961500  0.52940300  1
  I  I80  1  0.90978500  0.75169900  0.20625200  1
  I  I81  1  0.08189133  0.41699267  0.81730367  1
  I  I82  1  0.17524733  0.75688167  0.87291867  1
  I  I83  1  0.08705167  0.57964933  0.86273633  1
  I  I84  1  0.75371833  0.84073567  0.69606967  1
  I  I85  1  0.84191400  0.75169900  0.70625200  1
  I  I86  1  0.43251067  0.76541633  0.17088233  1
  I  I87  1  0.49259767  0.57964933  0.36273633  1
  I  I88  1  0.74855800  0.99823200  0.65063700  1
  I  I89  1  0.43251067  0.66709433  0.67088233  1
  I  I90  1  0.58163433  0.75688167  0.37291867  1
  I  I91  1  0.58163433  0.82475267  0.87291867  1
  I  I92  1  0.75368400  0.17406900  0.52940300  1
  I  I93  1  0.90125033  0.00042767  0.50421567  1
  I  I94  1  0.66843467  0.08365933  0.98397033  1
  I  I95  1  0.58300733  0.66489867  0.81730367  1
  I  I96  1  0.75368400  0.57961500  0.02940300  1
  I  I97  1  0.57645167  0.49141933  0.03958533  1
  I  I98  1  0.90125033  0.90082267  0.00421567  1
  I  I99  1  0.66623900  0.23415600  0.83754900  1
  I  I100  1  0.66843467  0.58477533  0.48397033  1
  I  I101  1  0.58300733  0.91810867  0.31730367  1
  I  I102  1  0.66623900  0.43208300  0.33754900  1
  I  I103  1  0.49259767  0.91294833  0.86273633  1
  I  I104  1  0.57645167  0.08503233  0.53958533  1
  I  I105  1  0.74855800  0.75032600  0.15063700  1
  I  I106  1  0.84191400  0.09021500  0.20625200  1
  I  I107  1  0.75371833  0.91298267  0.19606967  1
