# generated using pymatgen
data_Ti4S8Cl6O
_symmetry_space_group_name_H-M   'P 1'
_cell_length_a   9.65969800
_cell_length_b   17.11551000
_cell_length_c   13.38672079
_cell_angle_alpha   90.00000000
_cell_angle_beta   107.42019574
_cell_angle_gamma   90.00000000
_symmetry_Int_Tables_number   1
_chemical_formula_structural   Ti4S8Cl6O
_chemical_formula_sum   'Ti16 S32 Cl24 O4'
_cell_volume   2111.72500904
_cell_formula_units_Z   4
loop_
 _symmetry_equiv_pos_site_id
 _symmetry_equiv_pos_as_xyz
  1  'x, y, z'
loop_
 _atom_site_type_symbol
 _atom_site_label
 _atom_site_symmetry_multiplicity
 _atom_site_fract_x
 _atom_site_fract_y
 _atom_site_fract_z
 _atom_site_occupancy
  Ti  Ti0  1  0.94925750  0.81540550  0.85122400  1
  Ti  Ti1  1  0.32852050  0.53596450  0.21318100  1
  Ti  Ti2  1  0.82852050  0.96403550  0.71318100  1
  Ti  Ti3  1  0.55074250  0.68459450  0.14877600  1
  Ti  Ti4  1  0.44925750  0.68459450  0.35122400  1
  Ti  Ti5  1  0.67147950  0.53596450  0.28681900  1
  Ti  Ti6  1  0.17147950  0.96403550  0.78681900  1
  Ti  Ti7  1  0.05074250  0.81540550  0.64877600  1
  Ti  Ti8  1  0.44925750  0.31540550  0.85122400  1
  Ti  Ti9  1  0.82852050  0.03596450  0.21318100  1
  Ti  Ti10  1  0.32852050  0.46403550  0.71318100  1
  Ti  Ti11  1  0.05074250  0.18459450  0.14877600  1
  Ti  Ti12  1  0.94925750  0.18459450  0.35122400  1
  Ti  Ti13  1  0.17147950  0.03596450  0.28681900  1
  Ti  Ti14  1  0.67147950  0.46403550  0.78681900  1
  Ti  Ti15  1  0.55074250  0.31540550  0.64877600  1
  S  S16  1  0.79503500  0.92898600  0.87922900  1
  S  S17  1  0.01071350  0.94158250  0.17614400  1
  S  S18  1  0.30059850  0.84891350  0.73402300  1
  S  S19  1  0.51071350  0.55841750  0.67614400  1
  S  S20  1  0.70496500  0.57101400  0.12077100  1
  S  S21  1  0.89140700  0.72095500  0.71085200  1
  S  S22  1  0.98928650  0.94158250  0.32385600  1
  S  S23  1  0.20496500  0.92898600  0.62077100  1
  S  S24  1  0.39140700  0.77904500  0.21085200  1
  S  S25  1  0.48928650  0.55841750  0.82385600  1
  S  S26  1  0.80059850  0.65108650  0.23402300  1
  S  S27  1  0.60859300  0.77904500  0.28914800  1
  S  S28  1  0.10859300  0.72095500  0.78914800  1
  S  S29  1  0.29503500  0.57101400  0.37922900  1
  S  S30  1  0.69940150  0.84891350  0.76597700  1
  S  S31  1  0.19940150  0.65108650  0.26597700  1
  S  S32  1  0.29503500  0.42898600  0.87922900  1
  S  S33  1  0.51071350  0.44158250  0.17614400  1
  S  S34  1  0.80059850  0.34891350  0.73402300  1
  S  S35  1  0.01071350  0.05841750  0.67614400  1
  S  S36  1  0.20496500  0.07101400  0.12077100  1
  S  S37  1  0.39140700  0.22095500  0.71085200  1
  S  S38  1  0.48928650  0.44158250  0.32385600  1
  S  S39  1  0.70496500  0.42898600  0.62077100  1
  S  S40  1  0.89140700  0.27904500  0.21085200  1
  S  S41  1  0.98928650  0.05841750  0.82385600  1
  S  S42  1  0.30059850  0.15108650  0.23402300  1
  S  S43  1  0.10859300  0.27904500  0.28914800  1
  S  S44  1  0.60859300  0.22095500  0.78914800  1
  S  S45  1  0.79503500  0.07101400  0.37922900  1
  S  S46  1  0.19940150  0.34891350  0.76597700  1
  S  S47  1  0.69940150  0.15108650  0.26597700  1
  Cl  Cl48  1  0.17660050  0.89105850  0.95361900  1
  Cl  Cl49  1  0.67660050  0.60894150  0.45361900  1
  Cl  Cl50  1  0.05518100  0.74623100  0.50867100  1
  Cl  Cl51  1  0.55518100  0.75376900  0.00867100  1
  Cl  Cl52  1  0.87100350  0.53251450  0.86189700  1
  Cl  Cl53  1  0.44481900  0.75376900  0.49132900  1
  Cl  Cl54  1  0.12899650  0.53251450  0.63810300  1
  Cl  Cl55  1  0.82339950  0.89105850  0.54638100  1
  Cl  Cl56  1  0.62899650  0.96748550  0.13810300  1
  Cl  Cl57  1  0.94481900  0.74623100  0.99132900  1
  Cl  Cl58  1  0.37100350  0.96748550  0.36189700  1
  Cl  Cl59  1  0.32339950  0.60894150  0.04638100  1
  Cl  Cl60  1  0.67660050  0.39105850  0.95361900  1
  Cl  Cl61  1  0.17660050  0.10894150  0.45361900  1
  Cl  Cl62  1  0.55518100  0.24623100  0.50867100  1
  Cl  Cl63  1  0.05518100  0.25376900  0.00867100  1
  Cl  Cl64  1  0.37100350  0.03251450  0.86189700  1
  Cl  Cl65  1  0.94481900  0.25376900  0.49132900  1
  Cl  Cl66  1  0.62899650  0.03251450  0.63810300  1
  Cl  Cl67  1  0.32339950  0.39105850  0.54638100  1
  Cl  Cl68  1  0.12899650  0.46748550  0.13810300  1
  Cl  Cl69  1  0.44481900  0.24623100  0.99132900  1
  Cl  Cl70  1  0.87100350  0.46748550  0.36189700  1
  Cl  Cl71  1  0.82339950  0.10894150  0.04638100  1
  O  O72  1  0.50000000  0.61031700  0.25000000  1
  O  O73  1  0.00000000  0.88968300  0.75000000  1
  O  O74  1  0.00000000  0.11031700  0.25000000  1
  O  O75  1  0.50000000  0.38968300  0.75000000  1
