# generated using pymatgen
data_Al2VCl8
_symmetry_space_group_name_H-M   'P 1'
_cell_length_a   17.75586600
_cell_length_b   8.15183800
_cell_length_c   11.69810501
_cell_angle_alpha   90.00000000
_cell_angle_beta   128.57622634
_cell_angle_gamma   90.00000000
_symmetry_Int_Tables_number   1
_chemical_formula_structural   Al2VCl8
_chemical_formula_sum   'Al8 V4 Cl32'
_cell_volume   1323.72284903
_cell_formula_units_Z   4
loop_
 _symmetry_equiv_pos_site_id
 _symmetry_equiv_pos_as_xyz
  1  'x, y, z'
loop_
 _atom_site_type_symbol
 _atom_site_label
 _atom_site_symmetry_multiplicity
 _atom_site_fract_x
 _atom_site_fract_y
 _atom_site_fract_z
 _atom_site_occupancy
  Al  Al0  1  0.41575300  0.25737600  0.46973900  1
  Al  Al1  1  0.08424700  0.75737600  0.03026100  1
  Al  Al2  1  0.58424700  0.74262400  0.53026100  1
  Al  Al3  1  0.91575300  0.24262400  0.96973900  1
  Al  Al4  1  0.91575300  0.75737600  0.46973900  1
  Al  Al5  1  0.58424700  0.25737600  0.03026100  1
  Al  Al6  1  0.08424700  0.24262400  0.53026100  1
  Al  Al7  1  0.41575300  0.74262400  0.96973900  1
  V  V8  1  0.50000000  0.49789800  0.75000000  1
  V  V9  1  0.50000000  0.50210200  0.25000000  1
  V  V10  1  0.00000000  0.99789800  0.75000000  1
  V  V11  1  0.00000000  0.00210200  0.25000000  1
  Cl  Cl12  1  0.34585100  0.03822500  0.44924300  1
  Cl  Cl13  1  0.65414900  0.96177500  0.55075700  1
  Cl  Cl14  1  0.14750750  0.97686050  0.01161600  1
  Cl  Cl15  1  0.43808650  0.28069750  0.82248300  1
  Cl  Cl16  1  0.85249250  0.02313950  0.98838400  1
  Cl  Cl17  1  0.56191350  0.28069750  0.67751700  1
  Cl  Cl18  1  0.84585100  0.46177500  0.94924300  1
  Cl  Cl19  1  0.56191350  0.71930250  0.17751700  1
  Cl  Cl20  1  0.58074500  0.27615900  0.21371500  1
  Cl  Cl21  1  0.64750750  0.52313950  0.51161600  1
  Cl  Cl22  1  0.41925500  0.72384100  0.78628500  1
  Cl  Cl23  1  0.43808650  0.71930250  0.32248300  1
  Cl  Cl24  1  0.35249250  0.47686050  0.48838400  1
  Cl  Cl25  1  0.41925500  0.27615900  0.28628500  1
  Cl  Cl26  1  0.15414900  0.53822500  0.05075700  1
  Cl  Cl27  1  0.58074500  0.72384100  0.71371500  1
  Cl  Cl28  1  0.84585100  0.53822500  0.44924300  1
  Cl  Cl29  1  0.15414900  0.46177500  0.55075700  1
  Cl  Cl30  1  0.64750750  0.47686050  0.01161600  1
  Cl  Cl31  1  0.93808650  0.78069750  0.82248300  1
  Cl  Cl32  1  0.35249250  0.52313950  0.98838400  1
  Cl  Cl33  1  0.06191350  0.78069750  0.67751700  1
  Cl  Cl34  1  0.34585100  0.96177500  0.94924300  1
  Cl  Cl35  1  0.06191350  0.21930250  0.17751700  1
  Cl  Cl36  1  0.08074500  0.77615900  0.21371500  1
  Cl  Cl37  1  0.14750750  0.02313950  0.51161600  1
  Cl  Cl38  1  0.91925500  0.22384100  0.78628500  1
  Cl  Cl39  1  0.93808650  0.21930250  0.32248300  1
  Cl  Cl40  1  0.85249250  0.97686050  0.48838400  1
  Cl  Cl41  1  0.91925500  0.77615900  0.28628500  1
  Cl  Cl42  1  0.65414900  0.03822500  0.05075700  1
  Cl  Cl43  1  0.08074500  0.22384100  0.71371500  1
