# generated using pymatgen
data_BaSiF6
_symmetry_space_group_name_H-M   'P 1'
_cell_length_a   7.33318767
_cell_length_b   7.33318767
_cell_length_c   7.10184378
_cell_angle_alpha   90.00000000
_cell_angle_beta   90.00000000
_cell_angle_gamma   120.00000000
_symmetry_Int_Tables_number   1
_chemical_formula_structural   BaSiF6
_chemical_formula_sum   'Ba3 Si3 F18'
_cell_volume   330.74047462
_cell_formula_units_Z   3
loop_
 _symmetry_equiv_pos_site_id
 _symmetry_equiv_pos_as_xyz
  1  'x, y, z'
loop_
 _atom_site_type_symbol
 _atom_site_label
 _atom_site_symmetry_multiplicity
 _atom_site_fract_x
 _atom_site_fract_y
 _atom_site_fract_z
 _atom_site_occupancy
  Ba  Ba0  1  0.00000000  0.00000000  0.50000000  1
  Ba  Ba1  1  0.66666667  0.33333333  0.83333333  1
  Ba  Ba2  1  0.33333333  0.66666667  0.16666667  1
  Si  Si3  1  0.00000000  0.00000000  0.00000000  1
  Si  Si4  1  0.66666667  0.33333333  0.33333333  1
  Si  Si5  1  0.33333333  0.66666667  0.66666667  1
  F  F6  1  0.22405933  0.77594067  0.52393767  1
  F  F7  1  0.22405933  0.44811867  0.52393767  1
  F  F8  1  0.77594067  0.55188133  0.47606233  1
  F  F9  1  0.77594067  0.22405933  0.47606233  1
  F  F10  1  0.44811867  0.22405933  0.47606233  1
  F  F11  1  0.55188133  0.77594067  0.52393767  1
  F  F12  1  0.89072600  0.10927400  0.85727100  1
  F  F13  1  0.89072600  0.78145200  0.85727100  1
  F  F14  1  0.44260733  0.88521467  0.80939567  1
  F  F15  1  0.44260733  0.55739267  0.80939567  1
  F  F16  1  0.11478533  0.55739267  0.80939567  1
  F  F17  1  0.21854800  0.10927400  0.85727100  1
  F  F18  1  0.55739267  0.44260733  0.19060433  1
  F  F19  1  0.55739267  0.11478533  0.19060433  1
  F  F20  1  0.10927400  0.21854800  0.14272900  1
  F  F21  1  0.10927400  0.89072600  0.14272900  1
  F  F22  1  0.78145200  0.89072600  0.14272900  1
  F  F23  1  0.88521467  0.44260733  0.19060433  1
