# generated using pymatgen
data_Li5ReO6
_symmetry_space_group_name_H-M   'P 1'
_cell_length_a   5.10430183
_cell_length_b   5.10430183
_cell_length_c   14.32822000
_cell_angle_alpha   90.00000000
_cell_angle_beta   90.00000000
_cell_angle_gamma   120.00000000
_symmetry_Int_Tables_number   1
_chemical_formula_structural   Li5ReO6
_chemical_formula_sum   'Li15 Re3 O18'
_cell_volume   323.29245340
_cell_formula_units_Z   3
loop_
 _symmetry_equiv_pos_site_id
 _symmetry_equiv_pos_as_xyz
  1  'x, y, z'
loop_
 _atom_site_type_symbol
 _atom_site_label
 _atom_site_symmetry_multiplicity
 _atom_site_fract_x
 _atom_site_fract_y
 _atom_site_fract_z
 _atom_site_occupancy
  Li  Li0  1  0.11091200  0.88908800  0.33333333  1
  Li  Li1  1  0.45254900  0.54745100  0.83333333  1
  Li  Li2  1  0.77749850  0.55499700  0.16666667  1
  Li  Li3  1  0.44500300  0.22250150  0.50000000  1
  Li  Li4  1  0.45254900  0.90509800  0.16666667  1
  Li  Li5  1  0.11091200  0.22182400  0.66666667  1
  Li  Li6  1  0.10322500  0.89677500  0.83333333  1
  Li  Li7  1  0.44486900  0.22243450  0.00000000  1
  Li  Li8  1  0.77749850  0.22250150  0.83333333  1
  Li  Li9  1  0.77756550  0.55513100  0.66666667  1
  Li  Li10  1  0.10322500  0.20645000  0.16666667  1
  Li  Li11  1  0.77817600  0.88908800  0.00000000  1
  Li  Li12  1  0.77756550  0.22243450  0.33333333  1
  Li  Li13  1  0.09490200  0.54745100  0.50000000  1
  Li  Li14  1  0.79355000  0.89677500  0.50000000  1
  Re  Re15  1  0.44390200  0.55609800  0.33333333  1
  Re  Re16  1  0.44390200  0.88780400  0.66666667  1
  Re  Re17  1  0.11219600  0.55609800  0.00000000  1
  O  O18  1  0.74958400  0.19437800  0.58922300  1
  O  O19  1  0.75004200  0.85953200  0.25568000  1
  O  O20  1  0.10949000  0.85953200  0.07765333  1
  O  O21  1  0.14046800  0.24995800  0.41098667  1
  O  O22  1  0.80562200  0.55520600  0.92255633  1
  O  O23  1  0.10949000  0.24995800  0.92234667  1
  O  O24  1  0.75004200  0.89051000  0.74432000  1
  O  O25  1  0.13959300  0.58546500  0.74275700  1
  O  O26  1  0.44479400  0.25041600  0.25588967  1
  O  O27  1  0.41453500  0.86040700  0.92390967  1
  O  O28  1  0.44479400  0.19437800  0.74411033  1
  O  O29  1  0.41453500  0.55412800  0.07609033  1
  O  O30  1  0.14046800  0.89051000  0.58901333  1
  O  O31  1  0.44587200  0.86040700  0.40942367  1
  O  O32  1  0.80562200  0.25041600  0.07744367  1
  O  O33  1  0.74958400  0.55520600  0.41077700  1
  O  O34  1  0.13959300  0.55412800  0.25724300  1
  O  O35  1  0.44587200  0.58546500  0.59057633  1
