# generated using pymatgen
data_TlCuPO4
_symmetry_space_group_name_H-M   'P 1'
_cell_length_a   6.97068000
_cell_length_b   6.98032800
_cell_length_c   18.26461064
_cell_angle_alpha   90.00000000
_cell_angle_beta   94.70492924
_cell_angle_gamma   90.00000000
_symmetry_Int_Tables_number   1
_chemical_formula_structural   TlCuPO4
_chemical_formula_sum   'Tl8 Cu8 P8 O32'
_cell_volume   885.71805230
_cell_formula_units_Z   8
loop_
 _symmetry_equiv_pos_site_id
 _symmetry_equiv_pos_as_xyz
  1  'x, y, z'
loop_
 _atom_site_type_symbol
 _atom_site_label
 _atom_site_symmetry_multiplicity
 _atom_site_fract_x
 _atom_site_fract_y
 _atom_site_fract_z
 _atom_site_occupancy
  Tl  Tl0  1  0.50108200  0.29301400  0.43794300  1
  Tl  Tl1  1  0.49891800  0.29301400  0.06205700  1
  Tl  Tl2  1  0.49891800  0.70698600  0.56205700  1
  Tl  Tl3  1  0.50108200  0.70698600  0.93794300  1
  Tl  Tl4  1  0.00108200  0.79301400  0.43794300  1
  Tl  Tl5  1  0.99891800  0.79301400  0.06205700  1
  Tl  Tl6  1  0.99891800  0.20698600  0.56205700  1
  Tl  Tl7  1  0.00108200  0.20698600  0.93794300  1
  Cu  Cu8  1  0.75189700  0.07806200  0.25082400  1
  Cu  Cu9  1  0.24810300  0.07806200  0.24917600  1
  Cu  Cu10  1  0.24810300  0.92193800  0.74917600  1
  Cu  Cu11  1  0.75189700  0.92193800  0.75082400  1
  Cu  Cu12  1  0.25189700  0.57806200  0.25082400  1
  Cu  Cu13  1  0.74810300  0.57806200  0.24917600  1
  Cu  Cu14  1  0.74810300  0.42193800  0.74917600  1
  Cu  Cu15  1  0.25189700  0.42193800  0.75082400  1
  P  P16  1  0.53123250  0.82826550  0.35314400  1
  P  P17  1  0.46876750  0.82826550  0.14685600  1
  P  P18  1  0.46876750  0.17173450  0.64685600  1
  P  P19  1  0.53123250  0.17173450  0.85314400  1
  P  P20  1  0.03123250  0.32826550  0.35314400  1
  P  P21  1  0.96876750  0.32826550  0.14685600  1
  P  P22  1  0.96876750  0.67173450  0.64685600  1
  P  P23  1  0.03123250  0.67173450  0.85314400  1
  O  O24  1  0.69487500  0.82756000  0.29632200  1
  O  O25  1  0.30512500  0.82756000  0.20367800  1
  O  O26  1  0.30512500  0.17244000  0.70367800  1
  O  O27  1  0.69487500  0.17244000  0.79632200  1
  O  O28  1  0.37537450  0.16568550  0.56842600  1
  O  O29  1  0.62462550  0.16568550  0.93157400  1
  O  O30  1  0.62462550  0.83431450  0.43157400  1
  O  O31  1  0.37537450  0.83431450  0.06842600  1
  O  O32  1  0.40919450  0.01412250  0.33752600  1
  O  O33  1  0.59080550  0.01412250  0.16247400  1
  O  O34  1  0.59080550  0.98587750  0.66247400  1
  O  O35  1  0.40919450  0.98587750  0.83752600  1
  O  O36  1  0.41073650  0.64232350  0.33929900  1
  O  O37  1  0.58926350  0.64232350  0.16070100  1
  O  O38  1  0.58926350  0.35767650  0.66070100  1
  O  O39  1  0.41073650  0.35767650  0.83929900  1
  O  O40  1  0.19487500  0.32756000  0.29632200  1
  O  O41  1  0.80512500  0.32756000  0.20367800  1
  O  O42  1  0.80512500  0.67244000  0.70367800  1
  O  O43  1  0.19487500  0.67244000  0.79632200  1
  O  O44  1  0.87537450  0.66568550  0.56842600  1
  O  O45  1  0.12462550  0.66568550  0.93157400  1
  O  O46  1  0.12462550  0.33431450  0.43157400  1
  O  O47  1  0.87537450  0.33431450  0.06842600  1
  O  O48  1  0.90919450  0.51412250  0.33752600  1
  O  O49  1  0.09080550  0.51412250  0.16247400  1
  O  O50  1  0.09080550  0.48587750  0.66247400  1
  O  O51  1  0.90919450  0.48587750  0.83752600  1
  O  O52  1  0.91073650  0.14232350  0.33929900  1
  O  O53  1  0.08926350  0.14232350  0.16070100  1
  O  O54  1  0.08926350  0.85767650  0.66070100  1
  O  O55  1  0.91073650  0.85767650  0.83929900  1
