# generated using pymatgen
data_BaCeC2O6F
_symmetry_space_group_name_H-M   'P 1'
_cell_length_a   5.13097408
_cell_length_b   5.13097408
_cell_length_c   38.66094572
_cell_angle_alpha   90.00000000
_cell_angle_beta   90.00000000
_cell_angle_gamma   120.00000000
_symmetry_Int_Tables_number   1
_chemical_formula_structural   BaCeC2O6F
_chemical_formula_sum   'Ba6 Ce6 C12 O36 F6'
_cell_volume   881.46028048
_cell_formula_units_Z   6
loop_
 _symmetry_equiv_pos_site_id
 _symmetry_equiv_pos_as_xyz
  1  'x, y, z'
loop_
 _atom_site_type_symbol
 _atom_site_label
 _atom_site_symmetry_multiplicity
 _atom_site_fract_x
 _atom_site_fract_y
 _atom_site_fract_z
 _atom_site_occupancy
  Ba  Ba0  1  0.00000000  0.00000000  0.00000000  1
  Ba  Ba1  1  0.33333333  0.66666667  0.16666667  1
  Ba  Ba2  1  0.66666667  0.33333333  0.33333333  1
  Ba  Ba3  1  1.00000000  1.00000000  0.50000000  1
  Ba  Ba4  1  0.33333333  0.66666667  0.66666667  1
  Ba  Ba5  1  0.66666667  0.33333333  0.83333333  1
  Ce  Ce6  1  0.66666667  0.33333333  0.08847733  1
  Ce  Ce7  1  0.00000000  0.00000000  0.24485600  1
  Ce  Ce8  1  0.33333333  0.66666667  0.42181067  1
  Ce  Ce9  1  0.66666667  0.33333333  0.57818933  1
  Ce  Ce10  1  0.00000000  0.00000000  0.75514400  1
  Ce  Ce11  1  0.33333333  0.66666667  0.91152267  1
  C  C12  1  0.66666667  0.33333333  0.22584833  1
  C  C13  1  0.00000000  0.00000000  0.10748500  1
  C  C14  1  0.33333333  0.66666667  0.29294667  1
  C  C15  1  0.33333333  0.66666667  0.04038667  1
  C  C16  1  0.33333333  0.66666667  0.55918167  1
  C  C17  1  0.66666667  0.33333333  0.44081833  1
  C  C18  1  0.00000000  0.00000000  0.62628000  1
  C  C19  1  0.00000000  0.00000000  0.37372000  1
  C  C20  1  0.00000000  0.00000000  0.89251500  1
  C  C21  1  0.33333333  0.66666667  0.77415167  1
  C  C22  1  0.66666667  0.33333333  0.95961333  1
  C  C23  1  0.66666667  0.33333333  0.70705333  1
  O  O24  1  0.52098200  0.47901800  0.22671000  1
  O  O25  1  0.52098200  0.04196400  0.22671000  1
  O  O26  1  0.95803600  0.47901800  0.22671000  1
  O  O27  1  0.70863067  0.85431533  0.10662333  1
  O  O28  1  0.14568467  0.85431533  0.10662333  1
  O  O29  1  0.14568467  0.29136933  0.10662333  1
  O  O30  1  0.18736700  0.81263300  0.29372500  1
  O  O31  1  0.18736700  0.37473400  0.29372500  1
  O  O32  1  0.62526600  0.81263300  0.29372500  1
  O  O33  1  0.04140067  0.52070033  0.03960833  1
  O  O34  1  0.47929967  0.52070033  0.03960833  1
  O  O35  1  0.47929967  0.95859933  0.03960833  1
  O  O36  1  0.18764867  0.81235133  0.56004333  1
  O  O37  1  0.18764867  0.37529733  0.56004333  1
  O  O38  1  0.62470267  0.81235133  0.56004333  1
  O  O39  1  0.37529733  0.18764867  0.43995667  1
  O  O40  1  0.81235133  0.18764867  0.43995667  1
  O  O41  1  0.81235133  0.62470267  0.43995667  1
  O  O42  1  0.85403367  0.14596633  0.62705833  1
  O  O43  1  0.85403367  0.70806733  0.62705833  1
  O  O44  1  0.29193267  0.14596633  0.62705833  1
  O  O45  1  0.70806733  0.85403367  0.37294167  1
  O  O46  1  0.14596633  0.85403367  0.37294167  1
  O  O47  1  0.14596633  0.29193267  0.37294167  1
  O  O48  1  0.85431533  0.14568467  0.89337667  1
  O  O49  1  0.85431533  0.70863067  0.89337667  1
  O  O50  1  0.29136933  0.14568467  0.89337667  1
  O  O51  1  0.04196400  0.52098200  0.77329000  1
  O  O52  1  0.47901800  0.52098200  0.77329000  1
  O  O53  1  0.47901800  0.95803600  0.77329000  1
  O  O54  1  0.52070033  0.47929967  0.96039167  1
  O  O55  1  0.52070033  0.04140067  0.96039167  1
  O  O56  1  0.95859933  0.47929967  0.96039167  1
  O  O57  1  0.37473400  0.18736700  0.70627500  1
  O  O58  1  0.81263300  0.18736700  0.70627500  1
  O  O59  1  0.81263300  0.62526600  0.70627500  1
  F  F60  1  0.66666667  0.33333333  0.14874133  1
  F  F61  1  0.00000000  0.00000000  0.18459200  1
  F  F62  1  0.33333333  0.66666667  0.48207467  1
  F  F63  1  0.66666667  0.33333333  0.51792533  1
  F  F64  1  0.00000000  0.00000000  0.81540800  1
  F  F65  1  0.33333333  0.66666667  0.85125867  1
