# generated using pymatgen
data_Al3Pb5F19
_symmetry_space_group_name_H-M   'P 1'
_cell_length_a   14.36976000
_cell_length_b   14.36976000
_cell_length_c   7.57938200
_cell_angle_alpha   90.00000000
_cell_angle_beta   90.00000000
_cell_angle_gamma   90.00000000
_symmetry_Int_Tables_number   1
_chemical_formula_structural   Al3Pb5F19
_chemical_formula_sum   'Al12 Pb20 F76'
_cell_volume   1565.06660781
_cell_formula_units_Z   4
loop_
 _symmetry_equiv_pos_site_id
 _symmetry_equiv_pos_as_xyz
  1  'x, y, z'
loop_
 _atom_site_type_symbol
 _atom_site_label
 _atom_site_symmetry_multiplicity
 _atom_site_fract_x
 _atom_site_fract_y
 _atom_site_fract_z
 _atom_site_occupancy
  Al  Al0  1  0.66100800  0.83899200  0.47948100  1
  Al  Al1  1  0.66100800  0.16100800  0.97948100  1
  Al  Al2  1  0.33899200  0.83899200  0.97948100  1
  Al  Al3  1  0.33899200  0.16100800  0.47948100  1
  Al  Al4  1  0.00000000  0.00000000  0.18325700  1
  Al  Al5  1  0.00000000  0.00000000  0.68325700  1
  Al  Al6  1  0.16100800  0.33899200  0.97948100  1
  Al  Al7  1  0.16100800  0.66100800  0.47948100  1
  Al  Al8  1  0.83899200  0.33899200  0.47948100  1
  Al  Al9  1  0.83899200  0.66100800  0.97948100  1
  Al  Al10  1  0.50000000  0.50000000  0.68325700  1
  Al  Al11  1  0.50000000  0.50000000  0.18325700  1
  Pb  Pb12  1  0.42644750  0.27495550  0.02044650  1
  Pb  Pb13  1  0.22504450  0.92644750  0.52044650  1
  Pb  Pb14  1  0.77495550  0.07355250  0.52044650  1
  Pb  Pb15  1  0.57355250  0.72504450  0.02044650  1
  Pb  Pb16  1  0.77495550  0.92644750  0.02044650  1
  Pb  Pb17  1  0.22504450  0.07355250  0.02044650  1
  Pb  Pb18  1  0.42644750  0.72504450  0.52044650  1
  Pb  Pb19  1  0.57355250  0.27495550  0.52044650  1
  Pb  Pb20  1  0.50000000  0.00000000  0.63845100  1
  Pb  Pb21  1  0.50000000  0.00000000  0.13845100  1
  Pb  Pb22  1  0.92644750  0.77495550  0.52044650  1
  Pb  Pb23  1  0.72504450  0.42644750  0.02044650  1
  Pb  Pb24  1  0.27495550  0.57355250  0.02044650  1
  Pb  Pb25  1  0.07355250  0.22504450  0.52044650  1
  Pb  Pb26  1  0.27495550  0.42644750  0.52044650  1
  Pb  Pb27  1  0.72504450  0.57355250  0.52044650  1
  Pb  Pb28  1  0.92644750  0.22504450  0.02044650  1
  Pb  Pb29  1  0.07355250  0.77495550  0.02044650  1
  Pb  Pb30  1  0.00000000  0.50000000  0.13845100  1
  Pb  Pb31  1  0.00000000  0.50000000  0.63845100  1
  F  F32  1  0.61165600  0.75119800  0.32738500  1
  F  F33  1  0.74880200  0.11165600  0.82738500  1
  F  F34  1  0.25119800  0.88834400  0.82738500  1
  F  F35  1  0.38834400  0.24880200  0.32738500  1
  F  F36  1  0.25119800  0.11165600  0.32738500  1
  F  F37  1  0.74880200  0.88834400  0.32738500  1
  F  F38  1  0.61165600  0.24880200  0.82738500  1
  F  F39  1  0.38834400  0.75119800  0.82738500  1
  F  F40  1  0.69468050  0.93067450  0.63909450  1
  F  F41  1  0.56932550  0.19468050  0.13909450  1
  F  F42  1  0.43067450  0.80531950  0.13909450  1
  F  F43  1  0.30531950  0.06932550  0.63909450  1
  F  F44  1  0.43067450  0.19468050  0.63909450  1
  F  F45  1  0.56932550  0.80531950  0.63909450  1
  F  F46  1  0.69468050  0.06932550  0.13909450  1
  F  F47  1  0.30531950  0.93067450  0.13909450  1
  F  F48  1  0.57706250  0.92293750  0.39077250  1
  F  F49  1  0.57706250  0.07706250  0.89077250  1
  F  F50  1  0.42293750  0.92293750  0.89077250  1
  F  F51  1  0.42293750  0.07706250  0.39077250  1
  F  F52  1  0.74510750  0.75489250  0.55387550  1
  F  F53  1  0.74510750  0.24510750  0.05387550  1
  F  F54  1  0.25489250  0.75489250  0.05387550  1
  F  F55  1  0.25489250  0.24510750  0.55387550  1
  F  F56  1  0.00000000  0.00000000  0.42841800  1
  F  F57  1  0.00000000  0.00000000  0.92841800  1
  F  F58  1  0.44686450  0.61398650  0.17494350  1
  F  F59  1  0.88601350  0.94686450  0.67494350  1
  F  F60  1  0.11398650  0.05313550  0.67494350  1
  F  F61  1  0.55313550  0.38601350  0.17494350  1
  F  F62  1  0.11398650  0.94686450  0.17494350  1
  F  F63  1  0.88601350  0.05313550  0.17494350  1
  F  F64  1  0.44686450  0.38601350  0.67494350  1
  F  F65  1  0.55313550  0.61398650  0.67494350  1
  F  F66  1  0.38474600  0.11525400  0.01175800  1
  F  F67  1  0.38474600  0.88474600  0.51175800  1
  F  F68  1  0.61525400  0.11525400  0.51175800  1
  F  F69  1  0.61525400  0.88474600  0.01175800  1
  F  F70  1  0.11165600  0.25119800  0.82738500  1
  F  F71  1  0.24880200  0.61165600  0.32738500  1
  F  F72  1  0.75119800  0.38834400  0.32738500  1
  F  F73  1  0.88834400  0.74880200  0.82738500  1
  F  F74  1  0.75119800  0.61165600  0.82738500  1
  F  F75  1  0.24880200  0.38834400  0.82738500  1
  F  F76  1  0.11165600  0.74880200  0.32738500  1
  F  F77  1  0.88834400  0.25119800  0.32738500  1
  F  F78  1  0.19468050  0.43067450  0.13909450  1
  F  F79  1  0.06932550  0.69468050  0.63909450  1
  F  F80  1  0.93067450  0.30531950  0.63909450  1
  F  F81  1  0.80531950  0.56932550  0.13909450  1
  F  F82  1  0.93067450  0.69468050  0.13909450  1
  F  F83  1  0.06932550  0.30531950  0.13909450  1
  F  F84  1  0.19468050  0.56932550  0.63909450  1
  F  F85  1  0.80531950  0.43067450  0.63909450  1
  F  F86  1  0.07706250  0.42293750  0.89077250  1
  F  F87  1  0.07706250  0.57706250  0.39077250  1
  F  F88  1  0.92293750  0.42293750  0.39077250  1
  F  F89  1  0.92293750  0.57706250  0.89077250  1
  F  F90  1  0.24510750  0.25489250  0.05387550  1
  F  F91  1  0.24510750  0.74510750  0.55387550  1
  F  F92  1  0.75489250  0.25489250  0.55387550  1
  F  F93  1  0.75489250  0.74510750  0.05387550  1
  F  F94  1  0.50000000  0.50000000  0.92841800  1
  F  F95  1  0.50000000  0.50000000  0.42841800  1
  F  F96  1  0.94686450  0.11398650  0.67494350  1
  F  F97  1  0.38601350  0.44686450  0.17494350  1
  F  F98  1  0.61398650  0.55313550  0.17494350  1
  F  F99  1  0.05313550  0.88601350  0.67494350  1
  F  F100  1  0.61398650  0.44686450  0.67494350  1
  F  F101  1  0.38601350  0.55313550  0.67494350  1
  F  F102  1  0.94686450  0.88601350  0.17494350  1
  F  F103  1  0.05313550  0.11398650  0.17494350  1
  F  F104  1  0.88474600  0.61525400  0.51175800  1
  F  F105  1  0.88474600  0.38474600  0.01175800  1
  F  F106  1  0.11525400  0.61525400  0.01175800  1
  F  F107  1  0.11525400  0.38474600  0.51175800  1
