# generated using pymatgen
data_Na2Ca2(CO3)3
_symmetry_space_group_name_H-M   'P 1'
_cell_length_a   7.19769000
_cell_length_b   11.15659200
_cell_length_c   5.00689700
_cell_angle_alpha   90.00000000
_cell_angle_beta   90.00000000
_cell_angle_gamma   90.00000000
_symmetry_Int_Tables_number   1
_chemical_formula_structural   Na2Ca2(CO3)3
_chemical_formula_sum   'Na4 Ca4 C6 O18'
_cell_volume   402.06229412
_cell_formula_units_Z   2
loop_
 _symmetry_equiv_pos_site_id
 _symmetry_equiv_pos_as_xyz
  1  'x, y, z'
loop_
 _atom_site_type_symbol
 _atom_site_label
 _atom_site_symmetry_multiplicity
 _atom_site_fract_x
 _atom_site_fract_y
 _atom_site_fract_z
 _atom_site_occupancy
  Na  Na0  1  0.07412300  0.00000000  0.00000000  1
  Na  Na1  1  0.38762900  0.00000000  0.50000000  1
  Na  Na2  1  0.57412300  0.50000000  0.00000000  1
  Na  Na3  1  0.88762900  0.50000000  0.50000000  1
  Ca  Ca4  1  0.50137200  0.71638100  0.50000000  1
  Ca  Ca5  1  0.50137200  0.28361900  0.50000000  1
  Ca  Ca6  1  0.00137200  0.21638100  0.50000000  1
  Ca  Ca7  1  0.00137200  0.78361900  0.50000000  1
  C  C8  1  0.33019350  0.20409550  0.00000000  1
  C  C9  1  0.33019350  0.79590450  0.00000000  1
  C  C10  1  0.77427500  0.00000000  0.50000000  1
  C  C11  1  0.83019350  0.70409550  0.00000000  1
  C  C12  1  0.83019350  0.29590450  0.00000000  1
  C  C13  1  0.27427500  0.50000000  0.50000000  1
  O  O14  1  0.68829650  0.10152150  0.50000000  1
  O  O15  1  0.68829650  0.89847850  0.50000000  1
  O  O16  1  0.42545500  0.30208100  0.00000000  1
  O  O17  1  0.95816300  0.00000000  0.50000000  1
  O  O18  1  0.42545500  0.69791900  0.00000000  1
  O  O19  1  0.28476850  0.15438650  0.22610700  1
  O  O20  1  0.28476850  0.84561350  0.77389300  1
  O  O21  1  0.28476850  0.15438650  0.77389300  1
  O  O22  1  0.28476850  0.84561350  0.22610700  1
  O  O23  1  0.18829650  0.60152150  0.50000000  1
  O  O24  1  0.18829650  0.39847850  0.50000000  1
  O  O25  1  0.92545500  0.80208100  0.00000000  1
  O  O26  1  0.45816300  0.50000000  0.50000000  1
  O  O27  1  0.92545500  0.19791900  0.00000000  1
  O  O28  1  0.78476850  0.65438650  0.22610700  1
  O  O29  1  0.78476850  0.34561350  0.77389300  1
  O  O30  1  0.78476850  0.65438650  0.77389300  1
  O  O31  1  0.78476850  0.34561350  0.22610700  1
