# generated using pymatgen
data_Fe2BO4
_symmetry_space_group_name_H-M   'P 1'
_cell_length_a   6.34830194
_cell_length_b   9.47414200
_cell_length_c   9.37163498
_cell_angle_alpha   90.00000000
_cell_angle_beta   90.51438962
_cell_angle_gamma   90.00000000
_symmetry_Int_Tables_number   1
_chemical_formula_structural   Fe2BO4
_chemical_formula_sum   'Fe16 B8 O32'
_cell_volume   563.63159084
_cell_formula_units_Z   8
loop_
 _symmetry_equiv_pos_site_id
 _symmetry_equiv_pos_as_xyz
  1  'x, y, z'
loop_
 _atom_site_type_symbol
 _atom_site_label
 _atom_site_symmetry_multiplicity
 _atom_site_fract_x
 _atom_site_fract_y
 _atom_site_fract_z
 _atom_site_occupancy
  Fe  Fe0  1  0.33484100  0.55619800  0.50644500  1
  Fe  Fe1  1  0.33484100  0.44380200  0.00644500  1
  Fe  Fe2  1  0.58607800  0.31619500  0.72863200  1
  Fe  Fe3  1  0.58607800  0.68380500  0.22863200  1
  Fe  Fe4  1  0.83356800  0.18685900  0.49925000  1
  Fe  Fe5  1  0.83356800  0.81314100  0.99925000  1
  Fe  Fe6  1  0.08454800  0.05472700  0.21377100  1
  Fe  Fe7  1  0.08454800  0.94527300  0.71377100  1
  Fe  Fe8  1  0.83406500  0.44359200  0.00041400  1
  Fe  Fe9  1  0.83406500  0.55640800  0.50041400  1
  Fe  Fe10  1  0.08433400  0.31939900  0.72990400  1
  Fe  Fe11  1  0.08433400  0.68060100  0.22990400  1
  Fe  Fe12  1  0.33512000  0.18539700  0.49440800  1
  Fe  Fe13  1  0.33512000  0.81460300  0.99440800  1
  Fe  Fe14  1  0.58537300  0.05920000  0.21471600  1
  Fe  Fe15  1  0.58537300  0.94080000  0.71471600  1
  B  B16  1  0.84399600  0.87436200  0.44529900  1
  B  B17  1  0.84399600  0.12563800  0.94529900  1
  B  B18  1  0.32275500  0.87318100  0.44690200  1
  B  B19  1  0.32275500  0.12681900  0.94690200  1
  B  B20  1  0.09099900  0.62407500  0.77419700  1
  B  B21  1  0.09099900  0.37592500  0.27419700  1
  B  B22  1  0.57823800  0.62381000  0.77591000  1
  B  B23  1  0.57823800  0.37619000  0.27591000  1
  O  O24  1  0.09391600  0.50108300  0.85489700  1
  O  O25  1  0.09391600  0.49891700  0.35489700  1
  O  O26  1  0.57450700  0.62012100  0.62994300  1
  O  O27  1  0.57450700  0.37987900  0.12994300  1
  O  O28  1  0.33662200  0.36747200  0.58878400  1
  O  O29  1  0.33662200  0.63252800  0.08878400  1
  O  O30  1  0.83033000  0.25455500  0.87998900  1
  O  O31  1  0.83033000  0.74544500  0.37998900  1
  O  O32  1  0.58361500  0.24483700  0.34538500  1
  O  O33  1  0.58361500  0.75516300  0.84538500  1
  O  O34  1  0.08635500  0.13096200  0.61710200  1
  O  O35  1  0.08635500  0.86903800  0.11710200  1
  O  O36  1  0.85073100  0.11591700  0.09187300  1
  O  O37  1  0.85073100  0.88408300  0.59187300  1
  O  O38  1  0.31916900  0.99949800  0.36708900  1
  O  O39  1  0.31916900  0.00050200  0.86708900  1
  O  O40  1  0.57397300  0.49930200  0.85454200  1
  O  O41  1  0.57397300  0.50069800  0.35454200  1
  O  O42  1  0.09611200  0.61792200  0.62845600  1
  O  O43  1  0.09611200  0.38207800  0.12845600  1
  O  O44  1  0.83791400  0.36674900  0.59252300  1
  O  O45  1  0.83791400  0.63325100  0.09252300  1
  O  O46  1  0.33064800  0.25683800  0.88090900  1
  O  O47  1  0.33064800  0.74316200  0.38090900  1
  O  O48  1  0.08526600  0.24327200  0.34176500  1
  O  O49  1  0.08526600  0.75672800  0.84176500  1
  O  O50  1  0.58430100  0.13044000  0.61117000  1
  O  O51  1  0.58430100  0.86956000  0.11117000  1
  O  O52  1  0.31793700  0.11747400  0.09259300  1
  O  O53  1  0.31793700  0.88252600  0.59259300  1
  O  O54  1  0.85180900  0.00160700  0.36650000  1
  O  O55  1  0.85180900  0.99839300  0.86650000  1
