# generated using pymatgen
data_Ga2(SO4)3
_symmetry_space_group_name_H-M   'P 1'
_cell_length_a   8.19239443
_cell_length_b   8.19239443
_cell_length_c   22.20437527
_cell_angle_alpha   90.00000000
_cell_angle_beta   90.00000000
_cell_angle_gamma   120.00000000
_symmetry_Int_Tables_number   1
_chemical_formula_structural   Ga2(SO4)3
_chemical_formula_sum   'Ga12 S18 O72'
_cell_volume   1290.59773208
_cell_formula_units_Z   6
loop_
 _symmetry_equiv_pos_site_id
 _symmetry_equiv_pos_as_xyz
  1  'x, y, z'
loop_
 _atom_site_type_symbol
 _atom_site_label
 _atom_site_symmetry_multiplicity
 _atom_site_fract_x
 _atom_site_fract_y
 _atom_site_fract_z
 _atom_site_occupancy
  Ga  Ga0  1  0.66666667  0.33333333  0.18949933  1
  Ga  Ga1  1  0.00000000  0.00000000  0.14383400  1
  Ga  Ga2  1  0.33333333  0.66666667  0.31726567  1
  Ga  Ga3  1  0.33333333  0.66666667  0.01606767  1
  Ga  Ga4  1  0.33333333  0.66666667  0.52283267  1
  Ga  Ga5  1  0.66666667  0.33333333  0.47716733  1
  Ga  Ga6  1  0.00000000  0.00000000  0.65059900  1
  Ga  Ga7  1  0.00000000  0.00000000  0.34940100  1
  Ga  Ga8  1  0.00000000  0.00000000  0.85616600  1
  Ga  Ga9  1  0.33333333  0.66666667  0.81050067  1
  Ga  Ga10  1  0.66666667  0.33333333  0.98393233  1
  Ga  Ga11  1  0.66666667  0.33333333  0.68273433  1
  S  S12  1  0.99832633  0.28978467  0.25050967  1
  S  S13  1  0.71021533  0.70854167  0.25050967  1
  S  S14  1  0.29145833  0.00167367  0.25050967  1
  S  S15  1  0.66834033  0.04354867  0.08282367  1
  S  S16  1  0.95645133  0.62479167  0.08282367  1
  S  S17  1  0.37520833  0.33165967  0.08282367  1
  S  S18  1  0.66499300  0.62311800  0.58384300  1
  S  S19  1  0.37688200  0.04187500  0.58384300  1
  S  S20  1  0.95812500  0.33500700  0.58384300  1
  S  S21  1  0.33500700  0.37688200  0.41615700  1
  S  S22  1  0.62311800  0.95812500  0.41615700  1
  S  S23  1  0.04187500  0.66499300  0.41615700  1
  S  S24  1  0.33165967  0.95645133  0.91717633  1
  S  S25  1  0.04354867  0.37520833  0.91717633  1
  S  S26  1  0.62479167  0.66834033  0.91717633  1
  S  S27  1  0.00167367  0.71021533  0.74949033  1
  S  S28  1  0.28978467  0.29145833  0.74949033  1
  S  S29  1  0.70854167  0.99832633  0.74949033  1
  O  O30  1  0.00990500  0.20676500  0.19270400  1
  O  O31  1  0.79323500  0.80314000  0.19270400  1
  O  O32  1  0.19686000  0.99009500  0.19270400  1
  O  O33  1  0.65676167  0.12656833  0.14062933  1
  O  O34  1  0.87343167  0.53019333  0.14062933  1
  O  O35  1  0.46980667  0.34323833  0.14062933  1
  O  O36  1  0.91659267  0.14437833  0.29874233  1
  O  O37  1  0.85562167  0.77221433  0.29874233  1
  O  O38  1  0.22778567  0.08340733  0.29874233  1
  O  O39  1  0.75007400  0.18895500  0.03459100  1
  O  O40  1  0.81104500  0.56111900  0.03459100  1
  O  O41  1  0.43888100  0.24992600  0.03459100  1
  O  O42  1  0.19214967  0.44085633  0.26579033  1
  O  O43  1  0.55914367  0.75129333  0.26579033  1
  O  O44  1  0.24870667  0.80785033  0.26579033  1
  O  O45  1  0.47451700  0.89247700  0.06754300  1
  O  O46  1  0.10752300  0.58204000  0.06754300  1
  O  O47  1  0.41796000  0.52548300  0.06754300  1
  O  O48  1  0.87383000  0.37147300  0.24395800  1
  O  O49  1  0.62852700  0.50235700  0.24395800  1
  O  O50  1  0.49764300  0.12617000  0.24395800  1
  O  O51  1  0.79283667  0.96186033  0.08937533  1
  O  O52  1  0.03813967  0.83097633  0.08937533  1
  O  O53  1  0.16902367  0.20716333  0.08937533  1
  O  O54  1  0.67657167  0.54009833  0.52603733  1
  O  O55  1  0.45990167  0.13647333  0.52603733  1
  O  O56  1  0.86352667  0.32342833  0.52603733  1
  O  O57  1  0.32342833  0.45990167  0.47396267  1
  O  O58  1  0.54009833  0.86352667  0.47396267  1
  O  O59  1  0.13647333  0.67657167  0.47396267  1
  O  O60  1  0.58325933  0.47771167  0.63207567  1
  O  O61  1  0.52228833  0.10554767  0.63207567  1
  O  O62  1  0.89445233  0.41674067  0.63207567  1
  O  O63  1  0.41674067  0.52228833  0.36792433  1
  O  O64  1  0.47771167  0.89445233  0.36792433  1
  O  O65  1  0.10554767  0.58325933  0.36792433  1
  O  O66  1  0.85881633  0.77418967  0.59912367  1
  O  O67  1  0.22581033  0.08462667  0.59912367  1
  O  O68  1  0.91537333  0.14118367  0.59912367  1
  O  O69  1  0.14118367  0.22581033  0.40087633  1
  O  O70  1  0.77418967  0.91537333  0.40087633  1
  O  O71  1  0.08462667  0.85881633  0.40087633  1
  O  O72  1  0.54049667  0.70480633  0.57729133  1
  O  O73  1  0.29519367  0.83569033  0.57729133  1
  O  O74  1  0.16430967  0.45950333  0.57729133  1
  O  O75  1  0.45950333  0.29519367  0.42270867  1
  O  O76  1  0.70480633  0.16430967  0.42270867  1
  O  O77  1  0.83569033  0.54049667  0.42270867  1
  O  O78  1  0.34323833  0.87343167  0.85937067  1
  O  O79  1  0.12656833  0.46980667  0.85937067  1
  O  O80  1  0.53019333  0.65676167  0.85937067  1
  O  O81  1  0.99009500  0.79323500  0.80729600  1
  O  O82  1  0.20676500  0.19686000  0.80729600  1
  O  O83  1  0.80314000  0.00990500  0.80729600  1
  O  O84  1  0.24992600  0.81104500  0.96540900  1
  O  O85  1  0.18895500  0.43888100  0.96540900  1
  O  O86  1  0.56111900  0.75007400  0.96540900  1
  O  O87  1  0.08340733  0.85562167  0.70125767  1
  O  O88  1  0.14437833  0.22778567  0.70125767  1
  O  O89  1  0.77221433  0.91659267  0.70125767  1
  O  O90  1  0.52548300  0.10752300  0.93245700  1
  O  O91  1  0.89247700  0.41796000  0.93245700  1
  O  O92  1  0.58204000  0.47451700  0.93245700  1
  O  O93  1  0.80785033  0.55914367  0.73420967  1
  O  O94  1  0.44085633  0.24870667  0.73420967  1
  O  O95  1  0.75129333  0.19214967  0.73420967  1
  O  O96  1  0.20716333  0.03813967  0.91062467  1
  O  O97  1  0.96186033  0.16902367  0.91062467  1
  O  O98  1  0.83097633  0.79283667  0.91062467  1
  O  O99  1  0.12617000  0.62852700  0.75604200  1
  O  O100  1  0.37147300  0.49764300  0.75604200  1
  O  O101  1  0.50235700  0.87383000  0.75604200  1
