# generated using pymatgen
data_NaP(HO2)2
_symmetry_space_group_name_H-M   'P 1'
_cell_length_a   6.23752700
_cell_length_b   12.52176900
_cell_length_c   9.79048079
_cell_angle_alpha   90.00000000
_cell_angle_beta   91.42709939
_cell_angle_gamma   90.00000000
_symmetry_Int_Tables_number   1
_chemical_formula_structural   NaP(HO2)2
_chemical_formula_sum   'Na8 P8 H16 O32'
_cell_volume   764.44706303
_cell_formula_units_Z   8
loop_
 _symmetry_equiv_pos_site_id
 _symmetry_equiv_pos_as_xyz
  1  'x, y, z'
loop_
 _atom_site_type_symbol
 _atom_site_label
 _atom_site_symmetry_multiplicity
 _atom_site_fract_x
 _atom_site_fract_y
 _atom_site_fract_z
 _atom_site_occupancy
  Na  Na0  1  0.93824800  0.87391400  0.07193900  1
  Na  Na1  1  0.06175200  0.37391400  0.42806100  1
  Na  Na2  1  0.06175200  0.12608600  0.92806100  1
  Na  Na3  1  0.93824800  0.62608600  0.57193900  1
  Na  Na4  1  0.74125700  0.93773900  0.47023000  1
  Na  Na5  1  0.25874300  0.43773900  0.02977000  1
  Na  Na6  1  0.25874300  0.06226100  0.52977000  1
  Na  Na7  1  0.74125700  0.56226100  0.97023000  1
  P  P8  1  0.39928300  0.00317500  0.18812900  1
  P  P9  1  0.60071700  0.50317500  0.31187100  1
  P  P10  1  0.60071700  0.99682500  0.81187100  1
  P  P11  1  0.39928300  0.49682500  0.68812900  1
  P  P12  1  0.45609800  0.67835300  0.48973900  1
  P  P13  1  0.54390200  0.17835300  0.01026100  1
  P  P14  1  0.54390200  0.32164700  0.51026100  1
  P  P15  1  0.45609800  0.82164700  0.98973900  1
  H  H16  1  0.00753400  0.57866100  0.21211100  1
  H  H17  1  0.99246600  0.07866100  0.28788900  1
  H  H18  1  0.99246600  0.42133900  0.78788900  1
  H  H19  1  0.00753400  0.92133900  0.71211100  1
  H  H20  1  0.13398600  0.65129600  0.10896600  1
  H  H21  1  0.86601400  0.15129600  0.39103400  1
  H  H22  1  0.86601400  0.34870400  0.89103400  1
  H  H23  1  0.13398600  0.84870400  0.60896600  1
  H  H24  1  0.07605100  0.79810800  0.35250800  1
  H  H25  1  0.92394900  0.29810800  0.14749200  1
  H  H26  1  0.92394900  0.20189200  0.64749200  1
  H  H27  1  0.07605100  0.70189200  0.85250800  1
  H  H28  1  0.83292700  0.77515900  0.33897200  1
  H  H29  1  0.16707300  0.27515900  0.16102800  1
  H  H30  1  0.16707300  0.22484100  0.66102800  1
  H  H31  1  0.83292700  0.72484100  0.83897200  1
  O  O32  1  0.51435600  0.89935400  0.11928400  1
  O  O33  1  0.48564400  0.39935400  0.38071600  1
  O  O34  1  0.48564400  0.10064600  0.88071600  1
  O  O35  1  0.51435600  0.60064600  0.61928400  1
  O  O36  1  0.43570700  0.59603200  0.36177600  1
  O  O37  1  0.56429300  0.09603200  0.13822400  1
  O  O38  1  0.56429300  0.40396800  0.63822400  1
  O  O39  1  0.43570700  0.90396800  0.86177600  1
  O  O40  1  0.56820600  0.49210200  0.16123300  1
  O  O41  1  0.43179400  0.99210200  0.33876700  1
  O  O42  1  0.43179400  0.50789800  0.83876700  1
  O  O43  1  0.56820600  0.00789800  0.66123300  1
  O  O44  1  0.82076200  0.52046400  0.37492600  1
  O  O45  1  0.17923800  0.02046400  0.12507400  1
  O  O46  1  0.17923800  0.47953600  0.62507400  1
  O  O47  1  0.82076200  0.97953600  0.87492600  1
  O  O48  1  0.65169600  0.74699100  0.47677800  1
  O  O49  1  0.34830400  0.24699100  0.02322200  1
  O  O50  1  0.34830400  0.25300900  0.52322200  1
  O  O51  1  0.65169600  0.75300900  0.97677800  1
  O  O52  1  0.23850600  0.72761500  0.50396700  1
  O  O53  1  0.76149400  0.22761500  0.99603300  1
  O  O54  1  0.76149400  0.27238500  0.49603300  1
  O  O55  1  0.23850600  0.77238500  0.00396700  1
  O  O56  1  0.05504000  0.58387200  0.11775600  1
  O  O57  1  0.94496000  0.08387200  0.38224400  1
  O  O58  1  0.94496000  0.41612800  0.88224400  1
  O  O59  1  0.05504000  0.91612800  0.61775600  1
  O  O60  1  0.94804500  0.81709800  0.29729900  1
  O  O61  1  0.05195500  0.31709800  0.20270100  1
  O  O62  1  0.05195500  0.18290200  0.70270100  1
  O  O63  1  0.94804500  0.68290200  0.79729900  1
