# generated using pymatgen
data_KIO3
_symmetry_space_group_name_H-M   'P 1'
_cell_length_a   6.33608322
_cell_length_b   6.33608322
_cell_length_c   8.02705499
_cell_angle_alpha   90.00000000
_cell_angle_beta   90.00000000
_cell_angle_gamma   120.00000000
_symmetry_Int_Tables_number   1
_chemical_formula_structural   KIO3
_chemical_formula_sum   'K3 I3 O9'
_cell_volume   279.07993639
_cell_formula_units_Z   3
loop_
 _symmetry_equiv_pos_site_id
 _symmetry_equiv_pos_as_xyz
  1  'x, y, z'
loop_
 _atom_site_type_symbol
 _atom_site_label
 _atom_site_symmetry_multiplicity
 _atom_site_fract_x
 _atom_site_fract_y
 _atom_site_fract_z
 _atom_site_occupancy
  K  K0  1  0.33333333  0.66666667  0.67366867  1
  K  K1  1  0.00000000  0.00000000  0.00700200  1
  K  K2  1  0.66666667  0.33333333  0.34033533  1
  I  I3  1  0.33333333  0.66666667  0.17172967  1
  I  I4  1  0.00000000  0.00000000  0.50506300  1
  I  I5  1  0.66666667  0.33333333  0.83839633  1
  O  O6  1  0.48151400  0.51848600  0.06427800  1
  O  O7  1  0.03697200  0.51848600  0.06427800  1
  O  O8  1  0.48151400  0.96302800  0.06427800  1
  O  O9  1  0.14818067  0.85181933  0.39761133  1
  O  O10  1  0.70363867  0.85181933  0.39761133  1
  O  O11  1  0.14818067  0.29636133  0.39761133  1
  O  O12  1  0.81484733  0.18515267  0.73094467  1
  O  O13  1  0.37030533  0.18515267  0.73094467  1
  O  O14  1  0.81484733  0.62969467  0.73094467  1
