# generated using pymatgen
data_Pr8Sb2S15
_symmetry_space_group_name_H-M   'P 1'
_cell_length_a   15.82462600
_cell_length_b   15.82462600
_cell_length_c   20.00937200
_cell_angle_alpha   90.00000000
_cell_angle_beta   90.00000000
_cell_angle_gamma   90.00000000
_symmetry_Int_Tables_number   1
_chemical_formula_structural   Pr8Sb2S15
_chemical_formula_sum   'Pr64 Sb16 S120'
_cell_volume   5010.72268568
_cell_formula_units_Z   8
loop_
 _symmetry_equiv_pos_site_id
 _symmetry_equiv_pos_as_xyz
  1  'x, y, z'
loop_
 _atom_site_type_symbol
 _atom_site_label
 _atom_site_symmetry_multiplicity
 _atom_site_fract_x
 _atom_site_fract_y
 _atom_site_fract_z
 _atom_site_occupancy
  Pr  Pr0  1  0.64301950  0.14989650  0.24931350  1
  Pr  Pr1  1  0.14989650  0.85698050  0.49931350  1
  Pr  Pr2  1  0.85698050  0.64989650  0.24931350  1
  Pr  Pr3  1  0.51963000  0.15352200  0.06416300  1
  Pr  Pr4  1  0.14989650  0.14301950  0.99931350  1
  Pr  Pr5  1  0.14301950  0.35010350  0.24931350  1
  Pr  Pr6  1  0.34647800  0.51963000  0.81416300  1
  Pr  Pr7  1  0.29243900  0.13731500  0.17959700  1
  Pr  Pr8  1  0.84983500  0.51994300  0.43086100  1
  Pr  Pr9  1  0.98037000  0.65352200  0.06416300  1
  Pr  Pr10  1  0.01963000  0.34647800  0.06416300  1
  Pr  Pr11  1  0.36268500  0.70756100  0.42959700  1
  Pr  Pr12  1  0.15352200  0.98037000  0.31416300  1
  Pr  Pr13  1  0.20756100  0.63731500  0.17959700  1
  Pr  Pr14  1  0.70756100  0.86268500  0.17959700  1
  Pr  Pr15  1  0.36268500  0.29243900  0.92959700  1
  Pr  Pr16  1  0.98037000  0.34647800  0.56416300  1
  Pr  Pr17  1  0.34983500  0.98005700  0.43086100  1
  Pr  Pr18  1  0.35010350  0.35698050  0.49931350  1
  Pr  Pr19  1  0.51994300  0.34983500  0.18086100  1
  Pr  Pr20  1  0.15352200  0.01963000  0.81416300  1
  Pr  Pr21  1  0.13731500  0.20756100  0.42959700  1
  Pr  Pr22  1  0.35698050  0.85010350  0.24931350  1
  Pr  Pr23  1  0.01994300  0.15016500  0.18086100  1
  Pr  Pr24  1  0.35010350  0.64301950  0.99931350  1
  Pr  Pr25  1  0.13731500  0.79243900  0.92959700  1
  Pr  Pr26  1  0.15016500  0.48005700  0.43086100  1
  Pr  Pr27  1  0.48005700  0.34983500  0.68086100  1
  Pr  Pr28  1  0.34647800  0.48037000  0.31416300  1
  Pr  Pr29  1  0.29243900  0.86268500  0.67959700  1
  Pr  Pr30  1  0.15016500  0.51994300  0.93086100  1
  Pr  Pr31  1  0.98005700  0.15016500  0.68086100  1
  Pr  Pr32  1  0.14301950  0.64989650  0.74931350  1
  Pr  Pr33  1  0.64989650  0.35698050  0.99931350  1
  Pr  Pr34  1  0.35698050  0.14989650  0.74931350  1
  Pr  Pr35  1  0.01963000  0.65352200  0.56416300  1
  Pr  Pr36  1  0.64989650  0.64301950  0.49931350  1
  Pr  Pr37  1  0.64301950  0.85010350  0.74931350  1
  Pr  Pr38  1  0.84647800  0.01963000  0.31416300  1
  Pr  Pr39  1  0.79243900  0.63731500  0.67959700  1
  Pr  Pr40  1  0.34983500  0.01994300  0.93086100  1
  Pr  Pr41  1  0.48037000  0.15352200  0.56416300  1
  Pr  Pr42  1  0.51963000  0.84647800  0.56416300  1
  Pr  Pr43  1  0.86268500  0.20756100  0.92959700  1
  Pr  Pr44  1  0.65352200  0.48037000  0.81416300  1
  Pr  Pr45  1  0.70756100  0.13731500  0.67959700  1
  Pr  Pr46  1  0.20756100  0.36268500  0.67959700  1
  Pr  Pr47  1  0.86268500  0.79243900  0.42959700  1
  Pr  Pr48  1  0.48037000  0.84647800  0.06416300  1
  Pr  Pr49  1  0.84983500  0.48005700  0.93086100  1
  Pr  Pr50  1  0.85010350  0.85698050  0.99931350  1
  Pr  Pr51  1  0.01994300  0.84983500  0.68086100  1
  Pr  Pr52  1  0.65352200  0.51963000  0.31416300  1
  Pr  Pr53  1  0.63731500  0.70756100  0.92959700  1
  Pr  Pr54  1  0.85698050  0.35010350  0.74931350  1
  Pr  Pr55  1  0.51994300  0.65016500  0.68086100  1
  Pr  Pr56  1  0.85010350  0.14301950  0.49931350  1
  Pr  Pr57  1  0.63731500  0.29243900  0.42959700  1
  Pr  Pr58  1  0.65016500  0.98005700  0.93086100  1
  Pr  Pr59  1  0.98005700  0.84983500  0.18086100  1
  Pr  Pr60  1  0.84647800  0.98037000  0.81416300  1
  Pr  Pr61  1  0.79243900  0.36268500  0.17959700  1
  Pr  Pr62  1  0.65016500  0.01994300  0.43086100  1
  Pr  Pr63  1  0.48005700  0.65016500  0.18086100  1
  Sb  Sb64  1  0.71661100  0.39651600  0.59744700  1
  Sb  Sb65  1  0.89651600  0.28338900  0.34744700  1
  Sb  Sb66  1  0.60348400  0.78338900  0.34744700  1
  Sb  Sb67  1  0.39651600  0.21661100  0.34744700  1
  Sb  Sb68  1  0.28338900  0.39651600  0.09744700  1
  Sb  Sb69  1  0.78338900  0.10348400  0.09744700  1
  Sb  Sb70  1  0.60348400  0.21661100  0.84744700  1
  Sb  Sb71  1  0.21661100  0.10348400  0.59744700  1
  Sb  Sb72  1  0.21661100  0.89651600  0.09744700  1
  Sb  Sb73  1  0.39651600  0.78338900  0.84744700  1
  Sb  Sb74  1  0.10348400  0.28338900  0.84744700  1
  Sb  Sb75  1  0.89651600  0.71661100  0.84744700  1
  Sb  Sb76  1  0.78338900  0.89651600  0.59744700  1
  Sb  Sb77  1  0.28338900  0.60348400  0.59744700  1
  Sb  Sb78  1  0.10348400  0.71661100  0.34744700  1
  Sb  Sb79  1  0.71661100  0.60348400  0.09744700  1
  S  S80  1  0.47302900  0.17384900  0.19913500  1
  S  S81  1  0.17230400  0.84032300  0.21085900  1
  S  S82  1  0.02322400  0.82725900  0.04337000  1
  S  S83  1  0.83989800  0.24733400  0.62304900  1
  S  S84  1  0.32615100  0.47302900  0.94913500  1
  S  S85  1  0.17384900  0.02697100  0.44913500  1
  S  S86  1  0.46261100  0.35357900  0.37914200  1
  S  S87  1  0.34731800  0.53925700  0.12165600  1
  S  S88  1  0.33989800  0.25266600  0.62304900  1
  S  S89  1  0.97302900  0.32615100  0.19913500  1
  S  S90  1  0.15651800  0.16642500  0.28247100  1
  S  S91  1  0.02322400  0.17274100  0.54337000  1
  S  S92  1  0.64642100  0.03738900  0.12914200  1
  S  S93  1  0.53738900  0.35357900  0.87914200  1
  S  S94  1  0.16642500  0.65651800  0.03247100  1
  S  S95  1  0.65967700  0.17230400  0.96085900  1
  S  S96  1  0.52697100  0.82615100  0.19913500  1
  S  S97  1  0.96261100  0.14642100  0.37914200  1
  S  S98  1  0.34032300  0.17230400  0.46085900  1
  S  S99  1  0.15967700  0.32769600  0.96085900  1
  S  S100  1  0.33357500  0.15651800  0.03247100  1
  S  S101  1  0.67384900  0.47302900  0.44913500  1
  S  S102  1  0.35357900  0.03738900  0.62914200  1
  S  S103  1  0.84731800  0.96074300  0.12165600  1
  S  S104  1  0.00000000  0.00000000  0.74946350  1
  S  S105  1  0.15268200  0.03925700  0.12165600  1
  S  S106  1  0.32769600  0.34032300  0.21085900  1
  S  S107  1  0.84032300  0.32769600  0.46085900  1
  S  S108  1  0.82725900  0.47677600  0.29337000  1
  S  S109  1  0.16642500  0.34348200  0.53247100  1
  S  S110  1  0.03925700  0.34731800  0.37165600  1
  S  S111  1  0.46074300  0.15268200  0.87165600  1
  S  S112  1  0.35357900  0.96261100  0.12914200  1
  S  S113  1  0.67274100  0.97677600  0.29337000  1
  S  S114  1  0.25266600  0.83989800  0.37304900  1
  S  S115  1  0.32725900  0.02322400  0.29337000  1
  S  S116  1  0.02697100  0.67384900  0.19913500  1
  S  S117  1  0.46074300  0.84731800  0.37165600  1
  S  S118  1  0.16010200  0.24733400  0.12304900  1
  S  S119  1  0.50000000  0.00000000  0.49946350  1
  S  S120  1  0.84348200  0.16642500  0.78247100  1
  S  S121  1  0.00000000  0.50000000  0.49946350  1
  S  S122  1  0.15268200  0.96074300  0.62165600  1
  S  S123  1  0.14642100  0.46261100  0.12914200  1
  S  S124  1  0.17274100  0.52322400  0.29337000  1
  S  S125  1  0.25266600  0.16010200  0.87304900  1
  S  S126  1  0.66010200  0.25266600  0.12304900  1
  S  S127  1  0.24733400  0.66010200  0.87304900  1
  S  S128  1  0.53738900  0.64642100  0.37914200  1
  S  S129  1  0.24733400  0.33989800  0.37304900  1
  S  S130  1  0.32615100  0.52697100  0.44913500  1
  S  S131  1  0.97677600  0.17274100  0.04337000  1
  S  S132  1  0.33357500  0.84348200  0.53247100  1
  S  S133  1  0.32769600  0.65967700  0.71085900  1
  S  S134  1  0.65651800  0.33357500  0.28247100  1
  S  S135  1  0.47677600  0.32725900  0.04337000  1
  S  S136  1  0.00000000  0.00000000  0.24946350  1
  S  S137  1  0.17230400  0.15967700  0.71085900  1
  S  S138  1  0.34348200  0.33357500  0.78247100  1
  S  S139  1  0.53925700  0.15268200  0.37165600  1
  S  S140  1  0.97302900  0.67384900  0.69913500  1
  S  S141  1  0.67230400  0.34032300  0.71085900  1
  S  S142  1  0.52322400  0.32725900  0.54337000  1
  S  S143  1  0.33989800  0.74733400  0.12304900  1
  S  S144  1  0.82615100  0.97302900  0.44913500  1
  S  S145  1  0.67384900  0.52697100  0.94913500  1
  S  S146  1  0.96261100  0.85357900  0.87914200  1
  S  S147  1  0.84731800  0.03925700  0.62165600  1
  S  S148  1  0.83989800  0.75266600  0.12304900  1
  S  S149  1  0.47302900  0.82615100  0.69913500  1
  S  S150  1  0.65651800  0.66642500  0.78247100  1
  S  S151  1  0.52322400  0.67274100  0.04337000  1
  S  S152  1  0.14642100  0.53738900  0.62914200  1
  S  S153  1  0.03738900  0.85357900  0.37914200  1
  S  S154  1  0.66642500  0.15651800  0.53247100  1
  S  S155  1  0.15967700  0.67230400  0.46085900  1
  S  S156  1  0.02697100  0.32615100  0.69913500  1
  S  S157  1  0.46261100  0.64642100  0.87914200  1
  S  S158  1  0.84032300  0.67230400  0.96085900  1
  S  S159  1  0.65967700  0.82769600  0.46085900  1
  S  S160  1  0.83357500  0.65651800  0.53247100  1
  S  S161  1  0.17384900  0.97302900  0.94913500  1
  S  S162  1  0.85357900  0.53738900  0.12914200  1
  S  S163  1  0.34731800  0.46074300  0.62165600  1
  S  S164  1  0.50000000  0.50000000  0.24946350  1
  S  S165  1  0.65268200  0.53925700  0.62165600  1
  S  S166  1  0.82769600  0.84032300  0.71085900  1
  S  S167  1  0.34032300  0.82769600  0.96085900  1
  S  S168  1  0.32725900  0.97677600  0.79337000  1
  S  S169  1  0.66642500  0.84348200  0.03247100  1
  S  S170  1  0.53925700  0.84731800  0.87165600  1
  S  S171  1  0.96074300  0.65268200  0.37165600  1
  S  S172  1  0.85357900  0.46261100  0.62914200  1
  S  S173  1  0.17274100  0.47677600  0.79337000  1
  S  S174  1  0.75266600  0.33989800  0.87304900  1
  S  S175  1  0.82725900  0.52322400  0.79337000  1
  S  S176  1  0.52697100  0.17384900  0.69913500  1
  S  S177  1  0.96074300  0.34731800  0.87165600  1
  S  S178  1  0.66010200  0.74733400  0.62304900  1
  S  S179  1  0.00000000  0.50000000  0.99946350  1
  S  S180  1  0.34348200  0.66642500  0.28247100  1
  S  S181  1  0.50000000  0.00000000  0.99946350  1
  S  S182  1  0.65268200  0.46074300  0.12165600  1
  S  S183  1  0.64642100  0.96261100  0.62914200  1
  S  S184  1  0.67274100  0.02322400  0.79337000  1
  S  S185  1  0.75266600  0.66010200  0.37304900  1
  S  S186  1  0.16010200  0.75266600  0.62304900  1
  S  S187  1  0.74733400  0.16010200  0.37304900  1
  S  S188  1  0.03738900  0.14642100  0.87914200  1
  S  S189  1  0.74733400  0.83989800  0.87304900  1
  S  S190  1  0.82615100  0.02697100  0.94913500  1
  S  S191  1  0.47677600  0.67274100  0.54337000  1
  S  S192  1  0.83357500  0.34348200  0.03247100  1
  S  S193  1  0.82769600  0.15967700  0.21085900  1
  S  S194  1  0.15651800  0.83357500  0.78247100  1
  S  S195  1  0.97677600  0.82725900  0.54337000  1
  S  S196  1  0.50000000  0.50000000  0.74946350  1
  S  S197  1  0.67230400  0.65967700  0.21085900  1
  S  S198  1  0.84348200  0.83357500  0.28247100  1
  S  S199  1  0.03925700  0.65268200  0.87165600  1
