# generated using pymatgen
data_CaNb2P2O11
_symmetry_space_group_name_H-M   'P 1'
_cell_length_a   15.14208000
_cell_length_b   10.97624000
_cell_length_c   5.29637405
_cell_angle_alpha   90.00000000
_cell_angle_beta   93.62538518
_cell_angle_gamma   90.00000000
_symmetry_Int_Tables_number   1
_chemical_formula_structural   CaNb2P2O11
_chemical_formula_sum   'Ca4 Nb8 P8 O44'
_cell_volume   878.51221299
_cell_formula_units_Z   4
loop_
 _symmetry_equiv_pos_site_id
 _symmetry_equiv_pos_as_xyz
  1  'x, y, z'
loop_
 _atom_site_type_symbol
 _atom_site_label
 _atom_site_symmetry_multiplicity
 _atom_site_fract_x
 _atom_site_fract_y
 _atom_site_fract_z
 _atom_site_occupancy
  Ca  Ca0  1  0.50000000  0.89422900  0.25000000  1
  Ca  Ca1  1  0.50000000  0.10577100  0.75000000  1
  Ca  Ca2  1  0.00000000  0.39422900  0.25000000  1
  Ca  Ca3  1  0.00000000  0.60577100  0.75000000  1
  Nb  Nb4  1  0.87475050  0.12021650  0.26154100  1
  Nb  Nb5  1  0.87475050  0.87978350  0.76154100  1
  Nb  Nb6  1  0.12524950  0.12021650  0.23845900  1
  Nb  Nb7  1  0.12524950  0.87978350  0.73845900  1
  Nb  Nb8  1  0.37475050  0.62021650  0.26154100  1
  Nb  Nb9  1  0.37475050  0.37978350  0.76154100  1
  Nb  Nb10  1  0.62524950  0.62021650  0.23845900  1
  Nb  Nb11  1  0.62524950  0.37978350  0.73845900  1
  P  P12  1  0.64696150  0.16716650  0.24523700  1
  P  P13  1  0.35303850  0.83283350  0.75476300  1
  P  P14  1  0.35303850  0.16716650  0.25476300  1
  P  P15  1  0.64696150  0.83283350  0.74523700  1
  P  P16  1  0.14696150  0.66716650  0.24523700  1
  P  P17  1  0.85303850  0.33283350  0.75476300  1
  P  P18  1  0.85303850  0.66716650  0.25476300  1
  P  P19  1  0.14696150  0.33283350  0.74523700  1
  O  O20  1  0.64861300  0.72567900  0.55307100  1
  O  O21  1  0.88671400  0.02429700  0.57257900  1
  O  O22  1  0.64861300  0.27432100  0.05307100  1
  O  O23  1  0.38179100  0.78650500  0.49504300  1
  O  O24  1  0.50000000  0.66619500  0.25000000  1
  O  O25  1  0.38179100  0.21349500  0.99504300  1
  O  O26  1  0.61820900  0.78650500  0.00495700  1
  O  O27  1  0.74313850  0.88293950  0.78586700  1
  O  O28  1  0.11328600  0.97570300  0.42742100  1
  O  O29  1  0.88671400  0.97570300  0.07257900  1
  O  O30  1  0.35138700  0.72567900  0.94692900  1
  O  O31  1  0.41576800  0.06910300  0.36528200  1
  O  O32  1  0.58423200  0.06910300  0.13471800  1
  O  O33  1  0.25686150  0.88293950  0.71413300  1
  O  O34  1  0.50000000  0.33380500  0.75000000  1
  O  O35  1  0.11328600  0.02429700  0.92742100  1
  O  O36  1  0.61820900  0.21349500  0.50495700  1
  O  O37  1  0.25686150  0.11706050  0.21413300  1
  O  O38  1  0.41576800  0.93089700  0.86528200  1
  O  O39  1  0.35138700  0.27432100  0.44692900  1
  O  O40  1  0.58423200  0.93089700  0.63471800  1
  O  O41  1  0.74313850  0.11706050  0.28586700  1
  O  O42  1  0.14861300  0.22567900  0.55307100  1
  O  O43  1  0.38671400  0.52429700  0.57257900  1
  O  O44  1  0.14861300  0.77432100  0.05307100  1
  O  O45  1  0.88179100  0.28650500  0.49504300  1
  O  O46  1  0.00000000  0.16619500  0.25000000  1
  O  O47  1  0.88179100  0.71349500  0.99504300  1
  O  O48  1  0.11820900  0.28650500  0.00495700  1
  O  O49  1  0.24313850  0.38293950  0.78586700  1
  O  O50  1  0.61328600  0.47570300  0.42742100  1
  O  O51  1  0.38671400  0.47570300  0.07257900  1
  O  O52  1  0.85138700  0.22567900  0.94692900  1
  O  O53  1  0.91576800  0.56910300  0.36528200  1
  O  O54  1  0.08423200  0.56910300  0.13471800  1
  O  O55  1  0.75686150  0.38293950  0.71413300  1
  O  O56  1  0.00000000  0.83380500  0.75000000  1
  O  O57  1  0.61328600  0.52429700  0.92742100  1
  O  O58  1  0.11820900  0.71349500  0.50495700  1
  O  O59  1  0.75686150  0.61706050  0.21413300  1
  O  O60  1  0.91576800  0.43089700  0.86528200  1
  O  O61  1  0.85138700  0.77432100  0.44692900  1
  O  O62  1  0.08423200  0.43089700  0.63471800  1
  O  O63  1  0.24313850  0.61706050  0.28586700  1
