# generated using pymatgen
data_HgNO2
_symmetry_space_group_name_H-M   'P 1'
_cell_length_a   4.66116700
_cell_length_b   10.74107000
_cell_length_c   6.58884548
_cell_angle_alpha   90.00000000
_cell_angle_beta   109.73845084
_cell_angle_gamma   90.00000000
_symmetry_Int_Tables_number   1
_chemical_formula_structural   HgNO2
_chemical_formula_sum   'Hg4 N4 O8'
_cell_volume   310.49442323
_cell_formula_units_Z   4
loop_
 _symmetry_equiv_pos_site_id
 _symmetry_equiv_pos_as_xyz
  1  'x, y, z'
loop_
 _atom_site_type_symbol
 _atom_site_label
 _atom_site_symmetry_multiplicity
 _atom_site_fract_x
 _atom_site_fract_y
 _atom_site_fract_z
 _atom_site_occupancy
  Hg  Hg0  1  0.84858500  0.08173200  0.85493100  1
  Hg  Hg1  1  0.15141500  0.58173200  0.64506900  1
  Hg  Hg2  1  0.15141500  0.91826800  0.14506900  1
  Hg  Hg3  1  0.84858500  0.41826800  0.35493100  1
  N  N4  1  0.34668700  0.20460900  0.51979400  1
  N  N5  1  0.65331300  0.70460900  0.98020600  1
  N  N6  1  0.65331300  0.79539100  0.48020600  1
  N  N7  1  0.34668700  0.29539100  0.01979400  1
  O  O8  1  0.62543200  0.23765900  0.60626600  1
  O  O9  1  0.37456800  0.73765900  0.89373400  1
  O  O10  1  0.37456800  0.76234100  0.39373400  1
  O  O11  1  0.62543200  0.26234100  0.10626600  1
  O  O12  1  0.27645500  0.10305800  0.58101200  1
  O  O13  1  0.72354500  0.60305800  0.91898800  1
  O  O14  1  0.72354500  0.89694200  0.41898800  1
  O  O15  1  0.27645500  0.39694200  0.08101200  1
