# generated using pymatgen
data_Cd2PO4F
_symmetry_space_group_name_H-M   'P 1'
_cell_length_a   14.16589600
_cell_length_b   6.81228000
_cell_length_c   10.73329625
_cell_angle_alpha   90.00000000
_cell_angle_beta   121.38632512
_cell_angle_gamma   90.00000000
_symmetry_Int_Tables_number   1
_chemical_formula_structural   Cd2PO4F
_chemical_formula_sum   'Cd16 P8 O32 F8'
_cell_volume   884.22396566
_cell_formula_units_Z   8
loop_
 _symmetry_equiv_pos_site_id
 _symmetry_equiv_pos_as_xyz
  1  'x, y, z'
loop_
 _atom_site_type_symbol
 _atom_site_label
 _atom_site_symmetry_multiplicity
 _atom_site_fract_x
 _atom_site_fract_y
 _atom_site_fract_z
 _atom_site_occupancy
  Cd  Cd0  1  0.34134250  0.40082350  0.65295100  1
  Cd  Cd1  1  0.34134250  0.59917650  0.15295100  1
  Cd  Cd2  1  0.55256500  0.23879400  0.48558700  1
  Cd  Cd3  1  0.55256500  0.76120600  0.98558700  1
  Cd  Cd4  1  0.44743500  0.76120600  0.51441300  1
  Cd  Cd5  1  0.65865750  0.59917650  0.34704900  1
  Cd  Cd6  1  0.44743500  0.23879400  0.01441300  1
  Cd  Cd7  1  0.65865750  0.40082350  0.84704900  1
  Cd  Cd8  1  0.84134250  0.90082350  0.65295100  1
  Cd  Cd9  1  0.84134250  0.09917650  0.15295100  1
  Cd  Cd10  1  0.05256500  0.73879400  0.48558700  1
  Cd  Cd11  1  0.05256500  0.26120600  0.98558700  1
  Cd  Cd12  1  0.94743500  0.26120600  0.51441300  1
  Cd  Cd13  1  0.15865750  0.09917650  0.34704900  1
  Cd  Cd14  1  0.94743500  0.73879400  0.01441300  1
  Cd  Cd15  1  0.15865750  0.90082350  0.84704900  1
  P  P16  1  0.17621450  0.58884750  0.30546200  1
  P  P17  1  0.67621450  0.91115250  0.80546200  1
  P  P18  1  0.32378550  0.08884750  0.19453800  1
  P  P19  1  0.82378550  0.41115250  0.69453800  1
  P  P20  1  0.67621450  0.08884750  0.30546200  1
  P  P21  1  0.17621450  0.41115250  0.80546200  1
  P  P22  1  0.82378550  0.58884750  0.19453800  1
  P  P23  1  0.32378550  0.91115250  0.69453800  1
  O  O24  1  0.69096700  0.91955100  0.41177900  1
  O  O25  1  0.30903300  0.91955100  0.08822100  1
  O  O26  1  0.78798350  0.86168450  0.81815200  1
  O  O27  1  0.28798350  0.63831550  0.31815200  1
  O  O28  1  0.69096700  0.08044900  0.91177900  1
  O  O29  1  0.91060850  0.46778650  0.85497100  1
  O  O30  1  0.21201650  0.13831550  0.18184800  1
  O  O31  1  0.08939150  0.53221350  0.14502900  1
  O  O32  1  0.63255650  0.72844350  0.84819100  1
  O  O33  1  0.36744350  0.72844350  0.65180900  1
  O  O34  1  0.41060850  0.03221350  0.35497100  1
  O  O35  1  0.30903300  0.08044900  0.58822100  1
  O  O36  1  0.63255650  0.27155650  0.34819100  1
  O  O37  1  0.36744350  0.27155650  0.15180900  1
  O  O38  1  0.71201650  0.36168450  0.68184800  1
  O  O39  1  0.58939150  0.96778650  0.64502900  1
  O  O40  1  0.19096700  0.41955100  0.41177900  1
  O  O41  1  0.80903300  0.41955100  0.08822100  1
  O  O42  1  0.28798350  0.36168450  0.81815200  1
  O  O43  1  0.78798350  0.13831550  0.31815200  1
  O  O44  1  0.19096700  0.58044900  0.91177900  1
  O  O45  1  0.41060850  0.96778650  0.85497100  1
  O  O46  1  0.71201650  0.63831550  0.18184800  1
  O  O47  1  0.58939150  0.03221350  0.14502900  1
  O  O48  1  0.13255650  0.22844350  0.84819100  1
  O  O49  1  0.86744350  0.22844350  0.65180900  1
  O  O50  1  0.91060850  0.53221350  0.35497100  1
  O  O51  1  0.80903300  0.58044900  0.58822100  1
  O  O52  1  0.13255650  0.77155650  0.34819100  1
  O  O53  1  0.86744350  0.77155650  0.15180900  1
  O  O54  1  0.21201650  0.86168450  0.68184800  1
  O  O55  1  0.08939150  0.46778650  0.64502900  1
  F  F56  1  0.48620900  0.58459500  0.10890300  1
  F  F57  1  0.51379100  0.41540500  0.89109700  1
  F  F58  1  0.48620900  0.41540500  0.60890300  1
  F  F59  1  0.51379100  0.58459500  0.39109700  1
  F  F60  1  0.98620900  0.08459500  0.10890300  1
  F  F61  1  0.01379100  0.91540500  0.89109700  1
  F  F62  1  0.98620900  0.91540500  0.60890300  1
  F  F63  1  0.01379100  0.08459500  0.39109700  1
