# generated using pymatgen
data_Sr2NF
_symmetry_space_group_name_H-M   'P 1'
_cell_length_a   15.34843600
_cell_length_b   21.59920800
_cell_length_c   7.60257400
_cell_angle_alpha   90.00000000
_cell_angle_beta   90.00000000
_cell_angle_gamma   90.00000000
_symmetry_Int_Tables_number   1
_chemical_formula_structural   Sr2NF
_chemical_formula_sum   'Sr64 N32 F32'
_cell_volume   2520.36018565
_cell_formula_units_Z   32
loop_
 _symmetry_equiv_pos_site_id
 _symmetry_equiv_pos_as_xyz
  1  'x, y, z'
loop_
 _atom_site_type_symbol
 _atom_site_label
 _atom_site_symmetry_multiplicity
 _atom_site_fract_x
 _atom_site_fract_y
 _atom_site_fract_z
 _atom_site_occupancy
  Sr  Sr0  1  0.50000000  0.86906600  0.51508600  1
  Sr  Sr1  1  0.35660350  0.00449150  0.25000000  1
  Sr  Sr2  1  0.64339650  0.00449150  0.25000000  1
  Sr  Sr3  1  0.24871650  0.12113250  0.01784600  1
  Sr  Sr4  1  0.75128350  0.12113250  0.01784600  1
  Sr  Sr5  1  0.50000000  0.13093400  0.01508600  1
  Sr  Sr6  1  0.50000000  0.86906600  0.98491400  1
  Sr  Sr7  1  0.38485150  0.75541650  0.75000000  1
  Sr  Sr8  1  0.61582350  0.25497450  0.75000000  1
  Sr  Sr9  1  0.38417650  0.25497450  0.75000000  1
  Sr  Sr10  1  0.61514850  0.75541650  0.75000000  1
  Sr  Sr11  1  0.64339650  0.99550850  0.75000000  1
  Sr  Sr12  1  0.35660350  0.99550850  0.75000000  1
  Sr  Sr13  1  0.50000000  0.36945900  0.51825600  1
  Sr  Sr14  1  0.24871650  0.87886750  0.51784600  1
  Sr  Sr15  1  0.75128350  0.87886750  0.51784600  1
  Sr  Sr16  1  0.75128350  0.12113250  0.48215400  1
  Sr  Sr17  1  0.24871650  0.12113250  0.48215400  1
  Sr  Sr18  1  0.50000000  0.13093400  0.48491400  1
  Sr  Sr19  1  0.13176800  0.00536800  0.25000000  1
  Sr  Sr20  1  0.86823200  0.00536800  0.25000000  1
  Sr  Sr21  1  0.38417650  0.74502550  0.25000000  1
  Sr  Sr22  1  0.61514850  0.24458350  0.25000000  1
  Sr  Sr23  1  0.38485150  0.24458350  0.25000000  1
  Sr  Sr24  1  0.61582350  0.74502550  0.25000000  1
  Sr  Sr25  1  0.50000000  0.63054100  0.01825600  1
  Sr  Sr26  1  0.50000000  0.36945900  0.98174400  1
  Sr  Sr27  1  0.24871650  0.87886750  0.98215400  1
  Sr  Sr28  1  0.75128350  0.87886750  0.98215400  1
  Sr  Sr29  1  0.13176800  0.99463200  0.75000000  1
  Sr  Sr30  1  0.86823200  0.99463200  0.75000000  1
  Sr  Sr31  1  0.50000000  0.63054100  0.48174400  1
  Sr  Sr32  1  0.00000000  0.36906600  0.51508600  1
  Sr  Sr33  1  0.85660350  0.50449150  0.25000000  1
  Sr  Sr34  1  0.14339650  0.50449150  0.25000000  1
  Sr  Sr35  1  0.74871650  0.62113250  0.01784600  1
  Sr  Sr36  1  0.25128350  0.62113250  0.01784600  1
  Sr  Sr37  1  0.00000000  0.63093400  0.01508600  1
  Sr  Sr38  1  0.00000000  0.36906600  0.98491400  1
  Sr  Sr39  1  0.88485150  0.25541650  0.75000000  1
  Sr  Sr40  1  0.11582350  0.75497450  0.75000000  1
  Sr  Sr41  1  0.88417650  0.75497450  0.75000000  1
  Sr  Sr42  1  0.11514850  0.25541650  0.75000000  1
  Sr  Sr43  1  0.14339650  0.49550850  0.75000000  1
  Sr  Sr44  1  0.85660350  0.49550850  0.75000000  1
  Sr  Sr45  1  0.00000000  0.86945900  0.51825600  1
  Sr  Sr46  1  0.74871650  0.37886750  0.51784600  1
  Sr  Sr47  1  0.25128350  0.37886750  0.51784600  1
  Sr  Sr48  1  0.25128350  0.62113250  0.48215400  1
  Sr  Sr49  1  0.74871650  0.62113250  0.48215400  1
  Sr  Sr50  1  0.00000000  0.63093400  0.48491400  1
  Sr  Sr51  1  0.63176800  0.50536800  0.25000000  1
  Sr  Sr52  1  0.36823200  0.50536800  0.25000000  1
  Sr  Sr53  1  0.88417650  0.24502550  0.25000000  1
  Sr  Sr54  1  0.11514850  0.74458350  0.25000000  1
  Sr  Sr55  1  0.88485150  0.74458350  0.25000000  1
  Sr  Sr56  1  0.11582350  0.24502550  0.25000000  1
  Sr  Sr57  1  0.00000000  0.13054100  0.01825600  1
  Sr  Sr58  1  0.00000000  0.86945900  0.98174400  1
  Sr  Sr59  1  0.74871650  0.37886750  0.98215400  1
  Sr  Sr60  1  0.25128350  0.37886750  0.98215400  1
  Sr  Sr61  1  0.63176800  0.49463200  0.75000000  1
  Sr  Sr62  1  0.36823200  0.49463200  0.75000000  1
  Sr  Sr63  1  0.00000000  0.13054100  0.48174400  1
  N  N64  1  0.50000000  0.75051000  0.99950500  1
  N  N65  1  0.50000000  0.75051000  0.50049500  1
  N  N66  1  0.24707700  0.00000000  0.00000000  1
  N  N67  1  0.75292300  0.00000000  0.00000000  1
  N  N68  1  0.62406350  0.87639350  0.75000000  1
  N  N69  1  0.37593650  0.87639350  0.75000000  1
  N  N70  1  0.50000000  0.24949000  0.49950500  1
  N  N71  1  0.75292300  0.00000000  0.50000000  1
  N  N72  1  0.24707700  0.00000000  0.50000000  1
  N  N73  1  0.62406350  0.12360650  0.25000000  1
  N  N74  1  0.37593650  0.12360650  0.25000000  1
  N  N75  1  0.62388200  0.62462300  0.25000000  1
  N  N76  1  0.37611800  0.62462300  0.25000000  1
  N  N77  1  0.50000000  0.24949000  0.00049500  1
  N  N78  1  0.37611800  0.37537700  0.75000000  1
  N  N79  1  0.62388200  0.37537700  0.75000000  1
  N  N80  1  0.00000000  0.25051000  0.99950500  1
  N  N81  1  0.00000000  0.25051000  0.50049500  1
  N  N82  1  0.74707700  0.50000000  0.00000000  1
  N  N83  1  0.25292300  0.50000000  0.00000000  1
  N  N84  1  0.12406350  0.37639350  0.75000000  1
  N  N85  1  0.87593650  0.37639350  0.75000000  1
  N  N86  1  0.00000000  0.74949000  0.49950500  1
  N  N87  1  0.25292300  0.50000000  0.50000000  1
  N  N88  1  0.74707700  0.50000000  0.50000000  1
  N  N89  1  0.12406350  0.62360650  0.25000000  1
  N  N90  1  0.87593650  0.62360650  0.25000000  1
  N  N91  1  0.12388200  0.12462300  0.25000000  1
  N  N92  1  0.87611800  0.12462300  0.25000000  1
  N  N93  1  0.00000000  0.74949000  0.00049500  1
  N  N94  1  0.87611800  0.87537700  0.75000000  1
  N  N95  1  0.12388200  0.87537700  0.75000000  1
  F  F96  1  0.50000000  0.95071400  0.25000000  1
  F  F97  1  0.64845650  0.86254550  0.25000000  1
  F  F98  1  0.50000000  0.04928600  0.75000000  1
  F  F99  1  0.64845650  0.13745450  0.75000000  1
  F  F100  1  0.35154350  0.13745450  0.75000000  1
  F  F101  1  0.37777350  0.62500850  0.75000000  1
  F  F102  1  0.25000000  0.25000000  0.50000000  1
  F  F103  1  0.25000000  0.75000000  0.50000000  1
  F  F104  1  0.37777350  0.37499150  0.25000000  1
  F  F105  1  0.35154350  0.86254550  0.25000000  1
  F  F106  1  0.62222650  0.37499150  0.25000000  1
  F  F107  1  0.00000000  0.00000000  0.00000000  1
  F  F108  1  0.25000000  0.75000000  0.00000000  1
  F  F109  1  0.25000000  0.25000000  0.00000000  1
  F  F110  1  0.62222650  0.62500850  0.75000000  1
  F  F111  1  0.00000000  0.00000000  0.50000000  1
  F  F112  1  0.00000000  0.45071400  0.25000000  1
  F  F113  1  0.14845650  0.36254550  0.25000000  1
  F  F114  1  0.00000000  0.54928600  0.75000000  1
  F  F115  1  0.14845650  0.63745450  0.75000000  1
  F  F116  1  0.85154350  0.63745450  0.75000000  1
  F  F117  1  0.87777350  0.12500850  0.75000000  1
  F  F118  1  0.75000000  0.75000000  0.50000000  1
  F  F119  1  0.75000000  0.25000000  0.50000000  1
  F  F120  1  0.87777350  0.87499150  0.25000000  1
  F  F121  1  0.85154350  0.36254550  0.25000000  1
  F  F122  1  0.12222650  0.87499150  0.25000000  1
  F  F123  1  0.50000000  0.50000000  0.00000000  1
  F  F124  1  0.75000000  0.25000000  0.00000000  1
  F  F125  1  0.75000000  0.75000000  0.00000000  1
  F  F126  1  0.12222650  0.12500850  0.75000000  1
  F  F127  1  0.50000000  0.50000000  0.50000000  1
