# generated using pymatgen
data_MgAl2O4
_symmetry_space_group_name_H-M   'P 1'
_cell_length_a   5.76037792
_cell_length_b   5.76037792
_cell_length_c   56.76345530
_cell_angle_alpha   90.00000000
_cell_angle_beta   90.00000000
_cell_angle_gamma   120.00000000
_symmetry_Int_Tables_number   1
_chemical_formula_structural   MgAl2O4
_chemical_formula_sum   'Mg24 Al48 O96'
_cell_volume   1631.17820500
_cell_formula_units_Z   24
loop_
 _symmetry_equiv_pos_site_id
 _symmetry_equiv_pos_as_xyz
  1  'x, y, z'
loop_
 _atom_site_type_symbol
 _atom_site_label
 _atom_site_symmetry_multiplicity
 _atom_site_fract_x
 _atom_site_fract_y
 _atom_site_fract_z
 _atom_site_occupancy
  Mg  Mg0  1  0.00000000  0.00000000  0.15540300  1
  Mg  Mg1  1  0.33333333  0.66666667  0.07195767  1
  Mg  Mg2  1  0.66666667  0.33333333  0.08299133  1
  Mg  Mg3  1  0.33333333  0.66666667  0.32204267  1
  Mg  Mg4  1  0.66666667  0.33333333  0.23932833  1
  Mg  Mg5  1  0.66666667  0.33333333  0.33269433  1
  Mg  Mg6  1  0.33333333  0.66666667  0.26114767  1
  Mg  Mg7  1  0.33333333  0.66666667  0.16628067  1
  Mg  Mg8  1  0.66666667  0.33333333  0.48873633  1
  Mg  Mg9  1  0.00000000  0.00000000  0.40529100  1
  Mg  Mg10  1  0.33333333  0.66666667  0.41632467  1
  Mg  Mg11  1  0.00000000  0.00000000  0.65537600  1
  Mg  Mg12  1  0.33333333  0.66666667  0.57266167  1
  Mg  Mg13  1  0.33333333  0.66666667  0.66602767  1
  Mg  Mg14  1  0.00000000  0.00000000  0.59448100  1
  Mg  Mg15  1  0.00000000  0.00000000  0.49961400  1
  Mg  Mg16  1  0.33333333  0.66666667  0.82206967  1
  Mg  Mg17  1  0.66666667  0.33333333  0.73862433  1
  Mg  Mg18  1  0.00000000  0.00000000  0.74965800  1
  Mg  Mg19  1  0.66666667  0.33333333  0.98870933  1
  Mg  Mg20  1  0.00000000  0.00000000  0.90599500  1
  Mg  Mg21  1  0.00000000  0.00000000  0.99936100  1
  Mg  Mg22  1  0.66666667  0.33333333  0.92781433  1
  Mg  Mg23  1  0.66666667  0.33333333  0.83294733  1
  Al  Al24  1  0.49499300  0.98998600  0.12521500  1
  Al  Al25  1  0.01001400  0.50500700  0.12521500  1
  Al  Al26  1  0.49499300  0.50500700  0.12521500  1
  Al  Al27  1  0.82876467  0.65752933  0.04191133  1
  Al  Al28  1  0.34247067  0.17123533  0.04191133  1
  Al  Al29  1  0.83055733  0.66111467  0.29159467  1
  Al  Al30  1  0.82876467  0.17123533  0.04191133  1
  Al  Al31  1  0.33888533  0.16944267  0.29159467  1
  Al  Al32  1  0.00000000  0.00000000  0.09507900  1
  Al  Al33  1  0.83055733  0.16944267  0.29159467  1
  Al  Al34  1  0.16406633  0.32813267  0.20868367  1
  Al  Al35  1  0.67186733  0.83593367  0.20868367  1
  Al  Al36  1  0.33333333  0.66666667  0.01197467  1
  Al  Al37  1  0.00000000  0.00000000  0.25053700  1
  Al  Al38  1  0.16406633  0.83593367  0.20868367  1
  Al  Al39  1  0.66666667  0.33333333  0.17750833  1
  Al  Al40  1  0.16165967  0.32331933  0.45854833  1
  Al  Al41  1  0.67668067  0.83834033  0.45854833  1
  Al  Al42  1  0.16165967  0.83834033  0.45854833  1
  Al  Al43  1  0.49543133  0.99086267  0.37524467  1
  Al  Al44  1  0.00913733  0.50456867  0.37524467  1
  Al  Al45  1  0.49722400  0.99444800  0.62492800  1
  Al  Al46  1  0.49543133  0.50456867  0.37524467  1
  Al  Al47  1  0.00555200  0.50277600  0.62492800  1
  Al  Al48  1  0.66666667  0.33333333  0.42841233  1
  Al  Al49  1  0.49722400  0.50277600  0.62492800  1
  Al  Al50  1  0.83073300  0.66146600  0.54201700  1
  Al  Al51  1  0.33853400  0.16926700  0.54201700  1
  Al  Al52  1  0.00000000  0.00000000  0.34530800  1
  Al  Al53  1  0.66666667  0.33333333  0.58387033  1
  Al  Al54  1  0.83073300  0.16926700  0.54201700  1
  Al  Al55  1  0.33333333  0.66666667  0.51084167  1
  Al  Al56  1  0.82832633  0.65665267  0.79188167  1
  Al  Al57  1  0.34334733  0.17167367  0.79188167  1
  Al  Al58  1  0.82832633  0.17167367  0.79188167  1
  Al  Al59  1  0.16209800  0.32419600  0.70857800  1
  Al  Al60  1  0.67580400  0.83790200  0.70857800  1
  Al  Al61  1  0.16389067  0.32778133  0.95826133  1
  Al  Al62  1  0.16209800  0.83790200  0.70857800  1
  Al  Al63  1  0.67221867  0.83610933  0.95826133  1
  Al  Al64  1  0.33333333  0.66666667  0.76174567  1
  Al  Al65  1  0.16389067  0.83610933  0.95826133  1
  Al  Al66  1  0.49739967  0.99479933  0.87535033  1
  Al  Al67  1  0.00520067  0.50260033  0.87535033  1
  Al  Al68  1  0.66666667  0.33333333  0.67864133  1
  Al  Al69  1  0.33333333  0.66666667  0.91720367  1
  Al  Al70  1  0.49739967  0.50260033  0.87535033  1
  Al  Al71  1  0.00000000  0.00000000  0.84417500  1
  O  O72  1  0.18032867  0.81967133  0.14326933  1
  O  O73  1  0.63934267  0.81967133  0.14326933  1
  O  O74  1  0.33333333  0.66666667  0.10668767  1
  O  O75  1  0.18032867  0.36065733  0.14326933  1
  O  O76  1  0.51378800  0.48621200  0.05979200  1
  O  O77  1  0.82696667  0.65393333  0.10613333  1
  O  O78  1  0.34606667  0.17303333  0.10613333  1
  O  O79  1  0.97242400  0.48621200  0.05979200  1
  O  O80  1  0.66666667  0.33333333  0.02330533  1
  O  O81  1  0.66666667  0.33333333  0.14454633  1
  O  O82  1  0.51378800  0.02757600  0.05979200  1
  O  O83  1  0.82696667  0.17303333  0.10613333  1
  O  O84  1  0.51274467  0.48725533  0.30923333  1
  O  O85  1  0.15965200  0.31930400  0.02283500  1
  O  O86  1  0.68069600  0.84034800  0.02283500  1
  O  O87  1  0.00000000  0.00000000  0.06165500  1
  O  O88  1  0.97451067  0.48725533  0.30923333  1
  O  O89  1  0.66666667  0.33333333  0.27330533  1
  O  O90  1  0.51274467  0.02548933  0.30923333  1
  O  O91  1  0.15965200  0.84034800  0.02283500  1
  O  O92  1  0.85250000  0.14750000  0.22825900  1
  O  O93  1  0.14620700  0.29241400  0.27211500  1
  O  O94  1  0.70758600  0.85379300  0.27211500  1
  O  O95  1  0.00000000  0.00000000  0.31246700  1
  O  O96  1  0.00000000  0.00000000  0.19070700  1
  O  O97  1  0.29500000  0.14750000  0.22825900  1
  O  O98  1  0.14620700  0.85379300  0.27211500  1
  O  O99  1  0.85250000  0.70500000  0.22825900  1
  O  O100  1  0.49694333  0.99388667  0.18944467  1
  O  O101  1  0.00611333  0.50305667  0.18944467  1
  O  O102  1  0.33333333  0.66666667  0.22492067  1
  O  O103  1  0.49694333  0.50305667  0.18944467  1
  O  O104  1  0.84699533  0.15300467  0.47660267  1
  O  O105  1  0.30600933  0.15300467  0.47660267  1
  O  O106  1  0.00000000  0.00000000  0.44002100  1
  O  O107  1  0.84699533  0.69399067  0.47660267  1
  O  O108  1  0.18045467  0.81954533  0.39312533  1
  O  O109  1  0.49363333  0.98726667  0.43946667  1
  O  O110  1  0.01273333  0.50636667  0.43946667  1
  O  O111  1  0.63909067  0.81954533  0.39312533  1
  O  O112  1  0.33333333  0.66666667  0.35663867  1
  O  O113  1  0.33333333  0.66666667  0.47787967  1
  O  O114  1  0.18045467  0.36090933  0.39312533  1
  O  O115  1  0.49363333  0.50636667  0.43946667  1
  O  O116  1  0.17941133  0.82058867  0.64256667  1
  O  O117  1  0.82631867  0.65263733  0.35616833  1
  O  O118  1  0.34736267  0.17368133  0.35616833  1
  O  O119  1  0.66666667  0.33333333  0.39498833  1
  O  O120  1  0.64117733  0.82058867  0.64256667  1
  O  O121  1  0.33333333  0.66666667  0.60663867  1
  O  O122  1  0.17941133  0.35882267  0.64256667  1
  O  O123  1  0.82631867  0.17368133  0.35616833  1
  O  O124  1  0.51916667  0.48083333  0.56159233  1
  O  O125  1  0.81287367  0.62574733  0.60544833  1
  O  O126  1  0.37425267  0.18712633  0.60544833  1
  O  O127  1  0.66666667  0.33333333  0.64580033  1
  O  O128  1  0.66666667  0.33333333  0.52404033  1
  O  O129  1  0.96166667  0.48083333  0.56159233  1
  O  O130  1  0.81287367  0.18712633  0.60544833  1
  O  O131  1  0.51916667  0.03833333  0.56159233  1
  O  O132  1  0.16361000  0.32722000  0.52277800  1
  O  O133  1  0.67278000  0.83639000  0.52277800  1
  O  O134  1  0.00000000  0.00000000  0.55825400  1
  O  O135  1  0.16361000  0.83639000  0.52277800  1
  O  O136  1  0.51366200  0.48633800  0.80993600  1
  O  O137  1  0.97267600  0.48633800  0.80993600  1
  O  O138  1  0.66666667  0.33333333  0.77335433  1
  O  O139  1  0.51366200  0.02732400  0.80993600  1
  O  O140  1  0.84712133  0.15287867  0.72645867  1
  O  O141  1  0.16030000  0.32060000  0.77280000  1
  O  O142  1  0.67940000  0.83970000  0.77280000  1
  O  O143  1  0.30575733  0.15287867  0.72645867  1
  O  O144  1  0.00000000  0.00000000  0.68997200  1
  O  O145  1  0.00000000  0.00000000  0.81121300  1
  O  O146  1  0.84712133  0.69424267  0.72645867  1
  O  O147  1  0.16030000  0.83970000  0.77280000  1
  O  O148  1  0.84607800  0.15392200  0.97590000  1
  O  O149  1  0.49298533  0.98597067  0.68950167  1
  O  O150  1  0.01402933  0.50701467  0.68950167  1
  O  O151  1  0.33333333  0.66666667  0.72832167  1
  O  O152  1  0.30784400  0.15392200  0.97590000  1
  O  O153  1  0.00000000  0.00000000  0.93997200  1
  O  O154  1  0.84607800  0.69215600  0.97590000  1
  O  O155  1  0.49298533  0.50701467  0.68950167  1
  O  O156  1  0.18583333  0.81416667  0.89492567  1
  O  O157  1  0.47954033  0.95908067  0.93878167  1
  O  O158  1  0.04091933  0.52045967  0.93878167  1
  O  O159  1  0.33333333  0.66666667  0.97913367  1
  O  O160  1  0.33333333  0.66666667  0.85737367  1
  O  O161  1  0.62833333  0.81416667  0.89492567  1
  O  O162  1  0.47954033  0.52045967  0.93878167  1
  O  O163  1  0.18583333  0.37166667  0.89492567  1
  O  O164  1  0.83027667  0.66055333  0.85611133  1
  O  O165  1  0.33944667  0.16972333  0.85611133  1
  O  O166  1  0.66666667  0.33333333  0.89158733  1
  O  O167  1  0.83027667  0.16972333  0.85611133  1
