# generated using pymatgen
data_CuBi3PbS6
_symmetry_space_group_name_H-M   'P 1'
_cell_length_a   4.04192200
_cell_length_b   11.15923500
_cell_length_c   11.80751300
_cell_angle_alpha   90.00000000
_cell_angle_beta   90.00000000
_cell_angle_gamma   90.00000000
_symmetry_Int_Tables_number   1
_chemical_formula_structural   CuBi3PbS6
_chemical_formula_sum   'Cu2 Bi6 Pb2 S12'
_cell_volume   532.57500995
_cell_formula_units_Z   2
loop_
 _symmetry_equiv_pos_site_id
 _symmetry_equiv_pos_as_xyz
  1  'x, y, z'
loop_
 _atom_site_type_symbol
 _atom_site_label
 _atom_site_symmetry_multiplicity
 _atom_site_fract_x
 _atom_site_fract_y
 _atom_site_fract_z
 _atom_site_occupancy
  Cu  Cu0  1  0.00000000  0.46085100  0.63924200  1
  Cu  Cu1  1  0.00000000  0.53914900  0.13924200  1
  Bi  Bi2  1  0.00000000  0.92186800  0.42721200  1
  Bi  Bi3  1  0.00000000  0.07813200  0.92721200  1
  Bi  Bi4  1  0.50000000  0.56499900  0.39367400  1
  Bi  Bi5  1  0.50000000  0.43500100  0.89367400  1
  Bi  Bi6  1  0.50000000  0.21295900  0.56220900  1
  Bi  Bi7  1  0.50000000  0.78704100  0.06220900  1
  Pb  Pb8  1  0.00000000  0.25314600  0.23425800  1
  Pb  Pb9  1  0.00000000  0.74685400  0.73425800  1
  S  S10  1  0.50000000  0.79869700  0.52873200  1
  S  S11  1  0.50000000  0.20130300  0.02873200  1
  S  S12  1  0.50000000  0.10714000  0.36358500  1
  S  S13  1  0.50000000  0.89286000  0.86358500  1
  S  S14  1  0.50000000  0.44869800  0.19298200  1
  S  S15  1  0.50000000  0.55130200  0.69298200  1
  S  S16  1  0.00000000  0.68902200  0.28853000  1
  S  S17  1  0.00000000  0.31097800  0.78853000  1
  S  S18  1  0.00000000  0.37807400  0.45909700  1
  S  S19  1  0.00000000  0.62192600  0.95909700  1
  S  S20  1  0.00000000  0.05580700  0.62143000  1
  S  S21  1  0.00000000  0.94419300  0.12143000  1
