# generated using pymatgen
data_RbPS3
_symmetry_space_group_name_H-M   'P 1'
_cell_length_a   7.20444600
_cell_length_b   9.02729800
_cell_length_c   9.47849400
_cell_angle_alpha   90.00000000
_cell_angle_beta   90.00000000
_cell_angle_gamma   90.00000000
_symmetry_Int_Tables_number   1
_chemical_formula_structural   RbPS3
_chemical_formula_sum   'Rb4 P4 S12'
_cell_volume   616.44979032
_cell_formula_units_Z   4
loop_
 _symmetry_equiv_pos_site_id
 _symmetry_equiv_pos_as_xyz
  1  'x, y, z'
loop_
 _atom_site_type_symbol
 _atom_site_label
 _atom_site_symmetry_multiplicity
 _atom_site_fract_x
 _atom_site_fract_y
 _atom_site_fract_z
 _atom_site_occupancy
  Rb  Rb0  1  0.00000000  0.24172500  0.50000000  1
  Rb  Rb1  1  0.00000000  0.75827500  0.50000000  1
  Rb  Rb2  1  0.50000000  0.74172500  0.00000000  1
  Rb  Rb3  1  0.50000000  0.25827500  0.00000000  1
  P  P4  1  0.50000000  0.00000000  0.34301100  1
  P  P5  1  0.50000000  0.00000000  0.65698900  1
  P  P6  1  0.00000000  0.50000000  0.84301100  1
  P  P7  1  0.00000000  0.50000000  0.15698900  1
  S  S8  1  0.50000000  0.82623600  0.50000000  1
  S  S9  1  0.26406500  0.00000000  0.23568900  1
  S  S10  1  0.26406500  0.00000000  0.76431100  1
  S  S11  1  0.50000000  0.17376400  0.50000000  1
  S  S12  1  0.73593500  0.00000000  0.23568900  1
  S  S13  1  0.73593500  0.00000000  0.76431100  1
  S  S14  1  0.00000000  0.32623600  0.00000000  1
  S  S15  1  0.76406500  0.50000000  0.73568900  1
  S  S16  1  0.76406500  0.50000000  0.26431100  1
  S  S17  1  0.00000000  0.67376400  0.00000000  1
  S  S18  1  0.23593500  0.50000000  0.73568900  1
  S  S19  1  0.23593500  0.50000000  0.26431100  1
