# generated using pymatgen
data_K4Ba(SiO3)3
_symmetry_space_group_name_H-M   'P 1'
_cell_length_a   8.22488200
_cell_length_b   12.14117200
_cell_length_c   11.29037200
_cell_angle_alpha   90.00000000
_cell_angle_beta   90.00000000
_cell_angle_gamma   90.00000000
_symmetry_Int_Tables_number   1
_chemical_formula_structural   K4Ba(SiO3)3
_chemical_formula_sum   'K16 Ba4 Si12 O36'
_cell_volume   1127.45324031
_cell_formula_units_Z   4
loop_
 _symmetry_equiv_pos_site_id
 _symmetry_equiv_pos_as_xyz
  1  'x, y, z'
loop_
 _atom_site_type_symbol
 _atom_site_label
 _atom_site_symmetry_multiplicity
 _atom_site_fract_x
 _atom_site_fract_y
 _atom_site_fract_z
 _atom_site_occupancy
  K  K0  1  0.50000000  0.98977600  0.00000000  1
  K  K1  1  0.55072450  0.77661350  0.25000000  1
  K  K2  1  0.50000000  0.46041300  0.00000000  1
  K  K3  1  0.44927550  0.77661350  0.75000000  1
  K  K4  1  0.50000000  0.46041300  0.50000000  1
  K  K5  1  0.50000000  0.98977600  0.50000000  1
  K  K6  1  0.75889950  0.99346050  0.75000000  1
  K  K7  1  0.24110050  0.99346050  0.25000000  1
  K  K8  1  0.00000000  0.48977600  0.00000000  1
  K  K9  1  0.05072450  0.27661350  0.25000000  1
  K  K10  1  0.00000000  0.96041300  0.00000000  1
  K  K11  1  0.94927550  0.27661350  0.75000000  1
  K  K12  1  0.00000000  0.96041300  0.50000000  1
  K  K13  1  0.00000000  0.48977600  0.50000000  1
  K  K14  1  0.25889950  0.49346050  0.75000000  1
  K  K15  1  0.74110050  0.49346050  0.25000000  1
  Ba  Ba16  1  0.50309600  0.23707900  0.25000000  1
  Ba  Ba17  1  0.49690400  0.23707900  0.75000000  1
  Ba  Ba18  1  0.00309600  0.73707900  0.25000000  1
  Ba  Ba19  1  0.99690400  0.73707900  0.75000000  1
  Si  Si20  1  0.77219900  0.03555900  0.25000000  1
  Si  Si21  1  0.30302700  0.71604200  0.47294200  1
  Si  Si22  1  0.22780100  0.03555900  0.75000000  1
  Si  Si23  1  0.69697300  0.71604200  0.52705800  1
  Si  Si24  1  0.69697300  0.71604200  0.97294200  1
  Si  Si25  1  0.30302700  0.71604200  0.02705800  1
  Si  Si26  1  0.27219900  0.53555900  0.25000000  1
  Si  Si27  1  0.80302700  0.21604200  0.47294200  1
  Si  Si28  1  0.72780100  0.53555900  0.75000000  1
  Si  Si29  1  0.19697300  0.21604200  0.52705800  1
  Si  Si30  1  0.19697300  0.21604200  0.97294200  1
  Si  Si31  1  0.80302700  0.21604200  0.02705800  1
  O  O32  1  0.22545950  0.82547750  0.08604600  1
  O  O33  1  0.50000000  0.74481100  0.00000000  1
  O  O34  1  0.19269100  0.11695300  0.63197000  1
  O  O35  1  0.77454050  0.82547750  0.58604600  1
  O  O36  1  0.80730900  0.11695300  0.13197000  1
  O  O37  1  0.27877750  0.16561150  0.40852800  1
  O  O38  1  0.41882800  0.00203100  0.75000000  1
  O  O39  1  0.72122250  0.16561150  0.59147200  1
  O  O40  1  0.72122250  0.16561150  0.90852800  1
  O  O41  1  0.77454050  0.82547750  0.91395400  1
  O  O42  1  0.09411950  0.93878750  0.75000000  1
  O  O43  1  0.50000000  0.74481100  0.50000000  1
  O  O44  1  0.58117200  0.00203100  0.25000000  1
  O  O45  1  0.19269100  0.11695300  0.86803000  1
  O  O46  1  0.27877750  0.16561150  0.09147200  1
  O  O47  1  0.80730900  0.11695300  0.36803000  1
  O  O48  1  0.22545950  0.82547750  0.41395400  1
  O  O49  1  0.90588050  0.93878750  0.25000000  1
  O  O50  1  0.72545950  0.32547750  0.08604600  1
  O  O51  1  0.00000000  0.24481100  0.00000000  1
  O  O52  1  0.69269100  0.61695300  0.63197000  1
  O  O53  1  0.27454050  0.32547750  0.58604600  1
  O  O54  1  0.30730900  0.61695300  0.13197000  1
  O  O55  1  0.77877750  0.66561150  0.40852800  1
  O  O56  1  0.91882800  0.50203100  0.75000000  1
  O  O57  1  0.22122250  0.66561150  0.59147200  1
  O  O58  1  0.22122250  0.66561150  0.90852800  1
  O  O59  1  0.27454050  0.32547750  0.91395400  1
  O  O60  1  0.59411950  0.43878750  0.75000000  1
  O  O61  1  0.00000000  0.24481100  0.50000000  1
  O  O62  1  0.08117200  0.50203100  0.25000000  1
  O  O63  1  0.69269100  0.61695300  0.86803000  1
  O  O64  1  0.77877750  0.66561150  0.09147200  1
  O  O65  1  0.30730900  0.61695300  0.36803000  1
  O  O66  1  0.72545950  0.32547750  0.41395400  1
  O  O67  1  0.40588050  0.43878750  0.25000000  1
