# generated using pymatgen
data_SiO2
_symmetry_space_group_name_H-M   'P 1'
_cell_length_a   11.00819600
_cell_length_b   8.59043400
_cell_length_c   5.16230976
_cell_angle_alpha   90.00000000
_cell_angle_beta   114.44791740
_cell_angle_gamma   90.00000000
_symmetry_Int_Tables_number   1
_chemical_formula_structural   SiO2
_chemical_formula_sum   'Si8 O16'
_cell_volume   444.40396252
_cell_formula_units_Z   8
loop_
 _symmetry_equiv_pos_site_id
 _symmetry_equiv_pos_as_xyz
  1  'x, y, z'
loop_
 _atom_site_type_symbol
 _atom_site_label
 _atom_site_symmetry_multiplicity
 _atom_site_fract_x
 _atom_site_fract_y
 _atom_site_fract_z
 _atom_site_occupancy
  Si  Si0  1  0.15525450  0.89811950  0.36661600  1
  Si  Si1  1  0.84474550  0.89811950  0.13338400  1
  Si  Si2  1  0.84474550  0.10188050  0.63338400  1
  Si  Si3  1  0.15525450  0.10188050  0.86661600  1
  Si  Si4  1  0.65525450  0.39811950  0.36661600  1
  Si  Si5  1  0.34474550  0.39811950  0.13338400  1
  Si  Si6  1  0.34474550  0.60188050  0.63338400  1
  Si  Si7  1  0.65525450  0.60188050  0.86661600  1
  O  O8  1  0.25000000  0.25000000  0.00000000  1
  O  O9  1  0.25000000  0.75000000  0.50000000  1
  O  O10  1  0.81433450  0.03405050  0.89465900  1
  O  O11  1  0.18566550  0.03405050  0.60534100  1
  O  O12  1  0.50000000  0.34244800  0.25000000  1
  O  O13  1  0.50000000  0.65755200  0.75000000  1
  O  O14  1  0.81433450  0.96594950  0.39465900  1
  O  O15  1  0.18566550  0.96594950  0.10534100  1
  O  O16  1  0.75000000  0.75000000  0.00000000  1
  O  O17  1  0.75000000  0.25000000  0.50000000  1
  O  O18  1  0.31433450  0.53405050  0.89465900  1
  O  O19  1  0.68566550  0.53405050  0.60534100  1
  O  O20  1  0.00000000  0.84244800  0.25000000  1
  O  O21  1  0.00000000  0.15755200  0.75000000  1
  O  O22  1  0.31433450  0.46594950  0.39465900  1
  O  O23  1  0.68566550  0.46594950  0.10534100  1
