# generated using pymatgen
data_La5(SiN3)3
_symmetry_space_group_name_H-M   'P 1'
_cell_length_a   10.72501000
_cell_length_b   11.45871000
_cell_length_c   16.08170000
_cell_angle_alpha   90.00000000
_cell_angle_beta   90.00000000
_cell_angle_gamma   90.00000000
_symmetry_Int_Tables_number   1
_chemical_formula_structural   La5(SiN3)3
_chemical_formula_sum   'La40 Si24 N72'
_cell_volume   1976.35697287
_cell_formula_units_Z   8
loop_
 _symmetry_equiv_pos_site_id
 _symmetry_equiv_pos_as_xyz
  1  'x, y, z'
loop_
 _atom_site_type_symbol
 _atom_site_label
 _atom_site_symmetry_multiplicity
 _atom_site_fract_x
 _atom_site_fract_y
 _atom_site_fract_z
 _atom_site_occupancy
  La  La0  1  0.29057350  0.75576450  0.36931000  1
  La  La1  1  0.50000000  0.98076000  0.16213900  1
  La  La2  1  0.50000000  0.99684100  0.61372100  1
  La  La3  1  0.79223400  0.00000000  0.50000000  1
  La  La4  1  0.70942650  0.74423550  0.86931000  1
  La  La5  1  0.50000000  0.00315900  0.38627900  1
  La  La6  1  0.50000000  0.49684100  0.88627900  1
  La  La7  1  0.29057350  0.24423550  0.63069000  1
  La  La8  1  0.70942650  0.75576450  0.36931000  1
  La  La9  1  0.50000000  0.48076000  0.33786100  1
  La  La10  1  0.70942650  0.25576450  0.13069000  1
  La  La11  1  0.50000000  0.01924000  0.83786100  1
  La  La12  1  0.29057350  0.74423550  0.86931000  1
  La  La13  1  0.70776600  0.00000000  0.00000000  1
  La  La14  1  0.29223400  0.00000000  0.00000000  1
  La  La15  1  0.50000000  0.51924000  0.66213900  1
  La  La16  1  0.70942650  0.24423550  0.63069000  1
  La  La17  1  0.20776600  0.00000000  0.50000000  1
  La  La18  1  0.29057350  0.25576450  0.13069000  1
  La  La19  1  0.50000000  0.50315900  0.11372100  1
  La  La20  1  0.79057350  0.25576450  0.36931000  1
  La  La21  1  0.00000000  0.48076000  0.16213900  1
  La  La22  1  0.00000000  0.49684100  0.61372100  1
  La  La23  1  0.29223400  0.50000000  0.50000000  1
  La  La24  1  0.20942650  0.24423550  0.86931000  1
  La  La25  1  0.00000000  0.50315900  0.38627900  1
  La  La26  1  0.00000000  0.99684100  0.88627900  1
  La  La27  1  0.79057350  0.74423550  0.63069000  1
  La  La28  1  0.20942650  0.25576450  0.36931000  1
  La  La29  1  0.00000000  0.98076000  0.33786100  1
  La  La30  1  0.20942650  0.75576450  0.13069000  1
  La  La31  1  0.00000000  0.51924000  0.83786100  1
  La  La32  1  0.79057350  0.24423550  0.86931000  1
  La  La33  1  0.20776600  0.50000000  0.00000000  1
  La  La34  1  0.79223400  0.50000000  0.00000000  1
  La  La35  1  0.00000000  0.01924000  0.66213900  1
  La  La36  1  0.20942650  0.74423550  0.63069000  1
  La  La37  1  0.70776600  0.50000000  0.50000000  1
  La  La38  1  0.79057350  0.75576450  0.13069000  1
  La  La39  1  0.00000000  0.00315900  0.11372100  1
  Si  Si40  1  0.50000000  0.76197400  0.51705900  1
  Si  Si41  1  0.50000000  0.73802600  0.01705900  1
  Si  Si42  1  0.50000000  0.22122700  0.27380900  1
  Si  Si43  1  0.50000000  0.23802600  0.48294100  1
  Si  Si44  1  0.50000000  0.72122700  0.22619100  1
  Si  Si45  1  0.75000000  0.03381300  0.25000000  1
  Si  Si46  1  0.50000000  0.26197400  0.98294100  1
  Si  Si47  1  0.50000000  0.77877300  0.72619100  1
  Si  Si48  1  0.50000000  0.27877300  0.77380900  1
  Si  Si49  1  0.75000000  0.96618700  0.75000000  1
  Si  Si50  1  0.25000000  0.03381300  0.25000000  1
  Si  Si51  1  0.25000000  0.96618700  0.75000000  1
  Si  Si52  1  0.00000000  0.26197400  0.51705900  1
  Si  Si53  1  0.00000000  0.23802600  0.01705900  1
  Si  Si54  1  0.00000000  0.72122700  0.27380900  1
  Si  Si55  1  0.00000000  0.73802600  0.48294100  1
  Si  Si56  1  0.00000000  0.22122700  0.22619100  1
  Si  Si57  1  0.25000000  0.53381300  0.25000000  1
  Si  Si58  1  0.00000000  0.76197400  0.98294100  1
  Si  Si59  1  0.00000000  0.27877300  0.72619100  1
  Si  Si60  1  0.00000000  0.77877300  0.77380900  1
  Si  Si61  1  0.25000000  0.46618700  0.75000000  1
  Si  Si62  1  0.75000000  0.53381300  0.25000000  1
  Si  Si63  1  0.75000000  0.46618700  0.75000000  1
  N  N64  1  0.37538450  0.87103850  0.74258300  1
  N  N65  1  0.50000000  0.23060300  0.87593800  1
  N  N66  1  0.62461550  0.62896150  0.24258300  1
  N  N67  1  0.50000000  0.26939700  0.37593800  1
  N  N68  1  0.37538450  0.12896150  0.25741700  1
  N  N69  1  0.50000000  0.73060300  0.62406200  1
  N  N70  1  0.50000000  0.83703200  0.29470600  1
  N  N71  1  0.73768700  0.96259400  0.15428700  1
  N  N72  1  0.36862800  0.85343500  0.49966400  1
  N  N73  1  0.50000000  0.86423500  0.95488500  1
  N  N74  1  0.23768700  0.03740600  0.65428700  1
  N  N75  1  0.26231300  0.96259400  0.15428700  1
  N  N76  1  0.50000000  0.36423500  0.54511500  1
  N  N77  1  0.76231300  0.96259400  0.34571300  1
  N  N78  1  0.26231300  0.03740600  0.84571300  1
  N  N79  1  0.62461550  0.12896150  0.25741700  1
  N  N80  1  0.50000000  0.66296800  0.79470600  1
  N  N81  1  0.73768700  0.03740600  0.84571300  1
  N  N82  1  0.50000000  0.33703200  0.20529400  1
  N  N83  1  0.63137200  0.14656500  0.50033600  1
  N  N84  1  0.62461550  0.87103850  0.74258300  1
  N  N85  1  0.37538450  0.37103850  0.75741700  1
  N  N86  1  0.23768700  0.96259400  0.34571300  1
  N  N87  1  0.63137200  0.85343500  0.49966400  1
  N  N88  1  0.36862800  0.35343500  0.00033600  1
  N  N89  1  0.37538450  0.62896150  0.24258300  1
  N  N90  1  0.36862800  0.64656500  0.99966400  1
  N  N91  1  0.62461550  0.37103850  0.75741700  1
  N  N92  1  0.63137200  0.35343500  0.00033600  1
  N  N93  1  0.50000000  0.13576500  0.04511500  1
  N  N94  1  0.76231300  0.03740600  0.65428700  1
  N  N95  1  0.36862800  0.14656500  0.50033600  1
  N  N96  1  0.50000000  0.76939700  0.12406200  1
  N  N97  1  0.63137200  0.64656500  0.99966400  1
  N  N98  1  0.50000000  0.16296800  0.70529400  1
  N  N99  1  0.50000000  0.63576500  0.45488500  1
  N  N100  1  0.87538450  0.37103850  0.74258300  1
  N  N101  1  0.00000000  0.73060300  0.87593800  1
  N  N102  1  0.12461550  0.12896150  0.24258300  1
  N  N103  1  0.00000000  0.76939700  0.37593800  1
  N  N104  1  0.87538450  0.62896150  0.25741700  1
  N  N105  1  0.00000000  0.23060300  0.62406200  1
  N  N106  1  0.00000000  0.33703200  0.29470600  1
  N  N107  1  0.23768700  0.46259400  0.15428700  1
  N  N108  1  0.86862800  0.35343500  0.49966400  1
  N  N109  1  0.00000000  0.36423500  0.95488500  1
  N  N110  1  0.73768700  0.53740600  0.65428700  1
  N  N111  1  0.76231300  0.46259400  0.15428700  1
  N  N112  1  0.00000000  0.86423500  0.54511500  1
  N  N113  1  0.26231300  0.46259400  0.34571300  1
  N  N114  1  0.76231300  0.53740600  0.84571300  1
  N  N115  1  0.12461550  0.62896150  0.25741700  1
  N  N116  1  0.00000000  0.16296800  0.79470600  1
  N  N117  1  0.23768700  0.53740600  0.84571300  1
  N  N118  1  0.00000000  0.83703200  0.20529400  1
  N  N119  1  0.13137200  0.64656500  0.50033600  1
  N  N120  1  0.12461550  0.37103850  0.74258300  1
  N  N121  1  0.87538450  0.87103850  0.75741700  1
  N  N122  1  0.73768700  0.46259400  0.34571300  1
  N  N123  1  0.13137200  0.35343500  0.49966400  1
  N  N124  1  0.86862800  0.85343500  0.00033600  1
  N  N125  1  0.87538450  0.12896150  0.24258300  1
  N  N126  1  0.86862800  0.14656500  0.99966400  1
  N  N127  1  0.12461550  0.87103850  0.75741700  1
  N  N128  1  0.13137200  0.85343500  0.00033600  1
  N  N129  1  0.00000000  0.63576500  0.04511500  1
  N  N130  1  0.26231300  0.53740600  0.65428700  1
  N  N131  1  0.86862800  0.64656500  0.50033600  1
  N  N132  1  0.00000000  0.26939700  0.12406200  1
  N  N133  1  0.13137200  0.14656500  0.99966400  1
  N  N134  1  0.00000000  0.66296800  0.70529400  1
  N  N135  1  0.00000000  0.13576500  0.45488500  1
