# generated using pymatgen
data_UTe6(OF5)6
_symmetry_space_group_name_H-M   'P 1'
_cell_length_a   10.58052200
_cell_length_b   17.02686400
_cell_length_c   10.36681714
_cell_angle_alpha   90.00000000
_cell_angle_beta   114.70145674
_cell_angle_gamma   90.00000000
_symmetry_Int_Tables_number   1
_chemical_formula_structural   UTe6(OF5)6
_chemical_formula_sum   'U2 Te12 O12 F60'
_cell_volume   1696.72305682
_cell_formula_units_Z   2
loop_
 _symmetry_equiv_pos_site_id
 _symmetry_equiv_pos_as_xyz
  1  'x, y, z'
loop_
 _atom_site_type_symbol
 _atom_site_label
 _atom_site_symmetry_multiplicity
 _atom_site_fract_x
 _atom_site_fract_y
 _atom_site_fract_z
 _atom_site_occupancy
  U  U0  1  0.00000000  0.00000000  0.00000000  1
  U  U1  1  0.50000000  0.50000000  0.00000000  1
  Te  Te2  1  0.75896300  0.83834000  0.73522000  1
  Te  Te3  1  0.23529000  0.00000000  0.78586000  1
  Te  Te4  1  0.24103700  0.16166000  0.26478000  1
  Te  Te5  1  0.75896300  0.16166000  0.73522000  1
  Te  Te6  1  0.76471000  0.00000000  0.21414000  1
  Te  Te7  1  0.24103700  0.83834000  0.26478000  1
  Te  Te8  1  0.25896300  0.33834000  0.73522000  1
  Te  Te9  1  0.73529000  0.50000000  0.78586000  1
  Te  Te10  1  0.74103700  0.66166000  0.26478000  1
  Te  Te11  1  0.25896300  0.66166000  0.73522000  1
  Te  Te12  1  0.26471000  0.50000000  0.21414000  1
  Te  Te13  1  0.74103700  0.33834000  0.26478000  1
  O  O14  1  0.13187200  0.91443700  0.12764000  1
  O  O15  1  0.89253500  0.00000000  0.12717300  1
  O  O16  1  0.10746500  0.00000000  0.87282700  1
  O  O17  1  0.13187200  0.08556300  0.12764000  1
  O  O18  1  0.86812800  0.91443700  0.87236000  1
  O  O19  1  0.86812800  0.08556300  0.87236000  1
  O  O20  1  0.63187200  0.41443700  0.12764000  1
  O  O21  1  0.39253500  0.50000000  0.12717300  1
  O  O22  1  0.60746500  0.50000000  0.87282700  1
  O  O23  1  0.63187200  0.58556300  0.12764000  1
  O  O24  1  0.36812800  0.41443700  0.87236000  1
  O  O25  1  0.36812800  0.58556300  0.87236000  1
  F  F26  1  0.34173550  0.07770150  0.91257200  1
  F  F27  1  0.59644250  0.10643850  0.70636100  1
  F  F28  1  0.77618300  0.10394000  0.58985100  1
  F  F29  1  0.40355750  0.10643850  0.29363900  1
  F  F30  1  0.26065250  0.77959550  0.12213500  1
  F  F31  1  0.34666350  0.76387050  0.39811700  1
  F  F32  1  0.86897150  0.92225550  0.34153700  1
  F  F33  1  0.22381700  0.10394000  0.41014900  1
  F  F34  1  0.36038800  0.00000000  0.70179500  1
  F  F35  1  0.65333650  0.23612950  0.60188300  1
  F  F36  1  0.73934750  0.77959550  0.87786500  1
  F  F37  1  0.86897150  0.07774450  0.34153700  1
  F  F38  1  0.40355750  0.89356150  0.29363900  1
  F  F39  1  0.34173550  0.92229850  0.91257200  1
  F  F40  1  0.13102850  0.07774450  0.65846300  1
  F  F41  1  0.63961200  0.00000000  0.29820500  1
  F  F42  1  0.42025000  0.28188300  0.76315000  1
  F  F43  1  0.57975000  0.28188300  0.23685000  1
  F  F44  1  0.65826450  0.92229850  0.08742800  1
  F  F45  1  0.42025000  0.71811700  0.76315000  1
  F  F46  1  0.77618300  0.89606000  0.58985100  1
  F  F47  1  0.57975000  0.71811700  0.23685000  1
  F  F48  1  0.73934750  0.22040450  0.87786500  1
  F  F49  1  0.65826450  0.07770150  0.08742800  1
  F  F50  1  0.65333650  0.76387050  0.60188300  1
  F  F51  1  0.22381700  0.89606000  0.41014900  1
  F  F52  1  0.59644250  0.89356150  0.70636100  1
  F  F53  1  0.13102850  0.92225550  0.65846300  1
  F  F54  1  0.34666350  0.23612950  0.39811700  1
  F  F55  1  0.26065250  0.22040450  0.12213500  1
  F  F56  1  0.84173550  0.57770150  0.91257200  1
  F  F57  1  0.09644250  0.60643850  0.70636100  1
  F  F58  1  0.27618300  0.60394000  0.58985100  1
  F  F59  1  0.90355750  0.60643850  0.29363900  1
  F  F60  1  0.76065250  0.27959550  0.12213500  1
  F  F61  1  0.84666350  0.26387050  0.39811700  1
  F  F62  1  0.36897150  0.42225550  0.34153700  1
  F  F63  1  0.72381700  0.60394000  0.41014900  1
  F  F64  1  0.86038800  0.50000000  0.70179500  1
  F  F65  1  0.15333650  0.73612950  0.60188300  1
  F  F66  1  0.23934750  0.27959550  0.87786500  1
  F  F67  1  0.36897150  0.57774450  0.34153700  1
  F  F68  1  0.90355750  0.39356150  0.29363900  1
  F  F69  1  0.84173550  0.42229850  0.91257200  1
  F  F70  1  0.63102850  0.57774450  0.65846300  1
  F  F71  1  0.13961200  0.50000000  0.29820500  1
  F  F72  1  0.92025000  0.78188300  0.76315000  1
  F  F73  1  0.07975000  0.78188300  0.23685000  1
  F  F74  1  0.15826450  0.42229850  0.08742800  1
  F  F75  1  0.92025000  0.21811700  0.76315000  1
  F  F76  1  0.27618300  0.39606000  0.58985100  1
  F  F77  1  0.07975000  0.21811700  0.23685000  1
  F  F78  1  0.23934750  0.72040450  0.87786500  1
  F  F79  1  0.15826450  0.57770150  0.08742800  1
  F  F80  1  0.15333650  0.26387050  0.60188300  1
  F  F81  1  0.72381700  0.39606000  0.41014900  1
  F  F82  1  0.09644250  0.39356150  0.70636100  1
  F  F83  1  0.63102850  0.42225550  0.65846300  1
  F  F84  1  0.84666350  0.73612950  0.39811700  1
  F  F85  1  0.76065250  0.72040450  0.12213500  1
