# generated using pymatgen
data_TlCr5S8
_symmetry_space_group_name_H-M   'P 1'
_cell_length_a   18.01773400
_cell_length_b   3.49178400
_cell_length_c   8.70487708
_cell_angle_alpha   90.00000000
_cell_angle_beta   105.07194322
_cell_angle_gamma   90.00000000
_symmetry_Int_Tables_number   1
_chemical_formula_structural   TlCr5S8
_chemical_formula_sum   'Tl2 Cr10 S16'
_cell_volume   528.81951971
_cell_formula_units_Z   2
loop_
 _symmetry_equiv_pos_site_id
 _symmetry_equiv_pos_as_xyz
  1  'x, y, z'
loop_
 _atom_site_type_symbol
 _atom_site_label
 _atom_site_symmetry_multiplicity
 _atom_site_fract_x
 _atom_site_fract_y
 _atom_site_fract_z
 _atom_site_occupancy
  Tl  Tl0  1  0.00000000  0.00000000  0.00000000  1
  Tl  Tl1  1  0.50000000  0.50000000  0.00000000  1
  Cr  Cr2  1  0.00000000  0.50000000  0.50000000  1
  Cr  Cr3  1  0.20354600  0.00000000  0.83519300  1
  Cr  Cr4  1  0.29645400  0.50000000  0.16480700  1
  Cr  Cr5  1  0.34136500  0.50000000  0.52538900  1
  Cr  Cr6  1  0.15863500  0.00000000  0.47461100  1
  Cr  Cr7  1  0.50000000  0.00000000  0.50000000  1
  Cr  Cr8  1  0.70354600  0.50000000  0.83519300  1
  Cr  Cr9  1  0.79645400  0.00000000  0.16480700  1
  Cr  Cr10  1  0.84136500  0.00000000  0.52538900  1
  Cr  Cr11  1  0.65863500  0.50000000  0.47461100  1
  S  S12  1  0.32809000  0.00000000  0.01122300  1
  S  S13  1  0.17191000  0.50000000  0.98877700  1
  S  S14  1  0.23764300  0.50000000  0.65604400  1
  S  S15  1  0.26235700  0.00000000  0.34395600  1
  S  S16  1  0.41431100  0.00000000  0.67071500  1
  S  S17  1  0.08568900  0.50000000  0.32928500  1
  S  S18  1  0.07627300  0.00000000  0.64997000  1
  S  S19  1  0.42372700  0.50000000  0.35003000  1
  S  S20  1  0.82809000  0.50000000  0.01122300  1
  S  S21  1  0.67191000  0.00000000  0.98877700  1
  S  S22  1  0.73764300  0.00000000  0.65604400  1
  S  S23  1  0.76235700  0.50000000  0.34395600  1
  S  S24  1  0.91431100  0.50000000  0.67071500  1
  S  S25  1  0.58568900  0.00000000  0.32928500  1
  S  S26  1  0.57627300  0.50000000  0.64997000  1
  S  S27  1  0.92372700  0.00000000  0.35003000  1
