# generated using pymatgen
data_GaN5O14
_symmetry_space_group_name_H-M   'P 1'
_cell_length_a   13.28700000
_cell_length_b   6.16654400
_cell_length_c   9.17075657
_cell_angle_alpha   90.00000000
_cell_angle_beta   132.39929736
_cell_angle_gamma   90.00000000
_symmetry_Int_Tables_number   1
_chemical_formula_structural   GaN5O14
_chemical_formula_sum   'Ga2 N10 O28'
_cell_volume   554.88506292
_cell_formula_units_Z   2
loop_
 _symmetry_equiv_pos_site_id
 _symmetry_equiv_pos_as_xyz
  1  'x, y, z'
loop_
 _atom_site_type_symbol
 _atom_site_label
 _atom_site_symmetry_multiplicity
 _atom_site_fract_x
 _atom_site_fract_y
 _atom_site_fract_z
 _atom_site_occupancy
  Ga  Ga0  1  0.00000000  0.99391500  0.00000000  1
  Ga  Ga1  1  0.50000000  0.49391500  0.00000000  1
  N  N2  1  0.83610700  0.29144200  0.68383200  1
  N  N3  1  0.16389300  0.29144200  0.31616800  1
  N  N4  1  0.63384800  0.22286600  0.97630300  1
  N  N5  1  0.36615200  0.22286600  0.02369700  1
  N  N6  1  0.50000000  0.34608700  0.50000000  1
  N  N7  1  0.33610700  0.79144200  0.68383200  1
  N  N8  1  0.66389300  0.79144200  0.31616800  1
  N  N9  1  0.13384800  0.72286600  0.97630300  1
  N  N10  1  0.86615200  0.72286600  0.02369700  1
  N  N11  1  0.00000000  0.84608700  0.50000000  1
  O  O12  1  0.84200800  0.17124300  0.81240500  1
  O  O13  1  0.15799200  0.17124300  0.18759500  1
  O  O14  1  0.44014050  0.81257050  0.71077700  1
  O  O15  1  0.55985950  0.81257050  0.28922300  1
  O  O16  1  0.72388050  0.37326750  0.54804900  1
  O  O17  1  0.27611950  0.37326750  0.45195100  1
  O  O18  1  0.54593900  0.37770700  0.85062800  1
  O  O19  1  0.45406100  0.37770700  0.14937200  1
  O  O20  1  0.15396600  0.71236400  0.13243600  1
  O  O21  1  0.84603400  0.71236400  0.86756400  1
  O  O22  1  0.68605450  0.10829750  0.93507600  1
  O  O23  1  0.31394550  0.10829750  0.06492400  1
  O  O24  1  0.50000000  0.16101900  0.50000000  1
  O  O25  1  0.50000000  0.53126500  0.50000000  1
  O  O26  1  0.34200800  0.67124300  0.81240500  1
  O  O27  1  0.65799200  0.67124300  0.18759500  1
  O  O28  1  0.94014050  0.31257050  0.71077700  1
  O  O29  1  0.05985950  0.31257050  0.28922300  1
  O  O30  1  0.22388050  0.87326750  0.54804900  1
  O  O31  1  0.77611950  0.87326750  0.45195100  1
  O  O32  1  0.04593900  0.87770700  0.85062800  1
  O  O33  1  0.95406100  0.87770700  0.14937200  1
  O  O34  1  0.65396600  0.21236400  0.13243600  1
  O  O35  1  0.34603400  0.21236400  0.86756400  1
  O  O36  1  0.18605450  0.60829750  0.93507600  1
  O  O37  1  0.81394550  0.60829750  0.06492400  1
  O  O38  1  0.00000000  0.66101900  0.50000000  1
  O  O39  1  0.00000000  0.03126500  0.50000000  1
