# generated using pymatgen
data_Tl2Ge2Se5
_symmetry_space_group_name_H-M   'P 1'
_cell_length_a   16.07031200
_cell_length_b   15.99633400
_cell_length_c   9.28403210
_cell_angle_alpha   90.00000000
_cell_angle_beta   106.43043677
_cell_angle_gamma   90.00000000
_symmetry_Int_Tables_number   1
_chemical_formula_structural   Tl2Ge2Se5
_chemical_formula_sum   'Tl16 Ge16 Se40'
_cell_volume   2289.14977661
_cell_formula_units_Z   8
loop_
 _symmetry_equiv_pos_site_id
 _symmetry_equiv_pos_as_xyz
  1  'x, y, z'
loop_
 _atom_site_type_symbol
 _atom_site_label
 _atom_site_symmetry_multiplicity
 _atom_site_fract_x
 _atom_site_fract_y
 _atom_site_fract_z
 _atom_site_occupancy
  Tl  Tl0  1  0.17341950  0.37146850  0.90303000  1
  Tl  Tl1  1  0.82658050  0.37146850  0.59697000  1
  Tl  Tl2  1  0.82658050  0.62853150  0.09697000  1
  Tl  Tl3  1  0.17341950  0.62853150  0.40303000  1
  Tl  Tl4  1  0.63973000  0.56157000  0.59642300  1
  Tl  Tl5  1  0.36027000  0.56157000  0.90357700  1
  Tl  Tl6  1  0.36027000  0.43843000  0.40357700  1
  Tl  Tl7  1  0.63973000  0.43843000  0.09642300  1
  Tl  Tl8  1  0.67341950  0.87146850  0.90303000  1
  Tl  Tl9  1  0.32658050  0.87146850  0.59697000  1
  Tl  Tl10  1  0.32658050  0.12853150  0.09697000  1
  Tl  Tl11  1  0.67341950  0.12853150  0.40303000  1
  Tl  Tl12  1  0.13973000  0.06157000  0.59642300  1
  Tl  Tl13  1  0.86027000  0.06157000  0.90357700  1
  Tl  Tl14  1  0.86027000  0.93843000  0.40357700  1
  Tl  Tl15  1  0.13973000  0.93843000  0.09642300  1
  Ge  Ge16  1  0.10564950  0.37289450  0.40831200  1
  Ge  Ge17  1  0.89435050  0.37289450  0.09168800  1
  Ge  Ge18  1  0.89435050  0.62710550  0.59168800  1
  Ge  Ge19  1  0.10564950  0.62710550  0.90831200  1
  Ge  Ge20  1  0.93295450  0.79689850  0.89015500  1
  Ge  Ge21  1  0.06704550  0.79689850  0.60984500  1
  Ge  Ge22  1  0.06704550  0.20310150  0.10984500  1
  Ge  Ge23  1  0.93295450  0.20310150  0.39015500  1
  Ge  Ge24  1  0.60564950  0.87289450  0.40831200  1
  Ge  Ge25  1  0.39435050  0.87289450  0.09168800  1
  Ge  Ge26  1  0.39435050  0.12710550  0.59168800  1
  Ge  Ge27  1  0.60564950  0.12710550  0.90831200  1
  Ge  Ge28  1  0.43295450  0.29689850  0.89015500  1
  Ge  Ge29  1  0.56704550  0.29689850  0.60984500  1
  Ge  Ge30  1  0.56704550  0.70310150  0.10984500  1
  Ge  Ge31  1  0.43295450  0.70310150  0.39015500  1
  Se  Se32  1  0.18016450  0.28744050  0.26777300  1
  Se  Se33  1  0.81983550  0.28744050  0.23222700  1
  Se  Se34  1  0.81983550  0.71255950  0.73222700  1
  Se  Se35  1  0.18016450  0.71255950  0.76777300  1
  Se  Se36  1  0.95542750  0.71607550  0.43807000  1
  Se  Se37  1  0.04457250  0.71607550  0.06193000  1
  Se  Se38  1  0.04457250  0.28392450  0.56193000  1
  Se  Se39  1  0.95542750  0.28392450  0.93807000  1
  Se  Se40  1  0.21289200  0.45440700  0.56968000  1
  Se  Se41  1  0.78710800  0.45440700  0.93032000  1
  Se  Se42  1  0.78710800  0.54559300  0.43032000  1
  Se  Se43  1  0.21289200  0.54559300  0.06968000  1
  Se  Se44  1  0.62287300  0.62078700  0.95374700  1
  Se  Se45  1  0.37712700  0.62078700  0.54625300  1
  Se  Se46  1  0.37712700  0.37921300  0.04625300  1
  Se  Se47  1  0.62287300  0.37921300  0.45374700  1
  Se  Se48  1  0.00000000  0.10881400  0.25000000  1
  Se  Se49  1  0.00000000  0.89118600  0.75000000  1
  Se  Se50  1  0.00000000  0.46460800  0.25000000  1
  Se  Se51  1  0.00000000  0.53539200  0.75000000  1
  Se  Se52  1  0.68016450  0.78744050  0.26777300  1
  Se  Se53  1  0.31983550  0.78744050  0.23222700  1
  Se  Se54  1  0.31983550  0.21255950  0.73222700  1
  Se  Se55  1  0.68016450  0.21255950  0.76777300  1
  Se  Se56  1  0.45542750  0.21607550  0.43807000  1
  Se  Se57  1  0.54457250  0.21607550  0.06193000  1
  Se  Se58  1  0.54457250  0.78392450  0.56193000  1
  Se  Se59  1  0.45542750  0.78392450  0.93807000  1
  Se  Se60  1  0.71289200  0.95440700  0.56968000  1
  Se  Se61  1  0.28710800  0.95440700  0.93032000  1
  Se  Se62  1  0.28710800  0.04559300  0.43032000  1
  Se  Se63  1  0.71289200  0.04559300  0.06968000  1
  Se  Se64  1  0.12287300  0.12078700  0.95374700  1
  Se  Se65  1  0.87712700  0.12078700  0.54625300  1
  Se  Se66  1  0.87712700  0.87921300  0.04625300  1
  Se  Se67  1  0.12287300  0.87921300  0.45374700  1
  Se  Se68  1  0.50000000  0.60881400  0.25000000  1
  Se  Se69  1  0.50000000  0.39118600  0.75000000  1
  Se  Se70  1  0.50000000  0.96460800  0.25000000  1
  Se  Se71  1  0.50000000  0.03539200  0.75000000  1
