# generated using pymatgen
data_RbLu3F10
_symmetry_space_group_name_H-M   'P 1'
_cell_length_a   8.49653200
_cell_length_b   13.25374400
_cell_length_c   16.14132800
_cell_angle_alpha   90.00000000
_cell_angle_beta   90.00000000
_cell_angle_gamma   90.00000000
_symmetry_Int_Tables_number   1
_chemical_formula_structural   RbLu3F10
_chemical_formula_sum   'Rb8 Lu24 F80'
_cell_volume   1817.68882788
_cell_formula_units_Z   8
loop_
 _symmetry_equiv_pos_site_id
 _symmetry_equiv_pos_as_xyz
  1  'x, y, z'
loop_
 _atom_site_type_symbol
 _atom_site_label
 _atom_site_symmetry_multiplicity
 _atom_site_fract_x
 _atom_site_fract_y
 _atom_site_fract_z
 _atom_site_occupancy
  Rb  Rb0  1  0.50000000  0.00000000  0.00000000  1
  Rb  Rb1  1  0.00000000  0.00000000  0.00000000  1
  Rb  Rb2  1  0.00000000  0.00000000  0.50000000  1
  Rb  Rb3  1  0.50000000  0.00000000  0.50000000  1
  Rb  Rb4  1  0.00000000  0.50000000  0.00000000  1
  Rb  Rb5  1  0.50000000  0.50000000  0.00000000  1
  Rb  Rb6  1  0.50000000  0.50000000  0.50000000  1
  Rb  Rb7  1  0.00000000  0.50000000  0.50000000  1
  Lu  Lu8  1  0.25169950  0.77176250  0.11289100  1
  Lu  Lu9  1  0.74830050  0.77176250  0.11289100  1
  Lu  Lu10  1  0.75000000  0.99895700  0.75000000  1
  Lu  Lu11  1  0.25169950  0.22823750  0.88710900  1
  Lu  Lu12  1  0.25000000  0.99895700  0.75000000  1
  Lu  Lu13  1  0.74830050  0.22823750  0.88710900  1
  Lu  Lu14  1  0.75000000  0.00104300  0.25000000  1
  Lu  Lu15  1  0.75169950  0.77176250  0.38710900  1
  Lu  Lu16  1  0.25000000  0.00104300  0.25000000  1
  Lu  Lu17  1  0.24830050  0.77176250  0.38710900  1
  Lu  Lu18  1  0.75169950  0.22823750  0.61289100  1
  Lu  Lu19  1  0.24830050  0.22823750  0.61289100  1
  Lu  Lu20  1  0.75169950  0.27176250  0.11289100  1
  Lu  Lu21  1  0.24830050  0.27176250  0.11289100  1
  Lu  Lu22  1  0.25000000  0.49895700  0.75000000  1
  Lu  Lu23  1  0.75169950  0.72823750  0.88710900  1
  Lu  Lu24  1  0.75000000  0.49895700  0.75000000  1
  Lu  Lu25  1  0.24830050  0.72823750  0.88710900  1
  Lu  Lu26  1  0.25000000  0.50104300  0.25000000  1
  Lu  Lu27  1  0.25169950  0.27176250  0.38710900  1
  Lu  Lu28  1  0.75000000  0.50104300  0.25000000  1
  Lu  Lu29  1  0.74830050  0.27176250  0.38710900  1
  Lu  Lu30  1  0.25169950  0.72823750  0.61289100  1
  Lu  Lu31  1  0.74830050  0.72823750  0.61289100  1
  F  F32  1  0.25000000  0.81945800  0.25000000  1
  F  F33  1  0.50000000  0.26807500  0.11349300  1
  F  F34  1  0.50000000  0.50485000  0.73218300  1
  F  F35  1  0.24829550  0.15918550  0.48752200  1
  F  F36  1  0.50000000  0.20829900  0.89424500  1
  F  F37  1  0.76608350  0.06385950  0.87287800  1
  F  F38  1  0.25170450  0.84081450  0.98752200  1
  F  F39  1  0.25170450  0.15918550  0.01247800  1
  F  F40  1  0.75000000  0.81945800  0.25000000  1
  F  F41  1  0.50000000  0.79170100  0.10575500  1
  F  F42  1  0.75170450  0.84081450  0.51247800  1
  F  F43  1  0.50000000  0.29170100  0.39424500  1
  F  F44  1  0.21260600  0.13066300  0.17222000  1
  F  F45  1  0.71260600  0.86933700  0.67222000  1
  F  F46  1  0.50000000  0.73192500  0.88650700  1
  F  F47  1  0.76608350  0.93614050  0.12712200  1
  F  F48  1  0.50000000  0.99515000  0.23218300  1
  F  F49  1  0.71260600  0.13066300  0.32778000  1
  F  F50  1  0.50000000  0.49515000  0.26781700  1
  F  F51  1  0.75000000  0.18054200  0.75000000  1
  F  F52  1  0.78739400  0.86933700  0.82778000  1
  F  F53  1  0.73391650  0.93614050  0.37287800  1
  F  F54  1  0.25000000  0.18054200  0.75000000  1
  F  F55  1  0.50000000  0.00485000  0.76781700  1
  F  F56  1  0.26608350  0.06385950  0.62712200  1
  F  F57  1  0.75170450  0.15918550  0.48752200  1
  F  F58  1  0.74829550  0.15918550  0.01247800  1
  F  F59  1  0.50000000  0.23192500  0.61349300  1
  F  F60  1  0.26608350  0.93614050  0.37287800  1
  F  F61  1  0.24829550  0.84081450  0.51247800  1
  F  F62  1  0.23391650  0.06385950  0.87287800  1
  F  F63  1  0.50000000  0.76807500  0.38650700  1
  F  F64  1  0.28739400  0.13066300  0.32778000  1
  F  F65  1  0.78739400  0.13066300  0.17222000  1
  F  F66  1  0.50000000  0.70829900  0.60575500  1
  F  F67  1  0.21260600  0.86933700  0.82778000  1
  F  F68  1  0.73391650  0.06385950  0.62712200  1
  F  F69  1  0.74829550  0.84081450  0.98752200  1
  F  F70  1  0.28739400  0.86933700  0.67222000  1
  F  F71  1  0.23391650  0.93614050  0.12712200  1
  F  F72  1  0.75000000  0.31945800  0.25000000  1
  F  F73  1  0.00000000  0.76807500  0.11349300  1
  F  F74  1  0.00000000  0.00485000  0.73218300  1
  F  F75  1  0.74829550  0.65918550  0.48752200  1
  F  F76  1  0.00000000  0.70829900  0.89424500  1
  F  F77  1  0.26608350  0.56385950  0.87287800  1
  F  F78  1  0.75170450  0.34081450  0.98752200  1
  F  F79  1  0.75170450  0.65918550  0.01247800  1
  F  F80  1  0.25000000  0.31945800  0.25000000  1
  F  F81  1  0.00000000  0.29170100  0.10575500  1
  F  F82  1  0.25170450  0.34081450  0.51247800  1
  F  F83  1  0.00000000  0.79170100  0.39424500  1
  F  F84  1  0.71260600  0.63066300  0.17222000  1
  F  F85  1  0.21260600  0.36933700  0.67222000  1
  F  F86  1  0.00000000  0.23192500  0.88650700  1
  F  F87  1  0.26608350  0.43614050  0.12712200  1
  F  F88  1  0.00000000  0.49515000  0.23218300  1
  F  F89  1  0.21260600  0.63066300  0.32778000  1
  F  F90  1  0.00000000  0.99515000  0.26781700  1
  F  F91  1  0.25000000  0.68054200  0.75000000  1
  F  F92  1  0.28739400  0.36933700  0.82778000  1
  F  F93  1  0.23391650  0.43614050  0.37287800  1
  F  F94  1  0.75000000  0.68054200  0.75000000  1
  F  F95  1  0.00000000  0.50485000  0.76781700  1
  F  F96  1  0.76608350  0.56385950  0.62712200  1
  F  F97  1  0.25170450  0.65918550  0.48752200  1
  F  F98  1  0.24829550  0.65918550  0.01247800  1
  F  F99  1  0.00000000  0.73192500  0.61349300  1
  F  F100  1  0.76608350  0.43614050  0.37287800  1
  F  F101  1  0.74829550  0.34081450  0.51247800  1
  F  F102  1  0.73391650  0.56385950  0.87287800  1
  F  F103  1  0.00000000  0.26807500  0.38650700  1
  F  F104  1  0.78739400  0.63066300  0.32778000  1
  F  F105  1  0.28739400  0.63066300  0.17222000  1
  F  F106  1  0.00000000  0.20829900  0.60575500  1
  F  F107  1  0.71260600  0.36933700  0.82778000  1
  F  F108  1  0.23391650  0.56385950  0.62712200  1
  F  F109  1  0.24829550  0.34081450  0.98752200  1
  F  F110  1  0.78739400  0.36933700  0.67222000  1
  F  F111  1  0.73391650  0.43614050  0.12712200  1
