# generated using pymatgen
data_GaN5O14
_symmetry_space_group_name_H-M   'P 1'
_cell_length_a   9.51270400
_cell_length_b   9.51270400
_cell_length_c   6.26467200
_cell_angle_alpha   90.00000000
_cell_angle_beta   90.00000000
_cell_angle_gamma   90.00000000
_symmetry_Int_Tables_number   1
_chemical_formula_structural   GaN5O14
_chemical_formula_sum   'Ga2 N10 O28'
_cell_volume   566.89980053
_cell_formula_units_Z   2
loop_
 _symmetry_equiv_pos_site_id
 _symmetry_equiv_pos_as_xyz
  1  'x, y, z'
loop_
 _atom_site_type_symbol
 _atom_site_label
 _atom_site_symmetry_multiplicity
 _atom_site_fract_x
 _atom_site_fract_y
 _atom_site_fract_z
 _atom_site_occupancy
  Ga  Ga0  1  0.00000000  0.00000000  0.00000000  1
  Ga  Ga1  1  0.50000000  0.50000000  0.50000000  1
  N  N2  1  0.15736500  0.84778800  0.28423300  1
  N  N3  1  0.34778800  0.34263500  0.21576700  1
  N  N4  1  0.84263500  0.15221200  0.28423300  1
  N  N5  1  0.65221200  0.65736500  0.21576700  1
  N  N6  1  0.50000000  0.00000000  0.25000000  1
  N  N7  1  0.65736500  0.34778800  0.78423300  1
  N  N8  1  0.84778800  0.84263500  0.71576700  1
  N  N9  1  0.34263500  0.65221200  0.78423300  1
  N  N10  1  0.15221200  0.15736500  0.71576700  1
  N  N11  1  0.00000000  0.50000000  0.75000000  1
  O  O12  1  0.20884250  0.04056950  0.69869850  1
  O  O13  1  0.31194600  0.23315100  0.12782300  1
  O  O14  1  0.73315100  0.18805400  0.37217700  1
  O  O15  1  0.83250200  0.03740100  0.15568300  1
  O  O16  1  0.45943050  0.70884250  0.80130150  1
  O  O17  1  0.68805400  0.76684900  0.12782300  1
  O  O18  1  0.53740100  0.66749800  0.34431700  1
  O  O19  1  0.16749800  0.96259900  0.15568300  1
  O  O20  1  0.26684900  0.81194600  0.37217700  1
  O  O21  1  0.50000000  0.00000000  0.43184300  1
  O  O22  1  0.46259900  0.33250200  0.34431700  1
  O  O23  1  0.54056950  0.29115750  0.80130150  1
  O  O24  1  0.79115750  0.95943050  0.69869850  1
  O  O25  1  0.50000000  0.00000000  0.06815700  1
  O  O26  1  0.70884250  0.54056950  0.19869850  1
  O  O27  1  0.81194600  0.73315100  0.62782300  1
  O  O28  1  0.23315100  0.68805400  0.87217700  1
  O  O29  1  0.33250200  0.53740100  0.65568300  1
  O  O30  1  0.95943050  0.20884250  0.30130150  1
  O  O31  1  0.18805400  0.26684900  0.62782300  1
  O  O32  1  0.03740100  0.16749800  0.84431700  1
  O  O33  1  0.66749800  0.46259900  0.65568300  1
  O  O34  1  0.76684900  0.31194600  0.87217700  1
  O  O35  1  0.00000000  0.50000000  0.93184300  1
  O  O36  1  0.96259900  0.83250200  0.84431700  1
  O  O37  1  0.04056950  0.79115750  0.30130150  1
  O  O38  1  0.29115750  0.45943050  0.19869850  1
  O  O39  1  0.00000000  0.50000000  0.56815700  1
