# generated using pymatgen
data_BaNa2Ti2(Si2O7)2
_symmetry_space_group_name_H-M   'P 1'
_cell_length_a   8.21688800
_cell_length_b   10.53705800
_cell_length_c   14.06022000
_cell_angle_alpha   90.00000000
_cell_angle_beta   90.00000000
_cell_angle_gamma   90.00000000
_symmetry_Int_Tables_number   1
_chemical_formula_structural   BaNa2Ti2(Si2O7)2
_chemical_formula_sum   'Ba4 Na8 Ti8 Si16 O56'
_cell_volume   1217.35951362
_cell_formula_units_Z   4
loop_
 _symmetry_equiv_pos_site_id
 _symmetry_equiv_pos_as_xyz
  1  'x, y, z'
loop_
 _atom_site_type_symbol
 _atom_site_label
 _atom_site_symmetry_multiplicity
 _atom_site_fract_x
 _atom_site_fract_y
 _atom_site_fract_z
 _atom_site_occupancy
  Ba  Ba0  1  0.02307600  0.25000000  0.24861050  1
  Ba  Ba1  1  0.02307600  0.75000000  0.75138950  1
  Ba  Ba2  1  0.52307600  0.75000000  0.74861050  1
  Ba  Ba3  1  0.52307600  0.25000000  0.25138950  1
  Na  Na4  1  0.02165000  0.00000000  0.00000000  1
  Na  Na5  1  0.03107950  0.75000000  0.15676900  1
  Na  Na6  1  0.03107950  0.25000000  0.84323100  1
  Na  Na7  1  0.02165000  0.50000000  0.00000000  1
  Na  Na8  1  0.52165000  0.50000000  0.50000000  1
  Na  Na9  1  0.53107950  0.25000000  0.65676900  1
  Na  Na10  1  0.53107950  0.75000000  0.34323100  1
  Na  Na11  1  0.52165000  0.00000000  0.50000000  1
  Ti  Ti12  1  0.79587850  0.25000000  0.03231800  1
  Ti  Ti13  1  0.79587850  0.75000000  0.96768200  1
  Ti  Ti14  1  0.29382300  0.75000000  0.96913850  1
  Ti  Ti15  1  0.29382300  0.25000000  0.03086150  1
  Ti  Ti16  1  0.29587850  0.75000000  0.53231800  1
  Ti  Ti17  1  0.29587850  0.25000000  0.46768200  1
  Ti  Ti18  1  0.79382300  0.25000000  0.46913850  1
  Ti  Ti19  1  0.79382300  0.75000000  0.53086150  1
  Si  Si20  1  0.71271700  0.47103900  0.85492050  1
  Si  Si21  1  0.81778350  0.47099250  0.64479400  1
  Si  Si22  1  0.81778350  0.52900750  0.35520600  1
  Si  Si23  1  0.21271700  0.52896100  0.35492050  1
  Si  Si24  1  0.31778350  0.47099250  0.85520600  1
  Si  Si25  1  0.71271700  0.52896100  0.14507950  1
  Si  Si26  1  0.31778350  0.52900750  0.14479400  1
  Si  Si27  1  0.21271700  0.47103900  0.64507950  1
  Si  Si28  1  0.21271700  0.97103900  0.35492050  1
  Si  Si29  1  0.31778350  0.97099250  0.14479400  1
  Si  Si30  1  0.31778350  0.02900750  0.85520600  1
  Si  Si31  1  0.71271700  0.02896100  0.85492050  1
  Si  Si32  1  0.81778350  0.97099250  0.35520600  1
  Si  Si33  1  0.21271700  0.02896100  0.64507950  1
  Si  Si34  1  0.81778350  0.02900750  0.64479400  1
  Si  Si35  1  0.71271700  0.97103900  0.14507950  1
  O  O36  1  0.79972700  0.11714400  0.93397450  1
  O  O37  1  0.50303400  0.25000000  0.03358650  1
  O  O38  1  0.79972700  0.38285600  0.93397450  1
  O  O39  1  0.79972700  0.61714400  0.06602550  1
  O  O40  1  0.23447800  0.11936400  0.93449350  1
  O  O41  1  0.23447800  0.88063600  0.06550650  1
  O  O42  1  0.76343750  0.41130050  0.74955000  1
  O  O43  1  0.00548250  0.75000000  0.95338300  1
  O  O44  1  0.01525650  0.46402250  0.64275100  1
  O  O45  1  0.75936550  0.38101750  0.36168700  1
  O  O46  1  0.51525650  0.46402250  0.85724900  1
  O  O47  1  0.75936550  0.61898250  0.63831300  1
  O  O48  1  0.25936550  0.38101750  0.13831300  1
  O  O49  1  0.23447800  0.38063600  0.93449350  1
  O  O50  1  0.76777500  0.38033600  0.13989750  1
  O  O51  1  0.26777500  0.61966400  0.63989750  1
  O  O52  1  0.26343750  0.41130050  0.75045000  1
  O  O53  1  0.01525650  0.53597750  0.35724900  1
  O  O54  1  0.51525650  0.53597750  0.14275100  1
  O  O55  1  0.26777500  0.38033600  0.36010250  1
  O  O56  1  0.79972700  0.88285600  0.06602550  1
  O  O57  1  0.50303400  0.75000000  0.96641350  1
  O  O58  1  0.76777500  0.61966400  0.86010250  1
  O  O59  1  0.25936550  0.61898250  0.86168700  1
  O  O60  1  0.23447800  0.61936400  0.06550650  1
  O  O61  1  0.76343750  0.58869950  0.25045000  1
  O  O62  1  0.26343750  0.58869950  0.24955000  1
  O  O63  1  0.00548250  0.25000000  0.04661700  1
  O  O64  1  0.29972700  0.61714400  0.43397450  1
  O  O65  1  0.00303400  0.75000000  0.53358650  1
  O  O66  1  0.29972700  0.88285600  0.43397450  1
  O  O67  1  0.29972700  0.11714400  0.56602550  1
  O  O68  1  0.73447800  0.61936400  0.43449350  1
  O  O69  1  0.73447800  0.38063600  0.56550650  1
  O  O70  1  0.26343750  0.91130050  0.24955000  1
  O  O71  1  0.50548250  0.25000000  0.45338300  1
  O  O72  1  0.51525650  0.96402250  0.14275100  1
  O  O73  1  0.25936550  0.88101750  0.86168700  1
  O  O74  1  0.01525650  0.96402250  0.35724900  1
  O  O75  1  0.25936550  0.11898250  0.13831300  1
  O  O76  1  0.75936550  0.88101750  0.63831300  1
  O  O77  1  0.73447800  0.88063600  0.43449350  1
  O  O78  1  0.26777500  0.88033600  0.63989750  1
  O  O79  1  0.76777500  0.11966400  0.13989750  1
  O  O80  1  0.76343750  0.91130050  0.25045000  1
  O  O81  1  0.51525650  0.03597750  0.85724900  1
  O  O82  1  0.01525650  0.03597750  0.64275100  1
  O  O83  1  0.76777500  0.88033600  0.86010250  1
  O  O84  1  0.29972700  0.38285600  0.56602550  1
  O  O85  1  0.00303400  0.25000000  0.46641350  1
  O  O86  1  0.26777500  0.11966400  0.36010250  1
  O  O87  1  0.75936550  0.11898250  0.36168700  1
  O  O88  1  0.73447800  0.11936400  0.56550650  1
  O  O89  1  0.26343750  0.08869950  0.75045000  1
  O  O90  1  0.76343750  0.08869950  0.74955000  1
  O  O91  1  0.50548250  0.75000000  0.54661700  1
