# generated using pymatgen
data_K3Na2SnBi3
_symmetry_space_group_name_H-M   'P 1'
_cell_length_a   7.26793200
_cell_length_b   17.28263400
_cell_length_c   21.81163400
_cell_angle_alpha   90.00000000
_cell_angle_beta   90.00000000
_cell_angle_gamma   90.00000000
_symmetry_Int_Tables_number   1
_chemical_formula_structural   K3Na2SnBi3
_chemical_formula_sum   'K24 Na16 Sn8 Bi24'
_cell_volume   2739.73772471
_cell_formula_units_Z   8
loop_
 _symmetry_equiv_pos_site_id
 _symmetry_equiv_pos_as_xyz
  1  'x, y, z'
loop_
 _atom_site_type_symbol
 _atom_site_label
 _atom_site_symmetry_multiplicity
 _atom_site_fract_x
 _atom_site_fract_y
 _atom_site_fract_z
 _atom_site_occupancy
  K  K0  1  0.27829050  0.42284450  0.16492450  1
  K  K1  1  0.25000000  0.07612000  0.00000000  1
  K  K2  1  0.27829050  0.57715550  0.33507550  1
  K  K3  1  0.72170950  0.57715550  0.83507550  1
  K  K4  1  0.77829050  0.42284450  0.33507550  1
  K  K5  1  0.22170950  0.57715550  0.66492450  1
  K  K6  1  0.72170950  0.42284450  0.66492450  1
  K  K7  1  0.75000000  0.42388000  0.00000000  1
  K  K8  1  0.77829050  0.57715550  0.16492450  1
  K  K9  1  0.22170950  0.42284450  0.83507550  1
  K  K10  1  0.75000000  0.92388000  0.00000000  1
  K  K11  1  0.25000000  0.57612000  0.00000000  1
  K  K12  1  0.77829050  0.92284450  0.66492450  1
  K  K13  1  0.75000000  0.57612000  0.50000000  1
  K  K14  1  0.77829050  0.07715550  0.83507550  1
  K  K15  1  0.22170950  0.07715550  0.33507550  1
  K  K16  1  0.27829050  0.92284450  0.83507550  1
  K  K17  1  0.72170950  0.07715550  0.16492450  1
  K  K18  1  0.22170950  0.92284450  0.16492450  1
  K  K19  1  0.25000000  0.92388000  0.50000000  1
  K  K20  1  0.27829050  0.07715550  0.66492450  1
  K  K21  1  0.72170950  0.92284450  0.33507550  1
  K  K22  1  0.25000000  0.42388000  0.50000000  1
  K  K23  1  0.75000000  0.07612000  0.50000000  1
  Na  Na24  1  0.00000000  0.25000000  0.75284700  1
  Na  Na25  1  0.50000000  0.75000000  0.91201200  1
  Na  Na26  1  0.00000000  0.75000000  0.24715300  1
  Na  Na27  1  0.50000000  0.25000000  0.24715300  1
  Na  Na28  1  0.50000000  0.75000000  0.75284700  1
  Na  Na29  1  0.00000000  0.25000000  0.91201200  1
  Na  Na30  1  0.50000000  0.25000000  0.08798800  1
  Na  Na31  1  0.00000000  0.75000000  0.08798800  1
  Na  Na32  1  0.50000000  0.75000000  0.25284700  1
  Na  Na33  1  0.00000000  0.25000000  0.41201200  1
  Na  Na34  1  0.50000000  0.25000000  0.74715300  1
  Na  Na35  1  0.00000000  0.75000000  0.74715300  1
  Na  Na36  1  0.00000000  0.25000000  0.25284700  1
  Na  Na37  1  0.50000000  0.75000000  0.41201200  1
  Na  Na38  1  0.00000000  0.75000000  0.58798800  1
  Na  Na39  1  0.50000000  0.25000000  0.58798800  1
  Sn  Sn40  1  0.00000000  0.75000000  0.91761700  1
  Sn  Sn41  1  0.50000000  0.25000000  0.91761700  1
  Sn  Sn42  1  0.50000000  0.75000000  0.08238300  1
  Sn  Sn43  1  0.00000000  0.25000000  0.08238300  1
  Sn  Sn44  1  0.50000000  0.25000000  0.41761700  1
  Sn  Sn45  1  0.00000000  0.75000000  0.41761700  1
  Sn  Sn46  1  0.00000000  0.25000000  0.58238300  1
  Sn  Sn47  1  0.50000000  0.75000000  0.58238300  1
  Bi  Bi48  1  0.25000000  0.35167700  0.00000000  1
  Bi  Bi49  1  0.21256000  0.63805900  0.84007400  1
  Bi  Bi50  1  0.78744000  0.63805900  0.34007400  1
  Bi  Bi51  1  0.78744000  0.36194100  0.15992600  1
  Bi  Bi52  1  0.71256000  0.63805900  0.65992600  1
  Bi  Bi53  1  0.28744000  0.36194100  0.34007400  1
  Bi  Bi54  1  0.21256000  0.36194100  0.65992600  1
  Bi  Bi55  1  0.75000000  0.64832300  0.00000000  1
  Bi  Bi56  1  0.28744000  0.63805900  0.15992600  1
  Bi  Bi57  1  0.75000000  0.14832300  0.00000000  1
  Bi  Bi58  1  0.71256000  0.36194100  0.84007400  1
  Bi  Bi59  1  0.25000000  0.85167700  0.00000000  1
  Bi  Bi60  1  0.75000000  0.85167700  0.50000000  1
  Bi  Bi61  1  0.71256000  0.13805900  0.34007400  1
  Bi  Bi62  1  0.28744000  0.13805900  0.84007400  1
  Bi  Bi63  1  0.28744000  0.86194100  0.65992600  1
  Bi  Bi64  1  0.21256000  0.13805900  0.15992600  1
  Bi  Bi65  1  0.78744000  0.86194100  0.84007400  1
  Bi  Bi66  1  0.71256000  0.86194100  0.15992600  1
  Bi  Bi67  1  0.25000000  0.14832300  0.50000000  1
  Bi  Bi68  1  0.78744000  0.13805900  0.65992600  1
  Bi  Bi69  1  0.25000000  0.64832300  0.50000000  1
  Bi  Bi70  1  0.21256000  0.86194100  0.34007400  1
  Bi  Bi71  1  0.75000000  0.35167700  0.50000000  1
