# generated using pymatgen
data_Ba3Bi2(PO4)4
_symmetry_space_group_name_H-M   'P 1'
_cell_length_a   20.82755400
_cell_length_b   8.87455000
_cell_length_c   8.85910946
_cell_angle_alpha   90.00000000
_cell_angle_beta   109.84306125
_cell_angle_gamma   90.00000000
_symmetry_Int_Tables_number   1
_chemical_formula_structural   Ba3Bi2(PO4)4
_chemical_formula_sum   'Ba12 Bi8 P16 O64'
_cell_volume   1540.25142840
_cell_formula_units_Z   4
loop_
 _symmetry_equiv_pos_site_id
 _symmetry_equiv_pos_as_xyz
  1  'x, y, z'
loop_
 _atom_site_type_symbol
 _atom_site_label
 _atom_site_symmetry_multiplicity
 _atom_site_fract_x
 _atom_site_fract_y
 _atom_site_fract_z
 _atom_site_occupancy
  Ba  Ba0  1  0.28372000  0.43870600  0.22674500  1
  Ba  Ba1  1  0.00000000  0.94506100  0.75000000  1
  Ba  Ba2  1  0.00000000  0.05493900  0.25000000  1
  Ba  Ba3  1  0.21628000  0.93870600  0.27325500  1
  Ba  Ba4  1  0.21628000  0.06129400  0.77325500  1
  Ba  Ba5  1  0.28372000  0.56129400  0.72674500  1
  Ba  Ba6  1  0.78372000  0.93870600  0.22674500  1
  Ba  Ba7  1  0.50000000  0.44506100  0.75000000  1
  Ba  Ba8  1  0.50000000  0.55493900  0.25000000  1
  Ba  Ba9  1  0.71628000  0.43870600  0.27325500  1
  Ba  Ba10  1  0.71628000  0.56129400  0.77325500  1
  Ba  Ba11  1  0.78372000  0.06129400  0.72674500  1
  Bi  Bi12  1  0.41781100  0.05709800  0.31261300  1
  Bi  Bi13  1  0.08218900  0.44290200  0.68738700  1
  Bi  Bi14  1  0.08218900  0.55709800  0.18738700  1
  Bi  Bi15  1  0.41781100  0.94290200  0.81261300  1
  Bi  Bi16  1  0.91781100  0.55709800  0.31261300  1
  Bi  Bi17  1  0.58218900  0.94290200  0.68738700  1
  Bi  Bi18  1  0.58218900  0.05709800  0.18738700  1
  Bi  Bi19  1  0.91781100  0.44290200  0.81261300  1
  P  P20  1  0.35492500  0.19305700  0.54919300  1
  P  P21  1  0.38930100  0.28723800  0.01099900  1
  P  P22  1  0.38930100  0.71276200  0.51099900  1
  P  P23  1  0.14507500  0.69305700  0.95080700  1
  P  P24  1  0.14507500  0.30694300  0.45080700  1
  P  P25  1  0.11069900  0.78723800  0.48900100  1
  P  P26  1  0.35492500  0.80694300  0.04919300  1
  P  P27  1  0.11069900  0.21276200  0.98900100  1
  P  P28  1  0.85492500  0.69305700  0.54919300  1
  P  P29  1  0.88930100  0.78723800  0.01099900  1
  P  P30  1  0.88930100  0.21276200  0.51099900  1
  P  P31  1  0.64507500  0.19305700  0.95080700  1
  P  P32  1  0.64507500  0.80694300  0.45080700  1
  P  P33  1  0.61069900  0.28723800  0.48900100  1
  P  P34  1  0.85492500  0.30694300  0.04919300  1
  P  P35  1  0.61069900  0.71276200  0.98900100  1
  O  O36  1  0.07758400  0.37245100  0.99745400  1
  O  O37  1  0.09528300  0.19431700  0.80126000  1
  O  O38  1  0.32922000  0.07180100  0.64559700  1
  O  O39  1  0.42241600  0.87245100  0.50254600  1
  O  O40  1  0.32685450  0.85768950  0.86584300  1
  O  O41  1  0.09528300  0.80568300  0.30126000  1
  O  O42  1  0.43388100  0.17973700  0.60035100  1
  O  O43  1  0.32854200  0.64973100  0.06089100  1
  O  O44  1  0.31167150  0.28983650  0.92478200  1
  O  O45  1  0.40471700  0.30568300  0.19874000  1
  O  O46  1  0.17145800  0.14973100  0.43910900  1
  O  O47  1  0.17314550  0.64231050  0.13415700  1
  O  O48  1  0.43388100  0.82026300  0.10035100  1
  O  O49  1  0.07385350  0.91325350  0.54632300  1
  O  O50  1  0.18832850  0.21016350  0.07521800  1
  O  O51  1  0.42241600  0.12754900  0.00254600  1
  O  O52  1  0.06611900  0.32026300  0.39964900  1
  O  O53  1  0.17314550  0.35768950  0.63415700  1
  O  O54  1  0.32854200  0.35026900  0.56089100  1
  O  O55  1  0.17078000  0.42819900  0.35440300  1
  O  O56  1  0.40471700  0.69431700  0.69874000  1
  O  O57  1  0.31167150  0.71016350  0.42478200  1
  O  O58  1  0.42614650  0.41325350  0.95367700  1
  O  O59  1  0.18832850  0.78983650  0.57521800  1
  O  O60  1  0.32922000  0.92819900  0.14559700  1
  O  O61  1  0.06611900  0.67973700  0.89964900  1
  O  O62  1  0.07758400  0.62754900  0.49745400  1
  O  O63  1  0.42614650  0.58674650  0.45367700  1
  O  O64  1  0.17078000  0.57180100  0.85440300  1
  O  O65  1  0.17145800  0.85026900  0.93910900  1
  O  O66  1  0.07385350  0.08674650  0.04632300  1
  O  O67  1  0.32685450  0.14231050  0.36584300  1
  O  O68  1  0.57758400  0.87245100  0.99745400  1
  O  O69  1  0.59528300  0.69431700  0.80126000  1
  O  O70  1  0.82922000  0.57180100  0.64559700  1
  O  O71  1  0.92241600  0.37245100  0.50254600  1
  O  O72  1  0.82685450  0.35768950  0.86584300  1
  O  O73  1  0.59528300  0.30568300  0.30126000  1
  O  O74  1  0.93388100  0.67973700  0.60035100  1
  O  O75  1  0.82854200  0.14973100  0.06089100  1
  O  O76  1  0.81167150  0.78983650  0.92478200  1
  O  O77  1  0.90471700  0.80568300  0.19874000  1
  O  O78  1  0.67145800  0.64973100  0.43910900  1
  O  O79  1  0.67314550  0.14231050  0.13415700  1
  O  O80  1  0.93388100  0.32026300  0.10035100  1
  O  O81  1  0.57385350  0.41325350  0.54632300  1
  O  O82  1  0.68832850  0.71016350  0.07521800  1
  O  O83  1  0.92241600  0.62754900  0.00254600  1
  O  O84  1  0.56611900  0.82026300  0.39964900  1
  O  O85  1  0.67314550  0.85768950  0.63415700  1
  O  O86  1  0.82854200  0.85026900  0.56089100  1
  O  O87  1  0.67078000  0.92819900  0.35440300  1
  O  O88  1  0.90471700  0.19431700  0.69874000  1
  O  O89  1  0.81167150  0.21016350  0.42478200  1
  O  O90  1  0.92614650  0.91325350  0.95367700  1
  O  O91  1  0.68832850  0.28983650  0.57521800  1
  O  O92  1  0.82922000  0.42819900  0.14559700  1
  O  O93  1  0.56611900  0.17973700  0.89964900  1
  O  O94  1  0.57758400  0.12754900  0.49745400  1
  O  O95  1  0.92614650  0.08674650  0.45367700  1
  O  O96  1  0.67078000  0.07180100  0.85440300  1
  O  O97  1  0.67145800  0.35026900  0.93910900  1
  O  O98  1  0.57385350  0.58674650  0.04632300  1
  O  O99  1  0.82685450  0.64231050  0.36584300  1
