# generated using pymatgen
data_Nb2TlPS10
_symmetry_space_group_name_H-M   'P 1'
_cell_length_a   7.25842300
_cell_length_b   7.74367000
_cell_length_c   13.18584425
_cell_angle_alpha   90.00000000
_cell_angle_beta   106.80295827
_cell_angle_gamma   90.00000000
_symmetry_Int_Tables_number   1
_chemical_formula_structural   Nb2TlPS10
_chemical_formula_sum   'Nb4 Tl2 P2 S20'
_cell_volume   709.49148270
_cell_formula_units_Z   2
loop_
 _symmetry_equiv_pos_site_id
 _symmetry_equiv_pos_as_xyz
  1  'x, y, z'
loop_
 _atom_site_type_symbol
 _atom_site_label
 _atom_site_symmetry_multiplicity
 _atom_site_fract_x
 _atom_site_fract_y
 _atom_site_fract_z
 _atom_site_occupancy
  Nb  Nb0  1  0.68351600  0.55586900  0.84105300  1
  Nb  Nb1  1  0.68351600  0.44413100  0.34105300  1
  Nb  Nb2  1  0.67694900  0.56210200  0.12980100  1
  Nb  Nb3  1  0.67694900  0.43789800  0.62980100  1
  Tl  Tl4  1  0.26195500  0.00721900  0.39224100  1
  Tl  Tl5  1  0.26195500  0.99278100  0.89224100  1
  P  P6  1  0.82784500  0.89308000  0.00872300  1
  P  P7  1  0.82784500  0.10692000  0.50872300  1
  S  S8  1  0.63675800  0.10693300  0.59901600  1
  S  S9  1  0.93249500  0.36115300  0.52704300  1
  S  S10  1  0.61544300  0.65896500  0.47617500  1
  S  S11  1  0.94491500  0.60864400  0.75126100  1
  S  S12  1  0.42445800  0.37633000  0.17468200  1
  S  S13  1  0.93126000  0.36092200  0.80265300  1
  S  S14  1  0.93126000  0.63907800  0.30265300  1
  S  S15  1  0.68423600  0.89396200  0.84873600  1
  S  S16  1  0.02607800  0.92341600  0.55375800  1
  S  S17  1  0.93249500  0.63884700  0.02704300  1
  S  S18  1  0.42445800  0.62367000  0.67468200  1
  S  S19  1  0.42990000  0.54765800  0.94570700  1
  S  S20  1  0.63675800  0.89306700  0.09901600  1
  S  S21  1  0.42394100  0.37273900  0.71847200  1
  S  S22  1  0.42394100  0.62726100  0.21847200  1
  S  S23  1  0.61544300  0.34103500  0.97617500  1
  S  S24  1  0.94491500  0.39135600  0.25126100  1
  S  S25  1  0.68423600  0.10603800  0.34873600  1
  S  S26  1  0.42990000  0.45234200  0.44570700  1
  S  S27  1  0.02607800  0.07658400  0.05375800  1
