# generated using pymatgen
data_RbMgAs(H6O5)2
_symmetry_space_group_name_H-M   'P 1'
_cell_length_a   6.25825100
_cell_length_b   7.08025900
_cell_length_c   11.52188400
_cell_angle_alpha   90.00000000
_cell_angle_beta   90.00000000
_cell_angle_gamma   90.00000000
_symmetry_Int_Tables_number   1
_chemical_formula_structural   RbMgAs(H6O5)2
_chemical_formula_sum   'Rb2 Mg2 As2 H24 O20'
_cell_volume   510.53511749
_cell_formula_units_Z   2
loop_
 _symmetry_equiv_pos_site_id
 _symmetry_equiv_pos_as_xyz
  1  'x, y, z'
loop_
 _atom_site_type_symbol
 _atom_site_label
 _atom_site_symmetry_multiplicity
 _atom_site_fract_x
 _atom_site_fract_y
 _atom_site_fract_z
 _atom_site_occupancy
  Rb  Rb0  1  0.64354700  0.00000000  0.26193000  1
  Rb  Rb1  1  0.35645300  0.50000000  0.76193000  1
  Mg  Mg2  1  0.61297200  0.00000000  0.61230700  1
  Mg  Mg3  1  0.38702800  0.50000000  0.11230700  1
  As  As4  1  0.97728600  0.50000000  0.48134700  1
  As  As5  1  0.02271400  0.00000000  0.98134700  1
  H  H6  1  0.64515400  0.25894000  0.98080000  1
  H  H7  1  0.80931300  0.31958800  0.68428400  1
  H  H8  1  0.72011000  0.50000000  0.27573700  1
  H  H9  1  0.40730000  0.82023000  0.96677100  1
  H  H10  1  0.19068700  0.81958800  0.18428400  1
  H  H11  1  0.35484600  0.24106000  0.48080000  1
  H  H12  1  0.83334600  0.50000000  0.14860500  1
  H  H13  1  0.64515400  0.74106000  0.98080000  1
  H  H14  1  0.40730000  0.17977000  0.96677100  1
  H  H15  1  0.98937500  0.11435500  0.49335600  1
  H  H16  1  0.21263500  0.69989500  0.30108400  1
  H  H17  1  0.19068700  0.18041200  0.18428400  1
  H  H18  1  0.21263500  0.30010500  0.30108400  1
  H  H19  1  0.59270000  0.67977000  0.46677100  1
  H  H20  1  0.80931300  0.68041200  0.68428400  1
  H  H21  1  0.01062500  0.38564500  0.99335600  1
  H  H22  1  0.98937500  0.88564500  0.49335600  1
  H  H23  1  0.35484600  0.75894000  0.48080000  1
  H  H24  1  0.27989000  0.00000000  0.77573700  1
  H  H25  1  0.78736500  0.80010500  0.80108400  1
  H  H26  1  0.16665400  0.00000000  0.64860500  1
  H  H27  1  0.59270000  0.32023000  0.46677100  1
  H  H28  1  0.01062500  0.61435500  0.99335600  1
  H  H29  1  0.78736500  0.19989500  0.80108400  1
  O  O30  1  0.94952100  0.50000000  0.62970400  1
  O  O31  1  0.72682400  0.50000000  0.41679100  1
  O  O32  1  0.49164400  0.29223300  0.99519800  1
  O  O33  1  0.27317600  0.00000000  0.91679100  1
  O  O34  1  0.50835600  0.79223300  0.49519800  1
  O  O35  1  0.28039000  0.28082900  0.22296600  1
  O  O36  1  0.89082000  0.79890000  0.93604100  1
  O  O37  1  0.89082000  0.20110000  0.93604100  1
  O  O38  1  0.10918000  0.29890000  0.43604100  1
  O  O39  1  0.05047900  0.00000000  0.12970400  1
  O  O40  1  0.28039000  0.71917100  0.22296600  1
  O  O41  1  0.92681100  0.00000000  0.53352900  1
  O  O42  1  0.69476200  0.50000000  0.18897100  1
  O  O43  1  0.49164400  0.70776700  0.99519800  1
  O  O44  1  0.07318900  0.50000000  0.03352900  1
  O  O45  1  0.10918000  0.70110000  0.43604100  1
  O  O46  1  0.71961000  0.21917100  0.72296600  1
  O  O47  1  0.50835600  0.20776700  0.49519800  1
  O  O48  1  0.30523800  0.00000000  0.68897100  1
  O  O49  1  0.71961000  0.78082900  0.72296600  1
