# generated using pymatgen
data_Si3Bi2O9
_symmetry_space_group_name_H-M   'P 1'
_cell_length_a   6.89854005
_cell_length_b   6.89854005
_cell_length_c   9.75470600
_cell_angle_alpha   90.00000000
_cell_angle_beta   90.00000000
_cell_angle_gamma   120.00000000
_symmetry_Int_Tables_number   1
_chemical_formula_structural   Si3Bi2O9
_chemical_formula_sum   'Si6 Bi4 O18'
_cell_volume   402.03067954
_cell_formula_units_Z   2
loop_
 _symmetry_equiv_pos_site_id
 _symmetry_equiv_pos_as_xyz
  1  'x, y, z'
loop_
 _atom_site_type_symbol
 _atom_site_label
 _atom_site_symmetry_multiplicity
 _atom_site_fract_x
 _atom_site_fract_y
 _atom_site_fract_z
 _atom_site_occupancy
  Si  Si0  1  0.27775600  0.06088600  0.25000000  1
  Si  Si1  1  0.93911400  0.21687000  0.25000000  1
  Si  Si2  1  0.72224400  0.93911400  0.75000000  1
  Si  Si3  1  0.21687000  0.27775600  0.75000000  1
  Si  Si4  1  0.78313000  0.72224400  0.25000000  1
  Si  Si5  1  0.06088600  0.78313000  0.75000000  1
  Bi  Bi6  1  0.33333333  0.66666667  0.02055100  1
  Bi  Bi7  1  0.33333333  0.66666667  0.47944900  1
  Bi  Bi8  1  0.66666667  0.33333333  0.52055100  1
  Bi  Bi9  1  0.66666667  0.33333333  0.97944900  1
  O  O10  1  0.24582100  0.05290000  0.75000000  1
  O  O11  1  0.92832500  0.34118500  0.11038100  1
  O  O12  1  0.41286000  0.07167500  0.38961900  1
  O  O13  1  0.19292100  0.24582100  0.25000000  1
  O  O14  1  0.80707900  0.75417900  0.75000000  1
  O  O15  1  0.34118500  0.41286000  0.88961900  1
  O  O16  1  0.34118500  0.41286000  0.61038100  1
  O  O17  1  0.05290000  0.80707900  0.25000000  1
  O  O18  1  0.75417900  0.94710000  0.25000000  1
  O  O19  1  0.65881500  0.58714000  0.11038100  1
  O  O20  1  0.07167500  0.65881500  0.88961900  1
  O  O21  1  0.65881500  0.58714000  0.38961900  1
  O  O22  1  0.58714000  0.92832500  0.61038100  1
  O  O23  1  0.58714000  0.92832500  0.88961900  1
  O  O24  1  0.94710000  0.19292100  0.75000000  1
  O  O25  1  0.07167500  0.65881500  0.61038100  1
  O  O26  1  0.41286000  0.07167500  0.11038100  1
  O  O27  1  0.92832500  0.34118500  0.38961900  1
