# generated using pymatgen
data_Cu2SeO4
_symmetry_space_group_name_H-M   'P 1'
_cell_length_a   9.03150400
_cell_length_b   9.03150400
_cell_length_c   9.03150400
_cell_angle_alpha   90.00000000
_cell_angle_beta   90.00000000
_cell_angle_gamma   90.00000000
_symmetry_Int_Tables_number   1
_chemical_formula_structural   Cu2SeO4
_chemical_formula_sum   'Cu16 Se8 O32'
_cell_volume   736.68230082
_cell_formula_units_Z   8
loop_
 _symmetry_equiv_pos_site_id
 _symmetry_equiv_pos_as_xyz
  1  'x, y, z'
loop_
 _atom_site_type_symbol
 _atom_site_label
 _atom_site_symmetry_multiplicity
 _atom_site_fract_x
 _atom_site_fract_y
 _atom_site_fract_z
 _atom_site_occupancy
  Cu  Cu0  1  0.87803200  0.37358800  0.36822200  1
  Cu  Cu1  1  0.87358800  0.13177800  0.12196800  1
  Cu  Cu2  1  0.12641200  0.63177800  0.37803200  1
  Cu  Cu3  1  0.13177800  0.12196800  0.87358800  1
  Cu  Cu4  1  0.62196800  0.62641200  0.86822200  1
  Cu  Cu5  1  0.63177800  0.37803200  0.12641200  1
  Cu  Cu6  1  0.62641200  0.86822200  0.62196800  1
  Cu  Cu7  1  0.86822200  0.62196800  0.62641200  1
  Cu  Cu8  1  0.88182400  0.88182400  0.88182400  1
  Cu  Cu9  1  0.37358800  0.36822200  0.87803200  1
  Cu  Cu10  1  0.36822200  0.87803200  0.37358800  1
  Cu  Cu11  1  0.38182400  0.61817600  0.11817600  1
  Cu  Cu12  1  0.12196800  0.87358800  0.13177800  1
  Cu  Cu13  1  0.11817600  0.38182400  0.61817600  1
  Cu  Cu14  1  0.37803200  0.12641200  0.63177800  1
  Cu  Cu15  1  0.61817600  0.11817600  0.38182400  1
  Se  Se16  1  0.28868200  0.78868200  0.71131800  1
  Se  Se17  1  0.54050100  0.95949900  0.04050100  1
  Se  Se18  1  0.78868200  0.71131800  0.28868200  1
  Se  Se19  1  0.21131800  0.21131800  0.21131800  1
  Se  Se20  1  0.45949900  0.45949900  0.45949900  1
  Se  Se21  1  0.04050100  0.54050100  0.95949900  1
  Se  Se22  1  0.71131800  0.28868200  0.78868200  1
  Se  Se23  1  0.95949900  0.04050100  0.54050100  1
  O  O24  1  0.50863600  0.49136400  0.99136400  1
  O  O25  1  0.68776600  0.47016700  0.72981600  1
  O  O26  1  0.02983300  0.27018400  0.18776600  1
  O  O27  1  0.24022300  0.25977700  0.74022300  1
  O  O28  1  0.99136400  0.50863600  0.49136400  1
  O  O29  1  0.27018400  0.18776600  0.02983300  1
  O  O30  1  0.48285200  0.46848100  0.26687700  1
  O  O31  1  0.03151900  0.73312300  0.98285200  1
  O  O32  1  0.47016700  0.72981600  0.68776600  1
  O  O33  1  0.49136400  0.99136400  0.50863600  1
  O  O34  1  0.81223400  0.52983300  0.22981600  1
  O  O35  1  0.46848100  0.26687700  0.48285200  1
  O  O36  1  0.01714800  0.53151900  0.76687700  1
  O  O37  1  0.31223400  0.97016700  0.77018400  1
  O  O38  1  0.52983300  0.22981600  0.81223400  1
  O  O39  1  0.77018400  0.31223400  0.97016700  1
  O  O40  1  0.97016700  0.77018400  0.31223400  1
  O  O41  1  0.98285200  0.03151900  0.73312300  1
  O  O42  1  0.18776600  0.02983300  0.27018400  1
  O  O43  1  0.00863600  0.00863600  0.00863600  1
  O  O44  1  0.73312300  0.98285200  0.03151900  1
  O  O45  1  0.51714800  0.96848100  0.23312300  1
  O  O46  1  0.53151900  0.76687700  0.01714800  1
  O  O47  1  0.72981600  0.68776600  0.47016700  1
  O  O48  1  0.22981600  0.81223400  0.52983300  1
  O  O49  1  0.74022300  0.24022300  0.25977700  1
  O  O50  1  0.96848100  0.23312300  0.51714800  1
  O  O51  1  0.76687700  0.01714800  0.53151900  1
  O  O52  1  0.25977700  0.74022300  0.24022300  1
  O  O53  1  0.75977700  0.75977700  0.75977700  1
  O  O54  1  0.23312300  0.51714800  0.96848100  1
  O  O55  1  0.26687700  0.48285200  0.46848100  1
