# generated using pymatgen
data_Rb3Al2(PO4)3
_symmetry_space_group_name_H-M   'P 1'
_cell_length_a   8.77818400
_cell_length_b   17.37460200
_cell_length_c   8.95670400
_cell_angle_alpha   90.00000000
_cell_angle_beta   90.00000000
_cell_angle_gamma   90.00000000
_symmetry_Int_Tables_number   1
_chemical_formula_structural   Rb3Al2(PO4)3
_chemical_formula_sum   'Rb12 Al8 P12 O48'
_cell_volume   1366.05368389
_cell_formula_units_Z   4
loop_
 _symmetry_equiv_pos_site_id
 _symmetry_equiv_pos_as_xyz
  1  'x, y, z'
loop_
 _atom_site_type_symbol
 _atom_site_label
 _atom_site_symmetry_multiplicity
 _atom_site_fract_x
 _atom_site_fract_y
 _atom_site_fract_z
 _atom_site_occupancy
  Rb  Rb0  1  0.04705250  0.88530450  0.52645700  1
  Rb  Rb1  1  0.95294750  0.88530450  0.02645700  1
  Rb  Rb2  1  0.35735200  0.00000000  0.82177300  1
  Rb  Rb3  1  0.54705250  0.61469550  0.52645700  1
  Rb  Rb4  1  0.45294750  0.61469550  0.02645700  1
  Rb  Rb5  1  0.64264800  0.00000000  0.32177300  1
  Rb  Rb6  1  0.54705250  0.38530450  0.52645700  1
  Rb  Rb7  1  0.45294750  0.38530450  0.02645700  1
  Rb  Rb8  1  0.85735200  0.50000000  0.82177300  1
  Rb  Rb9  1  0.04705250  0.11469550  0.52645700  1
  Rb  Rb10  1  0.95294750  0.11469550  0.02645700  1
  Rb  Rb11  1  0.14264800  0.50000000  0.32177300  1
  Al  Al12  1  0.84677550  0.66739550  0.18097500  1
  Al  Al13  1  0.15322450  0.66739550  0.68097500  1
  Al  Al14  1  0.65322450  0.83260450  0.68097500  1
  Al  Al15  1  0.34677550  0.83260450  0.18097500  1
  Al  Al16  1  0.34677550  0.16739550  0.18097500  1
  Al  Al17  1  0.65322450  0.16739550  0.68097500  1
  Al  Al18  1  0.15322450  0.33260450  0.68097500  1
  Al  Al19  1  0.84677550  0.33260450  0.18097500  1
  P  P20  1  0.17093400  0.70484900  0.34085200  1
  P  P21  1  0.76580500  0.00000000  0.74703200  1
  P  P22  1  0.23419500  0.00000000  0.24703200  1
  P  P23  1  0.32906600  0.79515100  0.84085200  1
  P  P24  1  0.67093400  0.79515100  0.34085200  1
  P  P25  1  0.82906600  0.70484900  0.84085200  1
  P  P26  1  0.67093400  0.20484900  0.34085200  1
  P  P27  1  0.26580500  0.50000000  0.74703200  1
  P  P28  1  0.73419500  0.50000000  0.24703200  1
  P  P29  1  0.82906600  0.29515100  0.84085200  1
  P  P30  1  0.17093400  0.29515100  0.34085200  1
  P  P31  1  0.32906600  0.20484900  0.84085200  1
  O  O32  1  0.20377750  0.57094950  0.65028500  1
  O  O33  1  0.30399850  0.65222450  0.31185800  1
  O  O34  1  0.97721950  0.67158350  0.77061200  1
  O  O35  1  0.86426950  0.71653650  0.01033500  1
  O  O36  1  0.30474900  0.71139000  0.77976200  1
  O  O37  1  0.80474900  0.78861000  0.77976200  1
  O  O38  1  0.29622250  0.92905050  0.15028500  1
  O  O39  1  0.30488100  0.00000000  0.40213700  1
  O  O40  1  0.79622250  0.57094950  0.15028500  1
  O  O41  1  0.70377750  0.92905050  0.65028500  1
  O  O42  1  0.63573050  0.78346350  0.51033500  1
  O  O43  1  0.52278050  0.82841650  0.27061200  1
  O  O44  1  0.69600150  0.65222450  0.81185800  1
  O  O45  1  0.06059300  0.00000000  0.24366700  1
  O  O46  1  0.47721950  0.82841650  0.77061200  1
  O  O47  1  0.69511900  0.00000000  0.90213700  1
  O  O48  1  0.19525100  0.78861000  0.27976200  1
  O  O49  1  0.93940700  0.00000000  0.74366700  1
  O  O50  1  0.69525100  0.71139000  0.27976200  1
  O  O51  1  0.36426950  0.78346350  0.01033500  1
  O  O52  1  0.13573050  0.71653650  0.51033500  1
  O  O53  1  0.80399850  0.84777550  0.31185800  1
  O  O54  1  0.19600150  0.84777550  0.81185800  1
  O  O55  1  0.02278050  0.67158350  0.27061200  1
  O  O56  1  0.70377750  0.07094950  0.65028500  1
  O  O57  1  0.80399850  0.15222450  0.31185800  1
  O  O58  1  0.47721950  0.17158350  0.77061200  1
  O  O59  1  0.36426950  0.21653650  0.01033500  1
  O  O60  1  0.80474900  0.21139000  0.77976200  1
  O  O61  1  0.30474900  0.28861000  0.77976200  1
  O  O62  1  0.79622250  0.42905050  0.15028500  1
  O  O63  1  0.80488100  0.50000000  0.40213700  1
  O  O64  1  0.29622250  0.07094950  0.15028500  1
  O  O65  1  0.20377750  0.42905050  0.65028500  1
  O  O66  1  0.13573050  0.28346350  0.51033500  1
  O  O67  1  0.02278050  0.32841650  0.27061200  1
  O  O68  1  0.19600150  0.15222450  0.81185800  1
  O  O69  1  0.56059300  0.50000000  0.24366700  1
  O  O70  1  0.97721950  0.32841650  0.77061200  1
  O  O71  1  0.19511900  0.50000000  0.90213700  1
  O  O72  1  0.69525100  0.28861000  0.27976200  1
  O  O73  1  0.43940700  0.50000000  0.74366700  1
  O  O74  1  0.19525100  0.21139000  0.27976200  1
  O  O75  1  0.86426950  0.28346350  0.01033500  1
  O  O76  1  0.63573050  0.21653650  0.51033500  1
  O  O77  1  0.30399850  0.34777550  0.31185800  1
  O  O78  1  0.69600150  0.34777550  0.81185800  1
  O  O79  1  0.52278050  0.17158350  0.27061200  1
