# generated using pymatgen
data_Sr4Ti5(Si2O11)2
_symmetry_space_group_name_H-M   'P 1'
_cell_length_a   14.13650400
_cell_length_b   5.68281800
_cell_length_c   12.00765735
_cell_angle_alpha   90.00000000
_cell_angle_beta   114.45514587
_cell_angle_gamma   90.00000000
_symmetry_Int_Tables_number   1
_chemical_formula_structural   Sr4Ti5(Si2O11)2
_chemical_formula_sum   'Sr8 Ti10 Si8 O44'
_cell_volume   878.09548412
_cell_formula_units_Z   2
loop_
 _symmetry_equiv_pos_site_id
 _symmetry_equiv_pos_as_xyz
  1  'x, y, z'
loop_
 _atom_site_type_symbol
 _atom_site_label
 _atom_site_symmetry_multiplicity
 _atom_site_fract_x
 _atom_site_fract_y
 _atom_site_fract_z
 _atom_site_occupancy
  Sr  Sr0  1  0.95376500  0.00000000  0.26036200  1
  Sr  Sr1  1  0.26508000  0.50000000  0.73273500  1
  Sr  Sr2  1  0.04623500  0.00000000  0.73963800  1
  Sr  Sr3  1  0.73492000  0.50000000  0.26726500  1
  Sr  Sr4  1  0.45376500  0.50000000  0.26036200  1
  Sr  Sr5  1  0.76508000  0.00000000  0.73273500  1
  Sr  Sr6  1  0.54623500  0.50000000  0.73963800  1
  Sr  Sr7  1  0.23492000  0.00000000  0.26726500  1
  Ti  Ti8  1  0.00000000  0.75764400  0.00000000  1
  Ti  Ti9  1  0.00000000  0.50000000  0.50000000  1
  Ti  Ti10  1  0.22548000  0.50000000  0.99924400  1
  Ti  Ti11  1  0.00000000  0.24235600  0.00000000  1
  Ti  Ti12  1  0.77452000  0.50000000  0.00075600  1
  Ti  Ti13  1  0.50000000  0.25764400  0.00000000  1
  Ti  Ti14  1  0.50000000  0.00000000  0.50000000  1
  Ti  Ti15  1  0.72548000  0.00000000  0.99924400  1
  Ti  Ti16  1  0.50000000  0.74235600  0.00000000  1
  Ti  Ti17  1  0.27452000  0.00000000  0.00075600  1
  Si  Si18  1  0.09430400  0.50000000  0.27061500  1
  Si  Si19  1  0.15751100  0.00000000  0.54652800  1
  Si  Si20  1  0.84248900  0.00000000  0.45347200  1
  Si  Si21  1  0.90569600  0.50000000  0.72938500  1
  Si  Si22  1  0.59430400  0.00000000  0.27061500  1
  Si  Si23  1  0.65751100  0.50000000  0.54652800  1
  Si  Si24  1  0.34248900  0.50000000  0.45347200  1
  Si  Si25  1  0.40569600  0.00000000  0.72938500  1
  O  O26  1  0.93694250  0.26524150  0.81780100  1
  O  O27  1  0.10582300  0.23943400  0.58177300  1
  O  O28  1  0.89417700  0.23943400  0.41822700  1
  O  O29  1  0.20805450  0.74981650  0.88206700  1
  O  O30  1  0.40800200  0.50000000  0.99998000  1
  O  O31  1  0.40484300  0.00000000  0.99902400  1
  O  O32  1  0.14666600  0.00000000  0.40943800  1
  O  O33  1  0.85333400  0.00000000  0.59056200  1
  O  O34  1  0.06305750  0.26524150  0.18219900  1
  O  O35  1  0.96925500  0.50000000  0.64280200  1
  O  O36  1  0.06305750  0.73475850  0.18219900  1
  O  O37  1  0.27866500  0.00000000  0.65521800  1
  O  O38  1  0.79194550  0.25018350  0.11793300  1
  O  O39  1  0.59515700  0.00000000  0.00097600  1
  O  O40  1  0.79194550  0.74981650  0.11793300  1
  O  O41  1  0.03074500  0.50000000  0.35719800  1
  O  O42  1  0.59199800  0.50000000  0.00002000  1
  O  O43  1  0.20805450  0.25018350  0.88206700  1
  O  O44  1  0.89417700  0.76056600  0.41822700  1
  O  O45  1  0.72133500  0.00000000  0.34478200  1
  O  O46  1  0.10582300  0.76056600  0.58177300  1
  O  O47  1  0.93694250  0.73475850  0.81780100  1
  O  O48  1  0.43694250  0.76524150  0.81780100  1
  O  O49  1  0.60582300  0.73943400  0.58177300  1
  O  O50  1  0.39417700  0.73943400  0.41822700  1
  O  O51  1  0.70805450  0.24981650  0.88206700  1
  O  O52  1  0.90800200  0.00000000  0.99998000  1
  O  O53  1  0.90484300  0.50000000  0.99902400  1
  O  O54  1  0.64666600  0.50000000  0.40943800  1
  O  O55  1  0.35333400  0.50000000  0.59056200  1
  O  O56  1  0.56305750  0.76524150  0.18219900  1
  O  O57  1  0.46925500  0.00000000  0.64280200  1
  O  O58  1  0.56305750  0.23475850  0.18219900  1
  O  O59  1  0.77866500  0.50000000  0.65521800  1
  O  O60  1  0.29194550  0.75018350  0.11793300  1
  O  O61  1  0.09515700  0.50000000  0.00097600  1
  O  O62  1  0.29194550  0.24981650  0.11793300  1
  O  O63  1  0.53074500  0.00000000  0.35719800  1
  O  O64  1  0.09199800  0.00000000  0.00002000  1
  O  O65  1  0.70805450  0.75018350  0.88206700  1
  O  O66  1  0.39417700  0.26056600  0.41822700  1
  O  O67  1  0.22133500  0.50000000  0.34478200  1
  O  O68  1  0.60582300  0.26056600  0.58177300  1
  O  O69  1  0.43694250  0.23475850  0.81780100  1
