# generated using pymatgen
data_Ba2TaBiO6
_symmetry_space_group_name_H-M   'P 1'
_cell_length_a   10.57380400
_cell_length_b   6.10668000
_cell_length_c   6.16693836
_cell_angle_alpha   90.00000000
_cell_angle_beta   125.27805093
_cell_angle_gamma   90.00000000
_symmetry_Int_Tables_number   1
_chemical_formula_structural   Ba2TaBiO6
_chemical_formula_sum   'Ba4 Ta2 Bi2 O12'
_cell_volume   325.07768384
_cell_formula_units_Z   2
loop_
 _symmetry_equiv_pos_site_id
 _symmetry_equiv_pos_as_xyz
  1  'x, y, z'
loop_
 _atom_site_type_symbol
 _atom_site_label
 _atom_site_symmetry_multiplicity
 _atom_site_fract_x
 _atom_site_fract_y
 _atom_site_fract_z
 _atom_site_occupancy
  Ba  Ba0  1  0.74907100  0.50000000  0.24493600  1
  Ba  Ba1  1  0.75092900  0.00000000  0.75506400  1
  Ba  Ba2  1  0.24907100  0.00000000  0.24493600  1
  Ba  Ba3  1  0.25092900  0.50000000  0.75506400  1
  Ta  Ta4  1  0.00000000  0.50000000  0.00000000  1
  Ta  Ta5  1  0.50000000  0.00000000  0.00000000  1
  Bi  Bi6  1  0.00000000  0.00000000  0.50000000  1
  Bi  Bi7  1  0.50000000  0.50000000  0.50000000  1
  O  O8  1  0.96710200  0.73232200  0.19473000  1
  O  O9  1  0.53289800  0.76767800  0.80527000  1
  O  O10  1  0.96710200  0.26767800  0.19473000  1
  O  O11  1  0.27086400  0.00000000  0.71060900  1
  O  O12  1  0.53289800  0.23232200  0.80527000  1
  O  O13  1  0.22913600  0.50000000  0.28939100  1
  O  O14  1  0.46710200  0.23232200  0.19473000  1
  O  O15  1  0.03289800  0.26767800  0.80527000  1
  O  O16  1  0.46710200  0.76767800  0.19473000  1
  O  O17  1  0.77086400  0.50000000  0.71060900  1
  O  O18  1  0.03289800  0.73232200  0.80527000  1
  O  O19  1  0.72913600  0.00000000  0.28939100  1
