# generated using pymatgen
data_CuHgSBr
_symmetry_space_group_name_H-M   'P 1'
_cell_length_a   4.09921900
_cell_length_b   10.16260000
_cell_length_c   19.05441400
_cell_angle_alpha   90.00000000
_cell_angle_beta   90.00000000
_cell_angle_gamma   90.00000000
_symmetry_Int_Tables_number   1
_chemical_formula_structural   CuHgSBr
_chemical_formula_sum   'Cu8 Hg8 S8 Br8'
_cell_volume   793.78255493
_cell_formula_units_Z   8
loop_
 _symmetry_equiv_pos_site_id
 _symmetry_equiv_pos_as_xyz
  1  'x, y, z'
loop_
 _atom_site_type_symbol
 _atom_site_label
 _atom_site_symmetry_multiplicity
 _atom_site_fract_x
 _atom_site_fract_y
 _atom_site_fract_z
 _atom_site_occupancy
  Cu  Cu0  1  0.00000000  0.93564000  0.08855800  1
  Cu  Cu1  1  0.00000000  0.56436000  0.58855800  1
  Cu  Cu2  1  0.00000000  0.41744600  0.88494400  1
  Cu  Cu3  1  0.00000000  0.58255400  0.11505600  1
  Cu  Cu4  1  0.00000000  0.91744600  0.61505600  1
  Cu  Cu5  1  0.00000000  0.08255400  0.38494400  1
  Cu  Cu6  1  0.00000000  0.43564000  0.41144200  1
  Cu  Cu7  1  0.00000000  0.06436000  0.91144200  1
  Hg  Hg8  1  0.50000000  0.01453600  0.75762900  1
  Hg  Hg9  1  0.50000000  0.24713500  0.61025300  1
  Hg  Hg10  1  0.50000000  0.98546400  0.24237100  1
  Hg  Hg11  1  0.50000000  0.48546400  0.25762900  1
  Hg  Hg12  1  0.50000000  0.51453600  0.74237100  1
  Hg  Hg13  1  0.50000000  0.74713500  0.88974700  1
  Hg  Hg14  1  0.50000000  0.25286500  0.11025300  1
  Hg  Hg15  1  0.50000000  0.75286500  0.38974700  1
  S  S16  1  0.50000000  0.48806100  0.61462900  1
  S  S17  1  0.50000000  0.00966500  0.62945400  1
  S  S18  1  0.50000000  0.99033500  0.37054600  1
  S  S19  1  0.50000000  0.98806100  0.88537100  1
  S  S20  1  0.50000000  0.49033500  0.12945400  1
  S  S21  1  0.50000000  0.50966500  0.87054600  1
  S  S22  1  0.50000000  0.01193900  0.11462900  1
  S  S23  1  0.50000000  0.51193900  0.38537100  1
  Br  Br24  1  0.00000000  0.73974800  0.01512300  1
  Br  Br25  1  0.00000000  0.74483400  0.22642400  1
  Br  Br26  1  0.00000000  0.75516600  0.72642400  1
  Br  Br27  1  0.00000000  0.26025200  0.98487700  1
  Br  Br28  1  0.00000000  0.76025200  0.51512300  1
  Br  Br29  1  0.00000000  0.25516600  0.77357600  1
  Br  Br30  1  0.00000000  0.24483400  0.27357600  1
  Br  Br31  1  0.00000000  0.23974800  0.48487700  1
