# generated using pymatgen
data_NaHf2VF11
_symmetry_space_group_name_H-M   'P 1'
_cell_length_a   9.24915600
_cell_length_b   6.86036200
_cell_length_c   7.81745326
_cell_angle_alpha   90.00000000
_cell_angle_beta   115.85299327
_cell_angle_gamma   90.00000000
_symmetry_Int_Tables_number   1
_chemical_formula_structural   NaHf2VF11
_chemical_formula_sum   'Na2 Hf4 V2 F22'
_cell_volume   446.39192065
_cell_formula_units_Z   2
loop_
 _symmetry_equiv_pos_site_id
 _symmetry_equiv_pos_as_xyz
  1  'x, y, z'
loop_
 _atom_site_type_symbol
 _atom_site_label
 _atom_site_symmetry_multiplicity
 _atom_site_fract_x
 _atom_site_fract_y
 _atom_site_fract_z
 _atom_site_occupancy
  Na  Na0  1  0.00000000  0.00000000  0.00000000  1
  Na  Na1  1  0.50000000  0.50000000  0.00000000  1
  Hf  Hf2  1  0.99631700  0.50000000  0.76577300  1
  Hf  Hf3  1  0.00368300  0.50000000  0.23422700  1
  Hf  Hf4  1  0.49631700  0.00000000  0.76577300  1
  Hf  Hf5  1  0.50368300  0.00000000  0.23422700  1
  V  V6  1  0.00000000  0.00000000  0.50000000  1
  V  V7  1  0.50000000  0.50000000  0.50000000  1
  F  F8  1  0.98740600  0.78911400  0.69328600  1
  F  F9  1  0.01259400  0.78911400  0.30671400  1
  F  F10  1  0.01259400  0.21088600  0.30671400  1
  F  F11  1  0.98740600  0.21088600  0.69328600  1
  F  F12  1  0.00000000  0.50000000  0.50000000  1
  F  F13  1  0.00000000  0.33241800  0.00000000  1
  F  F14  1  0.00000000  0.66758200  0.00000000  1
  F  F15  1  0.24583000  0.50000000  0.35146900  1
  F  F16  1  0.75417000  0.50000000  0.64853100  1
  F  F17  1  0.23131400  0.50000000  0.88829600  1
  F  F18  1  0.76868600  0.50000000  0.11170400  1
  F  F19  1  0.48740600  0.28911400  0.69328600  1
  F  F20  1  0.51259400  0.28911400  0.30671400  1
  F  F21  1  0.51259400  0.71088600  0.30671400  1
  F  F22  1  0.48740600  0.71088600  0.69328600  1
  F  F23  1  0.50000000  0.00000000  0.50000000  1
  F  F24  1  0.50000000  0.83241800  0.00000000  1
  F  F25  1  0.50000000  0.16758200  0.00000000  1
  F  F26  1  0.74583000  0.00000000  0.35146900  1
  F  F27  1  0.25417000  0.00000000  0.64853100  1
  F  F28  1  0.73131400  0.00000000  0.88829600  1
  F  F29  1  0.26868600  0.00000000  0.11170400  1
