# generated using pymatgen
data_Na4Cd2Si3O10
_symmetry_space_group_name_H-M   'P 1'
_cell_length_a   10.04163400
_cell_length_b   5.92417400
_cell_length_c   17.90612222
_cell_angle_alpha   90.00000000
_cell_angle_beta   99.84032225
_cell_angle_gamma   90.00000000
_symmetry_Int_Tables_number   1
_chemical_formula_structural   Na4Cd2Si3O10
_chemical_formula_sum   'Na16 Cd8 Si12 O40'
_cell_volume   1049.53487406
_cell_formula_units_Z   4
loop_
 _symmetry_equiv_pos_site_id
 _symmetry_equiv_pos_as_xyz
  1  'x, y, z'
loop_
 _atom_site_type_symbol
 _atom_site_label
 _atom_site_symmetry_multiplicity
 _atom_site_fract_x
 _atom_site_fract_y
 _atom_site_fract_z
 _atom_site_occupancy
  Na  Na0  1  0.32650500  0.10542200  0.25642900  1
  Na  Na1  1  0.32650500  0.89457800  0.75642900  1
  Na  Na2  1  0.67349500  0.89457800  0.74357100  1
  Na  Na3  1  0.75403450  0.07060850  0.56009600  1
  Na  Na4  1  0.67349500  0.10542200  0.24357100  1
  Na  Na5  1  0.24596550  0.07060850  0.93990400  1
  Na  Na6  1  0.24596550  0.92939150  0.43990400  1
  Na  Na7  1  0.75403450  0.92939150  0.06009600  1
  Na  Na8  1  0.82650500  0.60542200  0.25642900  1
  Na  Na9  1  0.82650500  0.39457800  0.75642900  1
  Na  Na10  1  0.17349500  0.39457800  0.74357100  1
  Na  Na11  1  0.25403450  0.57060850  0.56009600  1
  Na  Na12  1  0.17349500  0.60542200  0.24357100  1
  Na  Na13  1  0.74596550  0.57060850  0.93990400  1
  Na  Na14  1  0.74596550  0.42939150  0.43990400  1
  Na  Na15  1  0.25403450  0.42939150  0.06009600  1
  Cd  Cd16  1  0.40202200  0.40194400  0.41483100  1
  Cd  Cd17  1  0.40202200  0.59805600  0.91483100  1
  Cd  Cd18  1  0.59797800  0.40194400  0.08516900  1
  Cd  Cd19  1  0.59797800  0.59805600  0.58516900  1
  Cd  Cd20  1  0.90202200  0.90194400  0.41483100  1
  Cd  Cd21  1  0.90202200  0.09805600  0.91483100  1
  Cd  Cd22  1  0.09797800  0.90194400  0.08516900  1
  Cd  Cd23  1  0.09797800  0.09805600  0.58516900  1
  Si  Si24  1  0.50000000  0.61891000  0.25000000  1
  Si  Si25  1  0.43519650  0.10529650  0.60168200  1
  Si  Si26  1  0.56480350  0.10529650  0.89831800  1
  Si  Si27  1  0.56480350  0.89470350  0.39831800  1
  Si  Si28  1  0.50000000  0.38109000  0.75000000  1
  Si  Si29  1  0.43519650  0.89470350  0.10168200  1
  Si  Si30  1  0.00000000  0.11891000  0.25000000  1
  Si  Si31  1  0.93519650  0.60529650  0.60168200  1
  Si  Si32  1  0.06480350  0.60529650  0.89831800  1
  Si  Si33  1  0.06480350  0.39470350  0.39831800  1
  Si  Si34  1  0.00000000  0.88109000  0.75000000  1
  Si  Si35  1  0.93519650  0.39470350  0.10168200  1
  O  O36  1  0.41025800  0.20521800  0.68712600  1
  O  O37  1  0.10950600  0.02569600  0.71320000  1
  O  O38  1  0.57717800  0.96392900  0.61549800  1
  O  O39  1  0.57717800  0.03607100  0.11549800  1
  O  O40  1  0.43925000  0.66903800  0.04784300  1
  O  O41  1  0.69772950  0.94830650  0.92745600  1
  O  O42  1  0.10950600  0.97430400  0.21320000  1
  O  O43  1  0.58974200  0.20521800  0.81287400  1
  O  O44  1  0.41025800  0.79478200  0.18712600  1
  O  O45  1  0.43925000  0.33096200  0.54784300  1
  O  O46  1  0.30227050  0.94830650  0.57254400  1
  O  O47  1  0.58974200  0.79478200  0.31287400  1
  O  O48  1  0.89049400  0.97430400  0.28680000  1
  O  O49  1  0.30227050  0.05169350  0.07254400  1
  O  O50  1  0.56075000  0.66903800  0.45215700  1
  O  O51  1  0.69772950  0.05169350  0.42745600  1
  O  O52  1  0.56075000  0.33096200  0.95215700  1
  O  O53  1  0.89049400  0.02569600  0.78680000  1
  O  O54  1  0.42282200  0.03607100  0.38450200  1
  O  O55  1  0.42282200  0.96392900  0.88450200  1
  O  O56  1  0.91025800  0.70521800  0.68712600  1
  O  O57  1  0.60950600  0.52569600  0.71320000  1
  O  O58  1  0.07717800  0.46392900  0.61549800  1
  O  O59  1  0.07717800  0.53607100  0.11549800  1
  O  O60  1  0.93925000  0.16903800  0.04784300  1
  O  O61  1  0.19772950  0.44830650  0.92745600  1
  O  O62  1  0.60950600  0.47430400  0.21320000  1
  O  O63  1  0.08974200  0.70521800  0.81287400  1
  O  O64  1  0.91025800  0.29478200  0.18712600  1
  O  O65  1  0.93925000  0.83096200  0.54784300  1
  O  O66  1  0.80227050  0.44830650  0.57254400  1
  O  O67  1  0.08974200  0.29478200  0.31287400  1
  O  O68  1  0.39049400  0.47430400  0.28680000  1
  O  O69  1  0.80227050  0.55169350  0.07254400  1
  O  O70  1  0.06075000  0.16903800  0.45215700  1
  O  O71  1  0.19772950  0.55169350  0.42745600  1
  O  O72  1  0.06075000  0.83096200  0.95215700  1
  O  O73  1  0.39049400  0.52569600  0.78680000  1
  O  O74  1  0.92282200  0.53607100  0.38450200  1
  O  O75  1  0.92282200  0.46392900  0.88450200  1
