# generated using pymatgen
data_Pr4(GeS4)3
_symmetry_space_group_name_H-M   'P 1'
_cell_length_a   19.56259597
_cell_length_b   19.56259597
_cell_length_c   8.07797182
_cell_angle_alpha   90.00000000
_cell_angle_beta   90.00000000
_cell_angle_gamma   120.00000000
_symmetry_Int_Tables_number   1
_chemical_formula_structural   Pr4(GeS4)3
_chemical_formula_sum   'Pr24 Ge18 S72'
_cell_volume   2677.23156278
_cell_formula_units_Z   6
loop_
 _symmetry_equiv_pos_site_id
 _symmetry_equiv_pos_as_xyz
  1  'x, y, z'
loop_
 _atom_site_type_symbol
 _atom_site_label
 _atom_site_symmetry_multiplicity
 _atom_site_fract_x
 _atom_site_fract_y
 _atom_site_fract_z
 _atom_site_occupancy
  Pr  Pr0  1  0.00000000  0.00000000  0.99570500  1
  Pr  Pr1  1  0.00000000  0.00000000  0.49570500  1
  Pr  Pr2  1  0.67090400  0.10537300  0.53716500  1
  Pr  Pr3  1  0.76780233  0.99576267  0.20383167  1
  Pr  Pr4  1  0.56129367  0.89886433  0.87049833  1
  Pr  Pr5  1  0.89462700  0.32909600  0.03716500  1
  Pr  Pr6  1  0.10113567  0.43870633  0.37049833  1
  Pr  Pr7  1  0.00423733  0.23219767  0.70383167  1
  Pr  Pr8  1  0.66666667  0.33333333  0.32903833  1
  Pr  Pr9  1  0.66666667  0.33333333  0.82903833  1
  Pr  Pr10  1  0.33757067  0.43870633  0.87049833  1
  Pr  Pr11  1  0.43446900  0.32909600  0.53716500  1
  Pr  Pr12  1  0.22796033  0.23219767  0.20383167  1
  Pr  Pr13  1  0.56129367  0.66242933  0.37049833  1
  Pr  Pr14  1  0.76780233  0.77203967  0.70383167  1
  Pr  Pr15  1  0.67090400  0.56553100  0.03716500  1
  Pr  Pr16  1  0.33333333  0.66666667  0.66237167  1
  Pr  Pr17  1  0.33333333  0.66666667  0.16237167  1
  Pr  Pr18  1  0.00423733  0.77203967  0.20383167  1
  Pr  Pr19  1  0.10113567  0.66242933  0.87049833  1
  Pr  Pr20  1  0.89462700  0.56553100  0.53716500  1
  Pr  Pr21  1  0.22796033  0.99576267  0.70383167  1
  Pr  Pr22  1  0.43446900  0.10537300  0.03716500  1
  Pr  Pr23  1  0.33757067  0.89886433  0.37049833  1
  Ge  Ge24  1  0.86647300  0.34557600  0.48606300  1
  Ge  Ge25  1  0.14576967  0.46686033  0.81939633  1
  Ge  Ge26  1  0.98775733  0.18756367  0.15272967  1
  Ge  Ge27  1  0.65442400  0.13352700  0.98606300  1
  Ge  Ge28  1  0.81243633  0.01224267  0.65272967  1
  Ge  Ge29  1  0.53313967  0.85423033  0.31939633  1
  Ge  Ge30  1  0.53313967  0.67890933  0.81939633  1
  Ge  Ge31  1  0.81243633  0.80019367  0.15272967  1
  Ge  Ge32  1  0.65442400  0.52089700  0.48606300  1
  Ge  Ge33  1  0.32109067  0.46686033  0.31939633  1
  Ge  Ge34  1  0.47910300  0.34557600  0.98606300  1
  Ge  Ge35  1  0.19980633  0.18756367  0.65272967  1
  Ge  Ge36  1  0.19980633  0.01224267  0.15272967  1
  Ge  Ge37  1  0.47910300  0.13352700  0.48606300  1
  Ge  Ge38  1  0.32109067  0.85423033  0.81939633  1
  Ge  Ge39  1  0.98775733  0.80019367  0.65272967  1
  Ge  Ge40  1  0.14576967  0.67890933  0.31939633  1
  Ge  Ge41  1  0.86647300  0.52089700  0.98606300  1
  S  S42  1  0.81956500  0.10760200  0.49145100  1
  S  S43  1  0.62137033  0.84710167  0.15811767  1
  S  S44  1  0.55906467  0.04529633  0.82478433  1
  S  S45  1  0.89239800  0.18043500  0.99145100  1
  S  S46  1  0.95470367  0.44093533  0.32478433  1
  S  S47  1  0.15289833  0.37862967  0.65811767  1
  S  S48  1  0.45704533  0.72858367  0.91228867  1
  S  S49  1  0.60487167  0.20962133  0.57895533  1
  S  S50  1  0.93808300  0.06179500  0.24562200  1
  S  S51  1  0.27141633  0.54295467  0.41228867  1
  S  S52  1  0.93820500  0.06191700  0.74562200  1
  S  S53  1  0.79037867  0.39512833  0.07895533  1
  S  S54  1  0.78134733  0.24603067  0.32876467  1
  S  S55  1  0.13135000  0.55198600  0.66209800  1
  S  S56  1  0.08730267  0.20198333  0.99543133  1
  S  S57  1  0.75396933  0.21865267  0.82876467  1
  S  S58  1  0.79801667  0.91269733  0.49543133  1
  S  S59  1  0.44801400  0.86865000  0.16209800  1
  S  S60  1  0.72944167  0.00326033  0.85286533  1
  S  S61  1  0.60715200  0.93722500  0.51953200  1
  S  S62  1  0.66340633  0.05951467  0.18619867  1
  S  S63  1  0.99673967  0.27055833  0.35286533  1
  S  S64  1  0.94048533  0.33659367  0.68619867  1
  S  S65  1  0.06277500  0.39284800  0.01953200  1
  S  S66  1  0.48623167  0.44093533  0.82478433  1
  S  S67  1  0.28803700  0.18043500  0.49145100  1
  S  S68  1  0.22573133  0.37862967  0.15811767  1
  S  S69  1  0.55906467  0.51376833  0.32478433  1
  S  S70  1  0.62137033  0.77426867  0.65811767  1
  S  S71  1  0.81956500  0.71196300  0.99145100  1
  S  S72  1  0.12371200  0.06191700  0.24562200  1
  S  S73  1  0.27153833  0.54295467  0.91228867  1
  S  S74  1  0.60474967  0.39512833  0.57895533  1
  S  S75  1  0.93808300  0.87628800  0.74562200  1
  S  S76  1  0.60487167  0.39525033  0.07895533  1
  S  S77  1  0.45704533  0.72846167  0.41228867  1
  S  S78  1  0.44801400  0.57936400  0.66209800  1
  S  S79  1  0.79801667  0.88531933  0.99543133  1
  S  S80  1  0.75396933  0.53531667  0.32876467  1
  S  S81  1  0.42063600  0.55198600  0.16209800  1
  S  S82  1  0.46468333  0.24603067  0.82876467  1
  S  S83  1  0.11468067  0.20198333  0.49543133  1
  S  S84  1  0.39610833  0.33659367  0.18619867  1
  S  S85  1  0.27381867  0.27055833  0.85286533  1
  S  S86  1  0.33007300  0.39284800  0.51953200  1
  S  S87  1  0.66340633  0.60389167  0.68619867  1
  S  S88  1  0.60715200  0.66992700  0.01953200  1
  S  S89  1  0.72944167  0.72618133  0.35286533  1
  S  S90  1  0.15289833  0.77426867  0.15811767  1
  S  S91  1  0.95470367  0.51376833  0.82478433  1
  S  S92  1  0.89239800  0.71196300  0.49145100  1
  S  S93  1  0.22573133  0.84710167  0.65811767  1
  S  S94  1  0.28803700  0.10760200  0.99145100  1
  S  S95  1  0.48623167  0.04529633  0.32478433  1
  S  S96  1  0.79037867  0.39525033  0.57895533  1
  S  S97  1  0.93820500  0.87628800  0.24562200  1
  S  S98  1  0.27141633  0.72846167  0.91228867  1
  S  S99  1  0.60474967  0.20962133  0.07895533  1
  S  S100  1  0.27153833  0.72858367  0.41228867  1
  S  S101  1  0.12371200  0.06179500  0.74562200  1
  S  S102  1  0.11468067  0.91269733  0.99543133  1
  S  S103  1  0.46468333  0.21865267  0.32876467  1
  S  S104  1  0.42063600  0.86865000  0.66209800  1
  S  S105  1  0.08730267  0.88531933  0.49543133  1
  S  S106  1  0.13135000  0.57936400  0.16209800  1
  S  S107  1  0.78134733  0.53531667  0.82876467  1
  S  S108  1  0.06277500  0.66992700  0.51953200  1
  S  S109  1  0.94048533  0.60389167  0.18619867  1
  S  S110  1  0.99673967  0.72618133  0.85286533  1
  S  S111  1  0.33007300  0.93722500  0.01953200  1
  S  S112  1  0.27381867  0.00326033  0.35286533  1
  S  S113  1  0.39610833  0.05951467  0.68619867  1
