# generated using pymatgen
data_SiO2
_symmetry_space_group_name_H-M   'P 1'
_cell_length_a   12.95806400
_cell_length_b   12.95806400
_cell_length_c   5.13595800
_cell_angle_alpha   90.00000000
_cell_angle_beta   90.00000000
_cell_angle_gamma   90.00000000
_symmetry_Int_Tables_number   1
_chemical_formula_structural   SiO2
_chemical_formula_sum   'Si16 O32'
_cell_volume   862.38601434
_cell_formula_units_Z   16
loop_
 _symmetry_equiv_pos_site_id
 _symmetry_equiv_pos_as_xyz
  1  'x, y, z'
loop_
 _atom_site_type_symbol
 _atom_site_label
 _atom_site_symmetry_multiplicity
 _atom_site_fract_x
 _atom_site_fract_y
 _atom_site_fract_z
 _atom_site_occupancy
  Si  Si0  1  0.69981000  0.69981000  0.22891100  1
  Si  Si1  1  0.69981000  0.30019000  0.77108900  1
  Si  Si2  1  0.50000000  0.65439000  0.00000000  1
  Si  Si3  1  0.80019000  0.80019000  0.72891100  1
  Si  Si4  1  0.84561000  0.00000000  0.50000000  1
  Si  Si5  1  0.15439000  0.00000000  0.50000000  1
  Si  Si6  1  0.50000000  0.34561000  0.00000000  1
  Si  Si7  1  0.80019000  0.19981000  0.27108900  1
  Si  Si8  1  0.19981000  0.19981000  0.72891100  1
  Si  Si9  1  0.19981000  0.80019000  0.27108900  1
  Si  Si10  1  0.00000000  0.15439000  0.50000000  1
  Si  Si11  1  0.30019000  0.30019000  0.22891100  1
  Si  Si12  1  0.34561000  0.50000000  0.00000000  1
  Si  Si13  1  0.65439000  0.50000000  0.00000000  1
  Si  Si14  1  0.00000000  0.84561000  0.50000000  1
  Si  Si15  1  0.30019000  0.69981000  0.77108900  1
  O  O16  1  0.92056400  0.92056400  0.33281600  1
  O  O17  1  0.77745850  0.07518250  0.31051350  1
  O  O18  1  0.73391000  0.73391000  0.51844900  1
  O  O19  1  0.57943600  0.57943600  0.83281600  1
  O  O20  1  0.73391000  0.26609000  0.48155100  1
  O  O21  1  0.42481750  0.72254150  0.81051350  1
  O  O22  1  0.22254150  0.92481750  0.31051350  1
  O  O23  1  0.76609000  0.76609000  0.01844900  1
  O  O24  1  0.77745850  0.92481750  0.68948650  1
  O  O25  1  0.22254150  0.07518250  0.68948650  1
  O  O26  1  0.92056400  0.07943600  0.66718400  1
  O  O27  1  0.57943600  0.42056400  0.16718400  1
  O  O28  1  0.76609000  0.23391000  0.98155100  1
  O  O29  1  0.57518250  0.72254150  0.18948650  1
  O  O30  1  0.42481750  0.27745850  0.18948650  1
  O  O31  1  0.57518250  0.27745850  0.81051350  1
  O  O32  1  0.42056400  0.42056400  0.83281600  1
  O  O33  1  0.27745850  0.57518250  0.81051350  1
  O  O34  1  0.23391000  0.23391000  0.01844900  1
  O  O35  1  0.07943600  0.07943600  0.33281600  1
  O  O36  1  0.23391000  0.76609000  0.98155100  1
  O  O37  1  0.92481750  0.22254150  0.31051350  1
  O  O38  1  0.72254150  0.42481750  0.81051350  1
  O  O39  1  0.26609000  0.26609000  0.51844900  1
  O  O40  1  0.27745850  0.42481750  0.18948650  1
  O  O41  1  0.72254150  0.57518250  0.18948650  1
  O  O42  1  0.42056400  0.57943600  0.16718400  1
  O  O43  1  0.07943600  0.92056400  0.66718400  1
  O  O44  1  0.26609000  0.73391000  0.48155100  1
  O  O45  1  0.07518250  0.22254150  0.68948650  1
  O  O46  1  0.92481750  0.77745850  0.68948650  1
  O  O47  1  0.07518250  0.77745850  0.31051350  1
