# generated using pymatgen
data_BaNa2(SiO3)2
_symmetry_space_group_name_H-M   'P 1'
_cell_length_a   5.77667200
_cell_length_b   4.82902000
_cell_length_c   11.55995683
_cell_angle_alpha   90.00000000
_cell_angle_beta   91.44139409
_cell_angle_gamma   90.00000000
_symmetry_Int_Tables_number   1
_chemical_formula_structural   BaNa2(SiO3)2
_chemical_formula_sum   'Ba2 Na4 Si4 O12'
_cell_volume   322.37064117
_cell_formula_units_Z   2
loop_
 _symmetry_equiv_pos_site_id
 _symmetry_equiv_pos_as_xyz
  1  'x, y, z'
loop_
 _atom_site_type_symbol
 _atom_site_label
 _atom_site_symmetry_multiplicity
 _atom_site_fract_x
 _atom_site_fract_y
 _atom_site_fract_z
 _atom_site_occupancy
  Ba  Ba0  1  0.25260300  0.75507400  0.09689500  1
  Ba  Ba1  1  0.74739700  0.25507400  0.90310500  1
  Na  Na2  1  0.18531200  0.74283200  0.48764400  1
  Na  Na3  1  0.70768300  0.74571700  0.67674500  1
  Na  Na4  1  0.81468800  0.24283200  0.51235600  1
  Na  Na5  1  0.29231700  0.24571700  0.32325500  1
  Si  Si6  1  0.22389600  0.69786500  0.80669400  1
  Si  Si7  1  0.32271600  0.20408100  0.65443400  1
  Si  Si8  1  0.77610400  0.19786500  0.19330600  1
  Si  Si9  1  0.67728400  0.70408100  0.34556600  1
  O  O10  1  0.40031500  0.74453400  0.32259300  1
  O  O11  1  0.75035600  0.37194000  0.31811600  1
  O  O12  1  0.77703400  0.76545500  0.47478900  1
  O  O13  1  0.46067100  0.72887200  0.88377000  1
  O  O14  1  0.99078200  0.77083300  0.87567200  1
  O  O15  1  0.81924800  0.87379700  0.24211400  1
  O  O16  1  0.00921800  0.27083300  0.12432800  1
  O  O17  1  0.59968500  0.24453400  0.67740700  1
  O  O18  1  0.22296600  0.26545500  0.52521100  1
  O  O19  1  0.18075200  0.37379700  0.75788600  1
  O  O20  1  0.24964400  0.87194000  0.68188400  1
  O  O21  1  0.53932900  0.22887200  0.11623000  1
