# generated using pymatgen
data_SmZnPO
_symmetry_space_group_name_H-M   'P 1'
_cell_length_a   3.96406826
_cell_length_b   3.96406826
_cell_length_c   30.88490020
_cell_angle_alpha   90.00000000
_cell_angle_beta   90.00000000
_cell_angle_gamma   120.00000000
_symmetry_Int_Tables_number   1
_chemical_formula_structural   SmZnPO
_chemical_formula_sum   'Sm6 Zn6 P6 O6'
_cell_volume   420.29970256
_cell_formula_units_Z   6
loop_
 _symmetry_equiv_pos_site_id
 _symmetry_equiv_pos_as_xyz
  1  'x, y, z'
loop_
 _atom_site_type_symbol
 _atom_site_label
 _atom_site_symmetry_multiplicity
 _atom_site_fract_x
 _atom_site_fract_y
 _atom_site_fract_z
 _atom_site_occupancy
  Sm  Sm0  1  0.33333333  0.66666667  0.28596367  1
  Sm  Sm1  1  0.33333333  0.66666667  0.04736967  1
  Sm  Sm2  1  0.00000000  0.00000000  0.61929700  1
  Sm  Sm3  1  0.00000000  0.00000000  0.38070300  1
  Sm  Sm4  1  0.66666667  0.33333333  0.95263033  1
  Sm  Sm5  1  0.66666667  0.33333333  0.71403633  1
  Zn  Zn6  1  0.66666667  0.33333333  0.13704233  1
  Zn  Zn7  1  0.00000000  0.00000000  0.19629100  1
  Zn  Zn8  1  0.33333333  0.66666667  0.47037567  1
  Zn  Zn9  1  0.66666667  0.33333333  0.52962433  1
  Zn  Zn10  1  0.00000000  0.00000000  0.80370900  1
  Zn  Zn11  1  0.33333333  0.66666667  0.86295767  1
  P  P12  1  0.66666667  0.33333333  0.22015533  1
  P  P13  1  0.00000000  0.00000000  0.11317800  1
  P  P14  1  0.33333333  0.66666667  0.55348867  1
  P  P15  1  0.66666667  0.33333333  0.44651133  1
  P  P16  1  0.00000000  0.00000000  0.88682200  1
  P  P17  1  0.33333333  0.66666667  0.77984467  1
  O  O18  1  0.00000000  0.00000000  0.30519100  1
  O  O19  1  0.66666667  0.33333333  0.02814233  1
  O  O20  1  0.66666667  0.33333333  0.63852433  1
  O  O21  1  0.33333333  0.66666667  0.36147567  1
  O  O22  1  0.33333333  0.66666667  0.97185767  1
  O  O23  1  0.00000000  0.00000000  0.69480900  1
