# generated using pymatgen
data_Sb2TeSe2
_symmetry_space_group_name_H-M   'P 1'
_cell_length_a   4.15863391
_cell_length_b   4.15863391
_cell_length_c   30.71753415
_cell_angle_alpha   90.00000000
_cell_angle_beta   90.00000000
_cell_angle_gamma   120.00000000
_symmetry_Int_Tables_number   1
_chemical_formula_structural   Sb2TeSe2
_chemical_formula_sum   'Sb6 Te3 Se6'
_cell_volume   460.06411746
_cell_formula_units_Z   3
loop_
 _symmetry_equiv_pos_site_id
 _symmetry_equiv_pos_as_xyz
  1  'x, y, z'
loop_
 _atom_site_type_symbol
 _atom_site_label
 _atom_site_symmetry_multiplicity
 _atom_site_fract_x
 _atom_site_fract_y
 _atom_site_fract_z
 _atom_site_occupancy
  Sb  Sb0  1  0.33333333  0.66666667  0.26586167  1
  Sb  Sb1  1  0.33333333  0.66666667  0.06747167  1
  Sb  Sb2  1  0.00000000  0.00000000  0.59919500  1
  Sb  Sb3  1  0.00000000  0.00000000  0.40080500  1
  Sb  Sb4  1  0.66666667  0.33333333  0.93252833  1
  Sb  Sb5  1  0.66666667  0.33333333  0.73413833  1
  Te  Te6  1  0.00000000  0.00000000  0.00000000  1
  Te  Te7  1  0.66666667  0.33333333  0.33333333  1
  Te  Te8  1  0.33333333  0.66666667  0.66666667  1
  Se  Se9  1  0.00000000  0.00000000  0.21671600  1
  Se  Se10  1  0.66666667  0.33333333  0.11661733  1
  Se  Se11  1  0.66666667  0.33333333  0.55004933  1
  Se  Se12  1  0.33333333  0.66666667  0.44995067  1
  Se  Se13  1  0.33333333  0.66666667  0.88338267  1
  Se  Se14  1  0.00000000  0.00000000  0.78328400  1
