# generated using pymatgen
data_Yb2S3
_symmetry_space_group_name_H-M   'P 1'
_cell_length_a   7.26120606
_cell_length_b   7.26120606
_cell_length_c   15.48334500
_cell_angle_alpha   90.00000000
_cell_angle_beta   90.00000000
_cell_angle_gamma   120.00000000
_symmetry_Int_Tables_number   1
_chemical_formula_structural   Yb2S3
_chemical_formula_sum   'Yb12 S18'
_cell_volume   706.98947029
_cell_formula_units_Z   6
loop_
 _symmetry_equiv_pos_site_id
 _symmetry_equiv_pos_as_xyz
  1  'x, y, z'
loop_
 _atom_site_type_symbol
 _atom_site_label
 _atom_site_symmetry_multiplicity
 _atom_site_fract_x
 _atom_site_fract_y
 _atom_site_fract_z
 _atom_site_occupancy
  Yb  Yb0  1  0.00000000  0.00000000  0.80626400  1
  Yb  Yb1  1  0.66666667  0.33333333  0.70517300  1
  Yb  Yb2  1  0.33333333  0.66666667  0.47869700  1
  Yb  Yb3  1  0.33333333  0.66666667  0.70517300  1
  Yb  Yb4  1  0.66666667  0.33333333  0.20517300  1
  Yb  Yb5  1  0.33333333  0.66666667  0.20517300  1
  Yb  Yb6  1  0.66666667  0.33333333  0.47869700  1
  Yb  Yb7  1  0.00000000  0.00000000  0.54854500  1
  Yb  Yb8  1  0.33333333  0.66666667  0.97869700  1
  Yb  Yb9  1  0.00000000  0.00000000  0.30626400  1
  Yb  Yb10  1  0.66666667  0.33333333  0.97869700  1
  Yb  Yb11  1  0.00000000  0.00000000  0.04854500  1
  S  S12  1  0.71885500  0.71885500  0.42220000  1
  S  S13  1  0.71885500  0.00000000  0.92220000  1
  S  S14  1  0.50642200  0.50642200  0.33168900  1
  S  S15  1  0.00000000  0.71885500  0.92220000  1
  S  S16  1  0.35478900  0.00000000  0.10769400  1
  S  S17  1  0.64521100  0.64521100  0.10769400  1
  S  S18  1  0.49357800  0.49357800  0.83168900  1
  S  S19  1  0.35478900  0.35478900  0.60769400  1
  S  S20  1  0.00000000  0.28114500  0.42220000  1
  S  S21  1  0.00000000  0.50642200  0.83168900  1
  S  S22  1  0.64521100  0.00000000  0.60769400  1
  S  S23  1  0.49357800  0.00000000  0.33168900  1
  S  S24  1  0.28114500  0.00000000  0.42220000  1
  S  S25  1  0.28114500  0.28114500  0.92220000  1
  S  S26  1  0.00000000  0.35478900  0.10769400  1
  S  S27  1  0.00000000  0.49357800  0.33168900  1
  S  S28  1  0.00000000  0.64521100  0.60769400  1
  S  S29  1  0.50642200  0.00000000  0.83168900  1
