# generated using pymatgen
data_Ca3Si2O7
_symmetry_space_group_name_H-M   'P 1'
_cell_length_a   5.13912800
_cell_length_b   11.55462800
_cell_length_c   22.23220400
_cell_angle_alpha   90.00000000
_cell_angle_beta   90.00000000
_cell_angle_gamma   90.00000000
_symmetry_Int_Tables_number   1
_chemical_formula_structural   Ca3Si2O7
_chemical_formula_sum   'Ca24 Si16 O56'
_cell_volume   1320.16410917
_cell_formula_units_Z   8
loop_
 _symmetry_equiv_pos_site_id
 _symmetry_equiv_pos_as_xyz
  1  'x, y, z'
loop_
 _atom_site_type_symbol
 _atom_site_label
 _atom_site_symmetry_multiplicity
 _atom_site_fract_x
 _atom_site_fract_y
 _atom_site_fract_z
 _atom_site_occupancy
  Ca  Ca0  1  0.99514600  0.71735300  0.39564800  1
  Ca  Ca1  1  0.50485400  0.21735300  0.10435200  1
  Ca  Ca2  1  0.00000000  0.98965900  0.00000000  1
  Ca  Ca3  1  0.50491150  0.51032850  0.16849450  1
  Ca  Ca4  1  0.50491150  0.51032850  0.33150550  1
  Ca  Ca5  1  0.99508850  0.01032850  0.16849450  1
  Ca  Ca6  1  0.50000000  0.48965900  0.00000000  1
  Ca  Ca7  1  0.99508850  0.01032850  0.33150550  1
  Ca  Ca8  1  0.00130800  0.28619100  0.25000000  1
  Ca  Ca9  1  0.49869200  0.78619100  0.25000000  1
  Ca  Ca10  1  0.99514600  0.71735300  0.10435200  1
  Ca  Ca11  1  0.50485400  0.21735300  0.39564800  1
  Ca  Ca12  1  0.49514600  0.21735300  0.89564800  1
  Ca  Ca13  1  0.00485400  0.71735300  0.60435200  1
  Ca  Ca14  1  0.50000000  0.48965900  0.50000000  1
  Ca  Ca15  1  0.00491150  0.01032850  0.66849450  1
  Ca  Ca16  1  0.00491150  0.01032850  0.83150550  1
  Ca  Ca17  1  0.49508850  0.51032850  0.66849450  1
  Ca  Ca18  1  0.00000000  0.98965900  0.50000000  1
  Ca  Ca19  1  0.49508850  0.51032850  0.83150550  1
  Ca  Ca20  1  0.50130800  0.78619100  0.75000000  1
  Ca  Ca21  1  0.99869200  0.28619100  0.75000000  1
  Ca  Ca22  1  0.49514600  0.21735300  0.60435200  1
  Ca  Ca23  1  0.00485400  0.71735300  0.89564800  1
  Si  Si24  1  0.57141300  0.09708500  0.25000000  1
  Si  Si25  1  0.43931400  0.90852400  0.39928500  1
  Si  Si26  1  0.06068600  0.40852400  0.39928500  1
  Si  Si27  1  0.06068600  0.40852400  0.10071500  1
  Si  Si28  1  0.43931400  0.90852400  0.10071500  1
  Si  Si29  1  0.50000000  0.74179800  0.00000000  1
  Si  Si30  1  0.00000000  0.24179800  0.00000000  1
  Si  Si31  1  0.92858700  0.59708500  0.25000000  1
  Si  Si32  1  0.07141300  0.59708500  0.75000000  1
  Si  Si33  1  0.93931400  0.40852400  0.89928500  1
  Si  Si34  1  0.56068600  0.90852400  0.89928500  1
  Si  Si35  1  0.56068600  0.90852400  0.60071500  1
  Si  Si36  1  0.93931400  0.40852400  0.60071500  1
  Si  Si37  1  0.00000000  0.24179800  0.50000000  1
  Si  Si38  1  0.50000000  0.74179800  0.50000000  1
  Si  Si39  1  0.42858700  0.09708500  0.75000000  1
  O  O40  1  0.19569600  0.53569800  0.40779000  1
  O  O41  1  0.74472300  0.40415900  0.09671500  1
  O  O42  1  0.75527700  0.90415900  0.09671500  1
  O  O43  1  0.70600950  0.96564350  0.25000000  1
  O  O44  1  0.19569600  0.53569800  0.09221000  1
  O  O45  1  0.18852000  0.33141800  0.45890100  1
  O  O46  1  0.82015550  0.16050050  0.04148750  1
  O  O47  1  0.79758750  0.66373250  0.30873350  1
  O  O48  1  0.70241250  0.16373250  0.19126650  1
  O  O49  1  0.79758750  0.66373250  0.19126650  1
  O  O50  1  0.31148000  0.83141800  0.04109900  1
  O  O51  1  0.25157250  0.09759750  0.25000000  1
  O  O52  1  0.67984450  0.66050050  0.45851250  1
  O  O53  1  0.70241250  0.16373250  0.30873350  1
  O  O54  1  0.18852000  0.33141800  0.04109900  1
  O  O55  1  0.20050050  0.34593950  0.15893050  1
  O  O56  1  0.30430400  0.03569800  0.40779000  1
  O  O57  1  0.30430400  0.03569800  0.09221000  1
  O  O58  1  0.29949950  0.84593950  0.15893050  1
  O  O59  1  0.29949950  0.84593950  0.34106950  1
  O  O60  1  0.67984450  0.66050050  0.04148750  1
  O  O61  1  0.24842750  0.59759750  0.25000000  1
  O  O62  1  0.79399050  0.46564350  0.25000000  1
  O  O63  1  0.20050050  0.34593950  0.34106950  1
  O  O64  1  0.75527700  0.90415900  0.40328500  1
  O  O65  1  0.31148000  0.83141800  0.45890100  1
  O  O66  1  0.74472300  0.40415900  0.40328500  1
  O  O67  1  0.82015550  0.16050050  0.45851250  1
  O  O68  1  0.69569600  0.03569800  0.90779000  1
  O  O69  1  0.24472300  0.90415900  0.59671500  1
  O  O70  1  0.25527700  0.40415900  0.59671500  1
  O  O71  1  0.20600950  0.46564350  0.75000000  1
  O  O72  1  0.69569600  0.03569800  0.59221000  1
  O  O73  1  0.68852000  0.83141800  0.95890100  1
  O  O74  1  0.32015550  0.66050050  0.54148750  1
  O  O75  1  0.29758750  0.16373250  0.80873350  1
  O  O76  1  0.20241250  0.66373250  0.69126650  1
  O  O77  1  0.29758750  0.16373250  0.69126650  1
  O  O78  1  0.81148000  0.33141800  0.54109900  1
  O  O79  1  0.75157250  0.59759750  0.75000000  1
  O  O80  1  0.17984450  0.16050050  0.95851250  1
  O  O81  1  0.20241250  0.66373250  0.80873350  1
  O  O82  1  0.68852000  0.83141800  0.54109900  1
  O  O83  1  0.70050050  0.84593950  0.65893050  1
  O  O84  1  0.80430400  0.53569800  0.90779000  1
  O  O85  1  0.80430400  0.53569800  0.59221000  1
  O  O86  1  0.79949950  0.34593950  0.65893050  1
  O  O87  1  0.79949950  0.34593950  0.84106950  1
  O  O88  1  0.17984450  0.16050050  0.54148750  1
  O  O89  1  0.74842750  0.09759750  0.75000000  1
  O  O90  1  0.29399050  0.96564350  0.75000000  1
  O  O91  1  0.70050050  0.84593950  0.84106950  1
  O  O92  1  0.25527700  0.40415900  0.90328500  1
  O  O93  1  0.81148000  0.33141800  0.95890100  1
  O  O94  1  0.24472300  0.90415900  0.90328500  1
  O  O95  1  0.32015550  0.66050050  0.95851250  1
