# generated using pymatgen
data_K2ZnSiO4
_symmetry_space_group_name_H-M   'P 1'
_cell_length_a   5.50046100
_cell_length_b   11.06865000
_cell_length_c   15.79671600
_cell_angle_alpha   90.00000000
_cell_angle_beta   90.00000000
_cell_angle_gamma   90.00000000
_symmetry_Int_Tables_number   1
_chemical_formula_structural   K2ZnSiO4
_chemical_formula_sum   'K16 Zn8 Si8 O32'
_cell_volume   961.74636812
_cell_formula_units_Z   8
loop_
 _symmetry_equiv_pos_site_id
 _symmetry_equiv_pos_as_xyz
  1  'x, y, z'
loop_
 _atom_site_type_symbol
 _atom_site_label
 _atom_site_symmetry_multiplicity
 _atom_site_fract_x
 _atom_site_fract_y
 _atom_site_fract_z
 _atom_site_occupancy
  K  K0  1  0.49835900  0.98563400  0.06197400  1
  K  K1  1  0.50164100  0.01436600  0.56197400  1
  K  K2  1  0.50164100  0.48563400  0.06197400  1
  K  K3  1  0.49835900  0.51436600  0.56197400  1
  K  K4  1  0.45248800  0.73823500  0.18376500  1
  K  K5  1  0.54751200  0.26176500  0.68376500  1
  K  K6  1  0.54751200  0.23823500  0.18376500  1
  K  K7  1  0.45248800  0.76176500  0.68376500  1
  K  K8  1  0.00473300  0.01378900  0.93875200  1
  K  K9  1  0.99526700  0.98621100  0.43875200  1
  K  K10  1  0.99526700  0.51378900  0.93875200  1
  K  K11  1  0.00473300  0.48621100  0.43875200  1
  K  K12  1  0.04986200  0.26450400  0.81462600  1
  K  K13  1  0.95013800  0.73549600  0.31462600  1
  K  K14  1  0.95013800  0.76450400  0.81462600  1
  K  K15  1  0.04986200  0.23549600  0.31462600  1
  Zn  Zn16  1  0.99240300  0.99207700  0.18874300  1
  Zn  Zn17  1  0.00759700  0.00792300  0.68874300  1
  Zn  Zn18  1  0.00759700  0.49207700  0.18874300  1
  Zn  Zn19  1  0.99240300  0.50792300  0.68874300  1
  Zn  Zn20  1  0.53450900  0.25913700  0.93623800  1
  Zn  Zn21  1  0.46549100  0.74086300  0.43623800  1
  Zn  Zn22  1  0.46549100  0.75913700  0.93623800  1
  Zn  Zn23  1  0.53450900  0.24086300  0.43623800  1
  Si  Si24  1  0.50972900  0.00751800  0.81091100  1
  Si  Si25  1  0.49027100  0.99248200  0.31091100  1
  Si  Si26  1  0.49027100  0.50751800  0.81091100  1
  Si  Si27  1  0.50972900  0.49248200  0.31091100  1
  Si  Si28  1  0.96796600  0.73589000  0.06436100  1
  Si  Si29  1  0.03203400  0.26411000  0.56436100  1
  Si  Si30  1  0.03203400  0.23589000  0.06436100  1
  Si  Si31  1  0.96796600  0.76411000  0.56436100  1
  O  O32  1  0.69913300  0.70347400  0.02292000  1
  O  O33  1  0.30086700  0.29652600  0.52292000  1
  O  O34  1  0.30086700  0.20347400  0.02292000  1
  O  O35  1  0.69913300  0.79652600  0.52292000  1
  O  O36  1  0.09328800  0.60787400  0.09735700  1
  O  O37  1  0.90671200  0.39212600  0.59735700  1
  O  O38  1  0.90671200  0.10787400  0.09735700  1
  O  O39  1  0.09328800  0.89212600  0.59735700  1
  O  O40  1  0.93166200  0.82631100  0.14658000  1
  O  O41  1  0.06833800  0.17368900  0.64658000  1
  O  O42  1  0.06833800  0.32631100  0.14658000  1
  O  O43  1  0.93166200  0.67368900  0.64658000  1
  O  O44  1  0.33299700  0.02203800  0.22377600  1
  O  O45  1  0.66700300  0.97796200  0.72377600  1
  O  O46  1  0.66700300  0.52203800  0.22377600  1
  O  O47  1  0.33299700  0.47796200  0.72377600  1
  O  O48  1  0.85156800  0.29574600  0.99161000  1
  O  O49  1  0.14843200  0.70425400  0.49161000  1
  O  O50  1  0.14843200  0.79574600  0.99161000  1
  O  O51  1  0.85156800  0.20425400  0.49161000  1
  O  O52  1  0.41319200  0.41601700  0.88956600  1
  O  O53  1  0.58680800  0.58398300  0.38956600  1
  O  O54  1  0.58680800  0.91601700  0.88956600  1
  O  O55  1  0.41319200  0.08398300  0.38956600  1
  O  O56  1  0.57079300  0.14873100  0.83915100  1
  O  O57  1  0.42920700  0.85126900  0.33915100  1
  O  O58  1  0.42920700  0.64873100  0.83915100  1
  O  O59  1  0.57079300  0.35126900  0.33915100  1
  O  O60  1  0.21795400  0.98683000  0.78966900  1
  O  O61  1  0.78204600  0.01317000  0.28966900  1
  O  O62  1  0.78204600  0.48683000  0.78966900  1
  O  O63  1  0.21795400  0.51317000  0.28966900  1
