# generated using pymatgen
data_LaTaN2O
_symmetry_space_group_name_H-M   'P 1'
_cell_length_a   7.96690200
_cell_length_b   8.07079800
_cell_length_c   5.73464904
_cell_angle_alpha   90.00000000
_cell_angle_beta   133.64063034
_cell_angle_gamma   90.00000000
_symmetry_Int_Tables_number   1
_chemical_formula_structural   LaTaN2O
_chemical_formula_sum   'La4 Ta4 N8 O4'
_cell_volume   266.84615917
_cell_formula_units_Z   4
loop_
 _symmetry_equiv_pos_site_id
 _symmetry_equiv_pos_as_xyz
  1  'x, y, z'
loop_
 _atom_site_type_symbol
 _atom_site_label
 _atom_site_symmetry_multiplicity
 _atom_site_fract_x
 _atom_site_fract_y
 _atom_site_fract_z
 _atom_site_occupancy
  La  La0  1  0.75043400  0.00000000  0.49309400  1
  La  La1  1  0.24956600  0.00000000  0.50690600  1
  La  La2  1  0.25043400  0.50000000  0.49309400  1
  La  La3  1  0.74956600  0.50000000  0.50690600  1
  Ta  Ta4  1  0.25000000  0.25000000  0.00000000  1
  Ta  Ta5  1  0.25000000  0.75000000  0.00000000  1
  Ta  Ta6  1  0.75000000  0.75000000  0.00000000  1
  Ta  Ta7  1  0.75000000  0.25000000  0.00000000  1
  N  N8  1  0.50000000  0.73120000  0.50000000  1
  N  N9  1  0.67445100  0.00000000  0.96852100  1
  N  N10  1  0.50000000  0.26880000  0.50000000  1
  N  N11  1  0.32554900  0.00000000  0.03147900  1
  N  N12  1  0.00000000  0.23120000  0.50000000  1
  N  N13  1  0.17445100  0.50000000  0.96852100  1
  N  N14  1  0.00000000  0.76880000  0.50000000  1
  N  N15  1  0.82554900  0.50000000  0.03147900  1
  O  O16  1  0.50000000  0.31089400  0.00000000  1
  O  O17  1  0.50000000  0.68910600  0.00000000  1
  O  O18  1  0.00000000  0.81089400  0.00000000  1
  O  O19  1  0.00000000  0.18910600  0.00000000  1
