# generated using pymatgen
data_Nb2Hg3S(O2F5)2
_symmetry_space_group_name_H-M   'P 1'
_cell_length_a   9.49205600
_cell_length_b   16.03005400
_cell_length_c   18.69564000
_cell_angle_alpha   90.00000000
_cell_angle_beta   90.00000000
_cell_angle_gamma   90.00000000
_symmetry_Int_Tables_number   1
_chemical_formula_structural   Nb2Hg3S(O2F5)2
_chemical_formula_sum   'Nb16 Hg24 S8 O32 F80'
_cell_volume   2844.69437407
_cell_formula_units_Z   8
loop_
 _symmetry_equiv_pos_site_id
 _symmetry_equiv_pos_as_xyz
  1  'x, y, z'
loop_
 _atom_site_type_symbol
 _atom_site_label
 _atom_site_symmetry_multiplicity
 _atom_site_fract_x
 _atom_site_fract_y
 _atom_site_fract_z
 _atom_site_occupancy
  Nb  Nb0  1  0.74304150  0.81008000  0.94294650  1
  Nb  Nb1  1  0.24304150  0.18992000  0.55705350  1
  Nb  Nb2  1  0.99304150  0.93992000  0.69294650  1
  Nb  Nb3  1  0.49304150  0.06008000  0.80705350  1
  Nb  Nb4  1  0.24304150  0.81008000  0.44294650  1
  Nb  Nb5  1  0.74304150  0.18992000  0.05705350  1
  Nb  Nb6  1  0.49304150  0.93992000  0.19294650  1
  Nb  Nb7  1  0.99304150  0.06008000  0.30705350  1
  Nb  Nb8  1  0.24304150  0.31008000  0.94294650  1
  Nb  Nb9  1  0.74304150  0.68992000  0.55705350  1
  Nb  Nb10  1  0.49304150  0.43992000  0.69294650  1
  Nb  Nb11  1  0.99304150  0.56008000  0.80705350  1
  Nb  Nb12  1  0.74304150  0.31008000  0.44294650  1
  Nb  Nb13  1  0.24304150  0.68992000  0.05705350  1
  Nb  Nb14  1  0.99304150  0.43992000  0.19294650  1
  Nb  Nb15  1  0.49304150  0.56008000  0.30705350  1
  Hg  Hg16  1  0.00148800  0.25000000  0.75000000  1
  Hg  Hg17  1  0.75148800  0.00000000  0.50000000  1
  Hg  Hg18  1  0.46417350  0.63471950  0.84963400  1
  Hg  Hg19  1  0.46417350  0.86528050  0.65036600  1
  Hg  Hg20  1  0.21417350  0.61528050  0.59963400  1
  Hg  Hg21  1  0.21417350  0.88471950  0.90036600  1
  Hg  Hg22  1  0.50148800  0.25000000  0.25000000  1
  Hg  Hg23  1  0.25148800  0.00000000  0.00000000  1
  Hg  Hg24  1  0.96417350  0.63471950  0.34963400  1
  Hg  Hg25  1  0.96417350  0.86528050  0.15036600  1
  Hg  Hg26  1  0.71417350  0.61528050  0.09963400  1
  Hg  Hg27  1  0.71417350  0.88471950  0.40036600  1
  Hg  Hg28  1  0.50148800  0.75000000  0.75000000  1
  Hg  Hg29  1  0.25148800  0.50000000  0.50000000  1
  Hg  Hg30  1  0.96417350  0.13471950  0.84963400  1
  Hg  Hg31  1  0.96417350  0.36528050  0.65036600  1
  Hg  Hg32  1  0.71417350  0.11528050  0.59963400  1
  Hg  Hg33  1  0.71417350  0.38471950  0.90036600  1
  Hg  Hg34  1  0.00148800  0.75000000  0.25000000  1
  Hg  Hg35  1  0.75148800  0.50000000  0.00000000  1
  Hg  Hg36  1  0.46417350  0.13471950  0.34963400  1
  Hg  Hg37  1  0.46417350  0.36528050  0.15036600  1
  Hg  Hg38  1  0.21417350  0.11528050  0.09963400  1
  Hg  Hg39  1  0.21417350  0.38471950  0.40036600  1
  S  S40  1  0.35489400  0.00000000  0.50000000  1
  S  S41  1  0.10489400  0.75000000  0.75000000  1
  S  S42  1  0.85489400  0.00000000  0.00000000  1
  S  S43  1  0.60489400  0.75000000  0.25000000  1
  S  S44  1  0.85489400  0.50000000  0.50000000  1
  S  S45  1  0.60489400  0.25000000  0.75000000  1
  S  S46  1  0.35489400  0.50000000  0.00000000  1
  S  S47  1  0.10489400  0.25000000  0.25000000  1
  O  O48  1  0.75765350  0.93817050  0.96462400  1
  O  O49  1  0.25765350  0.06182950  0.53537600  1
  O  O50  1  0.00765350  0.81182950  0.71462400  1
  O  O51  1  0.50765350  0.18817050  0.78537600  1
  O  O52  1  0.44445350  0.54075750  0.94621000  1
  O  O53  1  0.44445350  0.95924250  0.55379000  1
  O  O54  1  0.19445350  0.70924250  0.69621000  1
  O  O55  1  0.19445350  0.79075750  0.80379000  1
  O  O56  1  0.25765350  0.93817050  0.46462400  1
  O  O57  1  0.75765350  0.06182950  0.03537600  1
  O  O58  1  0.50765350  0.81182950  0.21462400  1
  O  O59  1  0.00765350  0.18817050  0.28537600  1
  O  O60  1  0.94445350  0.54075750  0.44621000  1
  O  O61  1  0.94445350  0.95924250  0.05379000  1
  O  O62  1  0.69445350  0.70924250  0.19621000  1
  O  O63  1  0.69445350  0.79075750  0.30379000  1
  O  O64  1  0.25765350  0.43817050  0.96462400  1
  O  O65  1  0.75765350  0.56182950  0.53537600  1
  O  O66  1  0.50765350  0.31182950  0.71462400  1
  O  O67  1  0.00765350  0.68817050  0.78537600  1
  O  O68  1  0.94445350  0.04075750  0.94621000  1
  O  O69  1  0.94445350  0.45924250  0.55379000  1
  O  O70  1  0.69445350  0.20924250  0.69621000  1
  O  O71  1  0.69445350  0.29075750  0.80379000  1
  O  O72  1  0.75765350  0.43817050  0.46462400  1
  O  O73  1  0.25765350  0.56182950  0.03537600  1
  O  O74  1  0.00765350  0.31182950  0.21462400  1
  O  O75  1  0.50765350  0.68817050  0.28537600  1
  O  O76  1  0.44445350  0.04075750  0.44621000  1
  O  O77  1  0.44445350  0.45924250  0.05379000  1
  O  O78  1  0.19445350  0.20924250  0.19621000  1
  O  O79  1  0.19445350  0.29075750  0.30379000  1
  F  F80  1  0.22952950  0.19188500  0.93121850  1
  F  F81  1  0.22952950  0.30811500  0.56878150  1
  F  F82  1  0.97952950  0.05811500  0.68121850  1
  F  F83  1  0.47952950  0.94188500  0.81878150  1
  F  F84  1  0.54265450  0.82442000  0.94603150  1
  F  F85  1  0.04265450  0.17558000  0.55396850  1
  F  F86  1  0.79265450  0.92558000  0.69603150  1
  F  F87  1  0.29265450  0.07442000  0.80396850  1
  F  F88  1  0.44679950  0.31235400  0.93732350  1
  F  F89  1  0.94679950  0.68764600  0.56267650  1
  F  F90  1  0.19679950  0.93764600  0.68732350  1
  F  F91  1  0.69679950  0.06235400  0.81267650  1
  F  F92  1  0.23644200  0.32720100  0.84120100  1
  F  F93  1  0.23644200  0.17279900  0.65879900  1
  F  F94  1  0.98644200  0.92279900  0.59120100  1
  F  F95  1  0.48644200  0.07720100  0.90879900  1
  F  F96  1  0.25621100  0.79183000  0.54567100  1
  F  F97  1  0.25621100  0.70817000  0.95432900  1
  F  F98  1  0.00621100  0.95817000  0.79567100  1
  F  F99  1  0.50621100  0.04183000  0.70432900  1
  F  F100  1  0.72952950  0.19188500  0.43121850  1
  F  F101  1  0.72952950  0.30811500  0.06878150  1
  F  F102  1  0.47952950  0.05811500  0.18121850  1
  F  F103  1  0.97952950  0.94188500  0.31878150  1
  F  F104  1  0.04265450  0.82442000  0.44603150  1
  F  F105  1  0.54265450  0.17558000  0.05396850  1
  F  F106  1  0.29265450  0.92558000  0.19603150  1
  F  F107  1  0.79265450  0.07442000  0.30396850  1
  F  F108  1  0.94679950  0.31235400  0.43732350  1
  F  F109  1  0.44679950  0.68764600  0.06267650  1
  F  F110  1  0.69679950  0.93764600  0.18732350  1
  F  F111  1  0.19679950  0.06235400  0.31267650  1
  F  F112  1  0.73644200  0.32720100  0.34120100  1
  F  F113  1  0.73644200  0.17279900  0.15879900  1
  F  F114  1  0.48644200  0.92279900  0.09120100  1
  F  F115  1  0.98644200  0.07720100  0.40879900  1
  F  F116  1  0.75621100  0.79183000  0.04567100  1
  F  F117  1  0.75621100  0.70817000  0.45432900  1
  F  F118  1  0.50621100  0.95817000  0.29567100  1
  F  F119  1  0.00621100  0.04183000  0.20432900  1
  F  F120  1  0.72952950  0.69188500  0.93121850  1
  F  F121  1  0.72952950  0.80811500  0.56878150  1
  F  F122  1  0.47952950  0.55811500  0.68121850  1
  F  F123  1  0.97952950  0.44188500  0.81878150  1
  F  F124  1  0.04265450  0.32442000  0.94603150  1
  F  F125  1  0.54265450  0.67558000  0.55396850  1
  F  F126  1  0.29265450  0.42558000  0.69603150  1
  F  F127  1  0.79265450  0.57442000  0.80396850  1
  F  F128  1  0.94679950  0.81235400  0.93732350  1
  F  F129  1  0.44679950  0.18764600  0.56267650  1
  F  F130  1  0.69679950  0.43764600  0.68732350  1
  F  F131  1  0.19679950  0.56235400  0.81267650  1
  F  F132  1  0.73644200  0.82720100  0.84120100  1
  F  F133  1  0.73644200  0.67279900  0.65879900  1
  F  F134  1  0.48644200  0.42279900  0.59120100  1
  F  F135  1  0.98644200  0.57720100  0.90879900  1
  F  F136  1  0.75621100  0.29183000  0.54567100  1
  F  F137  1  0.75621100  0.20817000  0.95432900  1
  F  F138  1  0.50621100  0.45817000  0.79567100  1
  F  F139  1  0.00621100  0.54183000  0.70432900  1
  F  F140  1  0.22952950  0.69188500  0.43121850  1
  F  F141  1  0.22952950  0.80811500  0.06878150  1
  F  F142  1  0.97952950  0.55811500  0.18121850  1
  F  F143  1  0.47952950  0.44188500  0.31878150  1
  F  F144  1  0.54265450  0.32442000  0.44603150  1
  F  F145  1  0.04265450  0.67558000  0.05396850  1
  F  F146  1  0.79265450  0.42558000  0.19603150  1
  F  F147  1  0.29265450  0.57442000  0.30396850  1
  F  F148  1  0.44679950  0.81235400  0.43732350  1
  F  F149  1  0.94679950  0.18764600  0.06267650  1
  F  F150  1  0.19679950  0.43764600  0.18732350  1
  F  F151  1  0.69679950  0.56235400  0.31267650  1
  F  F152  1  0.23644200  0.82720100  0.34120100  1
  F  F153  1  0.23644200  0.67279900  0.15879900  1
  F  F154  1  0.98644200  0.42279900  0.09120100  1
  F  F155  1  0.48644200  0.57720100  0.40879900  1
  F  F156  1  0.25621100  0.29183000  0.04567100  1
  F  F157  1  0.25621100  0.20817000  0.45432900  1
  F  F158  1  0.00621100  0.45817000  0.29567100  1
  F  F159  1  0.50621100  0.54183000  0.20432900  1
