# generated using pymatgen
data_Cs7Au5O2
_symmetry_space_group_name_H-M   'P 1'
_cell_length_a   6.15996800
_cell_length_b   9.79656400
_cell_length_c   17.77832200
_cell_angle_alpha   90.00000000
_cell_angle_beta   90.00000000
_cell_angle_gamma   90.00000000
_symmetry_Int_Tables_number   1
_chemical_formula_structural   Cs7Au5O2
_chemical_formula_sum   'Cs14 Au10 O4'
_cell_volume   1072.85987747
_cell_formula_units_Z   2
loop_
 _symmetry_equiv_pos_site_id
 _symmetry_equiv_pos_as_xyz
  1  'x, y, z'
loop_
 _atom_site_type_symbol
 _atom_site_label
 _atom_site_symmetry_multiplicity
 _atom_site_fract_x
 _atom_site_fract_y
 _atom_site_fract_z
 _atom_site_occupancy
  Cs  Cs0  1  0.00000000  0.77974900  0.83298300  1
  Cs  Cs1  1  0.50000000  0.78987800  0.00000000  1
  Cs  Cs2  1  0.00000000  0.22025100  0.83298300  1
  Cs  Cs3  1  0.50000000  0.72025100  0.66701700  1
  Cs  Cs4  1  0.50000000  0.27974900  0.66701700  1
  Cs  Cs5  1  0.50000000  0.21012200  0.00000000  1
  Cs  Cs6  1  0.00000000  0.50000000  0.00000000  1
  Cs  Cs7  1  0.50000000  0.27974900  0.33298300  1
  Cs  Cs8  1  0.00000000  0.28987800  0.50000000  1
  Cs  Cs9  1  0.50000000  0.72025100  0.33298300  1
  Cs  Cs10  1  0.00000000  0.22025100  0.16701700  1
  Cs  Cs11  1  0.00000000  0.77974900  0.16701700  1
  Cs  Cs12  1  0.00000000  0.71012200  0.50000000  1
  Cs  Cs13  1  0.50000000  0.00000000  0.50000000  1
  Au  Au14  1  0.00000000  0.00000000  0.64941500  1
  Au  Au15  1  0.50000000  0.00000000  0.80896600  1
  Au  Au16  1  0.00000000  0.00000000  0.00000000  1
  Au  Au17  1  0.50000000  0.50000000  0.85058500  1
  Au  Au18  1  0.00000000  0.50000000  0.69103400  1
  Au  Au19  1  0.50000000  0.50000000  0.14941500  1
  Au  Au20  1  0.00000000  0.50000000  0.30896600  1
  Au  Au21  1  0.50000000  0.50000000  0.50000000  1
  Au  Au22  1  0.00000000  0.00000000  0.35058500  1
  Au  Au23  1  0.50000000  0.00000000  0.19103400  1
  O  O24  1  0.00000000  0.79128500  0.00000000  1
  O  O25  1  0.00000000  0.20871500  0.00000000  1
  O  O26  1  0.50000000  0.29128500  0.50000000  1
  O  O27  1  0.50000000  0.70871500  0.50000000  1
