# generated using pymatgen
data_SeCl4
_symmetry_space_group_name_H-M   'P 1'
_cell_length_a   17.46334600
_cell_length_b   10.33660000
_cell_length_c   15.94618925
_cell_angle_alpha   90.00000000
_cell_angle_beta   117.04885171
_cell_angle_gamma   90.00000000
_symmetry_Int_Tables_number   1
_chemical_formula_structural   SeCl4
_chemical_formula_sum   'Se16 Cl64'
_cell_volume   2563.62262967
_cell_formula_units_Z   16
loop_
 _symmetry_equiv_pos_site_id
 _symmetry_equiv_pos_as_xyz
  1  'x, y, z'
loop_
 _atom_site_type_symbol
 _atom_site_label
 _atom_site_symmetry_multiplicity
 _atom_site_fract_x
 _atom_site_fract_y
 _atom_site_fract_z
 _atom_site_occupancy
  Se  Se0  1  0.63446400  0.52397200  0.81421200  1
  Se  Se1  1  0.86553600  0.02397200  0.68578800  1
  Se  Se2  1  0.86553600  0.97602800  0.18578800  1
  Se  Se3  1  0.63446400  0.47602800  0.31421200  1
  Se  Se4  1  0.00287200  0.73844500  0.88406700  1
  Se  Se5  1  0.99712800  0.73844500  0.61593300  1
  Se  Se6  1  0.49712800  0.76155500  0.11593300  1
  Se  Se7  1  0.50287200  0.76155500  0.38406700  1
  Se  Se8  1  0.13446400  0.02397200  0.81421200  1
  Se  Se9  1  0.36553600  0.52397200  0.68578800  1
  Se  Se10  1  0.36553600  0.47602800  0.18578800  1
  Se  Se11  1  0.13446400  0.97602800  0.31421200  1
  Se  Se12  1  0.50287200  0.23844500  0.88406700  1
  Se  Se13  1  0.49712800  0.23844500  0.61593300  1
  Se  Se14  1  0.99712800  0.26155500  0.11593300  1
  Se  Se15  1  0.00287200  0.26155500  0.38406700  1
  Cl  Cl16  1  0.73042500  0.51765100  0.96507400  1
  Cl  Cl17  1  0.76957500  0.01765100  0.53492600  1
  Cl  Cl18  1  0.76957500  0.98234900  0.03492600  1
  Cl  Cl19  1  0.73042500  0.48234900  0.46507400  1
  Cl  Cl20  1  0.72823800  0.50869800  0.75660000  1
  Cl  Cl21  1  0.77176200  0.00869800  0.74340000  1
  Cl  Cl22  1  0.77176200  0.99130200  0.24340000  1
  Cl  Cl23  1  0.72823800  0.49130200  0.25660000  1
  Cl  Cl24  1  0.62317300  0.73926700  0.80563000  1
  Cl  Cl25  1  0.87682700  0.23926700  0.69437000  1
  Cl  Cl26  1  0.87682700  0.76073300  0.19437000  1
  Cl  Cl27  1  0.62317300  0.26073300  0.30563000  1
  Cl  Cl28  1  0.11937950  0.75712250  0.80814500  1
  Cl  Cl29  1  0.88062050  0.75712250  0.69185500  1
  Cl  Cl30  1  0.38062050  0.74287750  0.19185500  1
  Cl  Cl31  1  0.61937950  0.74287750  0.30814500  1
  Cl  Cl32  1  0.50171300  0.50720100  0.86587500  1
  Cl  Cl33  1  0.49828700  0.50720100  0.63412500  1
  Cl  Cl34  1  0.99828700  0.99279900  0.13412500  1
  Cl  Cl35  1  0.00171300  0.99279900  0.36587500  1
  Cl  Cl36  1  0.00263750  0.52397050  0.87193600  1
  Cl  Cl37  1  0.99736250  0.52397050  0.62806400  1
  Cl  Cl38  1  0.49736250  0.97602950  0.12806400  1
  Cl  Cl39  1  0.50263750  0.97602950  0.37193600  1
  Cl  Cl40  1  0.89868200  0.75023400  0.92639400  1
  Cl  Cl41  1  0.10131800  0.75023400  0.57360600  1
  Cl  Cl42  1  0.60131800  0.74976600  0.07360600  1
  Cl  Cl43  1  0.39868200  0.74976600  0.42639400  1
  Cl  Cl44  1  0.61078300  0.25088400  0.02751500  1
  Cl  Cl45  1  0.88921700  0.75088400  0.47248500  1
  Cl  Cl46  1  0.88921700  0.24911600  0.97248500  1
  Cl  Cl47  1  0.61078300  0.74911600  0.52751500  1
  Cl  Cl48  1  0.23042500  0.01765100  0.96507400  1
  Cl  Cl49  1  0.26957500  0.51765100  0.53492600  1
  Cl  Cl50  1  0.26957500  0.48234900  0.03492600  1
  Cl  Cl51  1  0.23042500  0.98234900  0.46507400  1
  Cl  Cl52  1  0.22823800  0.00869800  0.75660000  1
  Cl  Cl53  1  0.27176200  0.50869800  0.74340000  1
  Cl  Cl54  1  0.27176200  0.49130200  0.24340000  1
  Cl  Cl55  1  0.22823800  0.99130200  0.25660000  1
  Cl  Cl56  1  0.12317300  0.23926700  0.80563000  1
  Cl  Cl57  1  0.37682700  0.73926700  0.69437000  1
  Cl  Cl58  1  0.37682700  0.26073300  0.19437000  1
  Cl  Cl59  1  0.12317300  0.76073300  0.30563000  1
  Cl  Cl60  1  0.61937950  0.25712250  0.80814500  1
  Cl  Cl61  1  0.38062050  0.25712250  0.69185500  1
  Cl  Cl62  1  0.88062050  0.24287750  0.19185500  1
  Cl  Cl63  1  0.11937950  0.24287750  0.30814500  1
  Cl  Cl64  1  0.00171300  0.00720100  0.86587500  1
  Cl  Cl65  1  0.99828700  0.00720100  0.63412500  1
  Cl  Cl66  1  0.49828700  0.49279900  0.13412500  1
  Cl  Cl67  1  0.50171300  0.49279900  0.36587500  1
  Cl  Cl68  1  0.50263750  0.02397050  0.87193600  1
  Cl  Cl69  1  0.49736250  0.02397050  0.62806400  1
  Cl  Cl70  1  0.99736250  0.47602950  0.12806400  1
  Cl  Cl71  1  0.00263750  0.47602950  0.37193600  1
  Cl  Cl72  1  0.39868200  0.25023400  0.92639400  1
  Cl  Cl73  1  0.60131800  0.25023400  0.57360600  1
  Cl  Cl74  1  0.10131800  0.24976600  0.07360600  1
  Cl  Cl75  1  0.89868200  0.24976600  0.42639400  1
  Cl  Cl76  1  0.11078300  0.75088400  0.02751500  1
  Cl  Cl77  1  0.38921700  0.25088400  0.47248500  1
  Cl  Cl78  1  0.38921700  0.74911600  0.97248500  1
  Cl  Cl79  1  0.11078300  0.24911600  0.52751500  1
