# generated using pymatgen
data_Na2ZrGeO5
_symmetry_space_group_name_H-M   'P 1'
_cell_length_a   14.06172800
_cell_length_b   5.62409200
_cell_length_c   14.30189979
_cell_angle_alpha   90.00000000
_cell_angle_beta   119.06304824
_cell_angle_gamma   90.00000000
_symmetry_Int_Tables_number   1
_chemical_formula_structural   Na2ZrGeO5
_chemical_formula_sum   'Na16 Zr8 Ge8 O40'
_cell_volume   988.64153510
_cell_formula_units_Z   8
loop_
 _symmetry_equiv_pos_site_id
 _symmetry_equiv_pos_as_xyz
  1  'x, y, z'
loop_
 _atom_site_type_symbol
 _atom_site_label
 _atom_site_symmetry_multiplicity
 _atom_site_fract_x
 _atom_site_fract_y
 _atom_site_fract_z
 _atom_site_occupancy
  Na  Na0  1  0.15009800  0.73911600  0.32045900  1
  Na  Na1  1  0.32789100  0.27112200  0.17963900  1
  Na  Na2  1  0.92967500  0.76970800  0.57782800  1
  Na  Na3  1  0.85283500  0.26579300  0.92409500  1
  Na  Na4  1  0.17210900  0.77112200  0.82036100  1
  Na  Na5  1  0.64716500  0.76579300  0.07590500  1
  Na  Na6  1  0.34990200  0.23911600  0.67954100  1
  Na  Na7  1  0.42967500  0.73029200  0.57782800  1
  Na  Na8  1  0.65009800  0.76088400  0.32045900  1
  Na  Na9  1  0.14716500  0.73420700  0.07590500  1
  Na  Na10  1  0.84990200  0.26088400  0.67954100  1
  Na  Na11  1  0.67210900  0.72887800  0.82036100  1
  Na  Na12  1  0.57032500  0.26970800  0.42217200  1
  Na  Na13  1  0.82789100  0.22887800  0.17963900  1
  Na  Na14  1  0.07032500  0.23029200  0.42217200  1
  Na  Na15  1  0.35283500  0.23420700  0.92409500  1
  Zr  Zr16  1  0.30549300  0.26240300  0.43712000  1
  Zr  Zr17  1  0.80549300  0.23759700  0.43712000  1
  Zr  Zr18  1  0.63134900  0.23333700  0.93663000  1
  Zr  Zr19  1  0.69450700  0.73759700  0.56288000  1
  Zr  Zr20  1  0.86865100  0.73333700  0.06337000  1
  Zr  Zr21  1  0.19450700  0.76240300  0.56288000  1
  Zr  Zr22  1  0.13134900  0.26666300  0.93663000  1
  Zr  Zr23  1  0.36865100  0.76666300  0.06337000  1
  Ge  Ge24  1  0.40770900  0.78096800  0.34035100  1
  Ge  Ge25  1  0.93421600  0.78307800  0.84083600  1
  Ge  Ge26  1  0.06578400  0.21692200  0.15916400  1
  Ge  Ge27  1  0.43421600  0.71692200  0.84083600  1
  Ge  Ge28  1  0.09229100  0.28096800  0.65964900  1
  Ge  Ge29  1  0.59229100  0.21903200  0.65964900  1
  Ge  Ge30  1  0.90770900  0.71903200  0.34035100  1
  Ge  Ge31  1  0.56578400  0.28307800  0.15916400  1
  O  O32  1  0.54773400  0.70815900  0.41063200  1
  O  O33  1  0.14689700  0.21660400  0.79762700  1
  O  O34  1  0.16185800  0.09735600  0.61351700  1
  O  O35  1  0.84956100  0.74981700  0.70138300  1
  O  O36  1  0.38971200  0.08884600  0.35867500  1
  O  O37  1  0.22828500  0.97449300  0.99765300  1
  O  O38  1  0.76617300  0.53455800  0.49229200  1
  O  O39  1  0.86649000  0.69165200  0.91188400  1
  O  O40  1  0.66185800  0.40264400  0.61351700  1
  O  O41  1  0.83814200  0.90264400  0.38648300  1
  O  O42  1  0.27171500  0.47449300  0.00234700  1
  O  O43  1  0.88971200  0.41115400  0.35867500  1
  O  O44  1  0.13351000  0.30834800  0.08811600  1
  O  O45  1  0.26617300  0.96544200  0.49229200  1
  O  O46  1  0.15043900  0.25018300  0.29861700  1
  O  O47  1  0.52930200  0.59025600  0.13440100  1
  O  O48  1  0.61028800  0.91115400  0.64132500  1
  O  O49  1  0.45159000  0.09950800  0.12179400  1
  O  O50  1  0.97069800  0.09025600  0.86559900  1
  O  O51  1  0.73382700  0.03455800  0.50770800  1
  O  O52  1  0.04841000  0.59950800  0.87820600  1
  O  O53  1  0.54841000  0.90049200  0.87820600  1
  O  O54  1  0.23382700  0.46544200  0.50770800  1
  O  O55  1  0.04773400  0.79184100  0.41063200  1
  O  O56  1  0.95226600  0.20815900  0.58936800  1
  O  O57  1  0.34956100  0.75018300  0.70138300  1
  O  O58  1  0.65043900  0.24981700  0.29861700  1
  O  O59  1  0.11028800  0.58884600  0.64132500  1
  O  O60  1  0.33814200  0.59735600  0.38648300  1
  O  O61  1  0.35310300  0.71660400  0.20237300  1
  O  O62  1  0.95159000  0.40049200  0.12179400  1
  O  O63  1  0.77171500  0.02550700  0.00234700  1
  O  O64  1  0.47069800  0.40974400  0.86559900  1
  O  O65  1  0.02930200  0.90974400  0.13440100  1
  O  O66  1  0.63351000  0.19165200  0.08811600  1
  O  O67  1  0.85310300  0.78339600  0.20237300  1
  O  O68  1  0.64689700  0.28339600  0.79762700  1
  O  O69  1  0.72828500  0.52550700  0.99765300  1
  O  O70  1  0.45226600  0.29184100  0.58936800  1
  O  O71  1  0.36649000  0.80834800  0.91188400  1
