# generated using pymatgen
data_CsNb(PO4)2
_symmetry_space_group_name_H-M   'P 1'
_cell_length_a   8.83411200
_cell_length_b   5.31776200
_cell_length_c   8.99487310
_cell_angle_alpha   90.00000000
_cell_angle_beta   93.30320222
_cell_angle_gamma   90.00000000
_symmetry_Int_Tables_number   1
_chemical_formula_structural   CsNb(PO4)2
_chemical_formula_sum   'Cs2 Nb2 P4 O16'
_cell_volume   421.85645636
_cell_formula_units_Z   2
loop_
 _symmetry_equiv_pos_site_id
 _symmetry_equiv_pos_as_xyz
  1  'x, y, z'
loop_
 _atom_site_type_symbol
 _atom_site_label
 _atom_site_symmetry_multiplicity
 _atom_site_fract_x
 _atom_site_fract_y
 _atom_site_fract_z
 _atom_site_occupancy
  Cs  Cs0  1  0.00000000  0.00000000  0.00000000  1
  Cs  Cs1  1  0.50000000  0.50000000  0.00000000  1
  Nb  Nb2  1  0.00000000  0.00000000  0.50000000  1
  Nb  Nb3  1  0.50000000  0.50000000  0.50000000  1
  P  P4  1  0.35625200  0.00000000  0.69221600  1
  P  P5  1  0.64374800  0.00000000  0.30778400  1
  P  P6  1  0.85625200  0.50000000  0.69221600  1
  P  P7  1  0.14374800  0.50000000  0.30778400  1
  O  O8  1  0.54902950  0.23528450  0.35149800  1
  O  O9  1  0.78874500  0.00000000  0.41790900  1
  O  O10  1  0.67881800  0.00000000  0.14751900  1
  O  O11  1  0.54902950  0.76471550  0.35149800  1
  O  O12  1  0.32118200  0.00000000  0.85248100  1
  O  O13  1  0.21125500  0.00000000  0.58209100  1
  O  O14  1  0.45097050  0.23528450  0.64850200  1
  O  O15  1  0.45097050  0.76471550  0.64850200  1
  O  O16  1  0.04902950  0.73528450  0.35149800  1
  O  O17  1  0.28874500  0.50000000  0.41790900  1
  O  O18  1  0.17881800  0.50000000  0.14751900  1
  O  O19  1  0.04902950  0.26471550  0.35149800  1
  O  O20  1  0.82118200  0.50000000  0.85248100  1
  O  O21  1  0.71125500  0.50000000  0.58209100  1
  O  O22  1  0.95097050  0.73528450  0.64850200  1
  O  O23  1  0.95097050  0.26471550  0.64850200  1
