# generated using pymatgen
data_Sr(Li2P)2
_symmetry_space_group_name_H-M   'P 1'
_cell_length_a   4.29500547
_cell_length_b   4.29500547
_cell_length_c   23.56305015
_cell_angle_alpha   90.00000000
_cell_angle_beta   90.00000000
_cell_angle_gamma   120.00000000
_symmetry_Int_Tables_number   1
_chemical_formula_structural   Sr(Li2P)2
_chemical_formula_sum   'Sr3 Li12 P6'
_cell_volume   376.43464050
_cell_formula_units_Z   3
loop_
 _symmetry_equiv_pos_site_id
 _symmetry_equiv_pos_as_xyz
  1  'x, y, z'
loop_
 _atom_site_type_symbol
 _atom_site_label
 _atom_site_symmetry_multiplicity
 _atom_site_fract_x
 _atom_site_fract_y
 _atom_site_fract_z
 _atom_site_occupancy
  Sr  Sr0  1  0.00000000  0.00000000  0.00000000  1
  Sr  Sr1  1  0.66666667  0.33333333  0.33333333  1
  Sr  Sr2  1  0.33333333  0.66666667  0.66666667  1
  Li  Li3  1  0.33333333  0.66666667  0.09607867  1
  Li  Li4  1  0.00000000  0.00000000  0.13772600  1
  Li  Li5  1  0.33333333  0.66666667  0.23725467  1
  Li  Li6  1  0.66666667  0.33333333  0.19560733  1
  Li  Li7  1  0.00000000  0.00000000  0.42941200  1
  Li  Li8  1  0.66666667  0.33333333  0.47105933  1
  Li  Li9  1  0.00000000  0.00000000  0.57058800  1
  Li  Li10  1  0.33333333  0.66666667  0.52894067  1
  Li  Li11  1  0.66666667  0.33333333  0.76274533  1
  Li  Li12  1  0.33333333  0.66666667  0.80439267  1
  Li  Li13  1  0.66666667  0.33333333  0.90392133  1
  Li  Li14  1  0.00000000  0.00000000  0.86227400  1
  P  P15  1  0.66666667  0.33333333  0.08719533  1
  P  P16  1  0.00000000  0.00000000  0.24613800  1
  P  P17  1  0.33333333  0.66666667  0.42052867  1
  P  P18  1  0.66666667  0.33333333  0.57947133  1
  P  P19  1  0.00000000  0.00000000  0.75386200  1
  P  P20  1  0.33333333  0.66666667  0.91280467  1
