# generated using pymatgen
data_Ag2PO3F
_symmetry_space_group_name_H-M   'P 1'
_cell_length_a   9.44380600
_cell_length_b   5.65085400
_cell_length_c   15.24917491
_cell_angle_alpha   90.00000000
_cell_angle_beta   92.30981930
_cell_angle_gamma   90.00000000
_symmetry_Int_Tables_number   1
_chemical_formula_structural   Ag2PO3F
_chemical_formula_sum   'Ag16 P8 O24 F8'
_cell_volume   813.11969989
_cell_formula_units_Z   8
loop_
 _symmetry_equiv_pos_site_id
 _symmetry_equiv_pos_as_xyz
  1  'x, y, z'
loop_
 _atom_site_type_symbol
 _atom_site_label
 _atom_site_symmetry_multiplicity
 _atom_site_fract_x
 _atom_site_fract_y
 _atom_site_fract_z
 _atom_site_occupancy
  Ag  Ag0  1  0.65064900  0.03698400  0.16704300  1
  Ag  Ag1  1  0.50000000  0.47211300  0.75000000  1
  Ag  Ag2  1  0.34935100  0.96301600  0.83295700  1
  Ag  Ag3  1  0.65064900  0.96301600  0.66704300  1
  Ag  Ag4  1  0.34935100  0.03698400  0.33295700  1
  Ag  Ag5  1  0.50000000  0.52788700  0.25000000  1
  Ag  Ag6  1  0.00000000  0.00000000  0.50000000  1
  Ag  Ag7  1  0.00000000  0.00000000  0.00000000  1
  Ag  Ag8  1  0.15064900  0.53698400  0.16704300  1
  Ag  Ag9  1  0.00000000  0.97211300  0.75000000  1
  Ag  Ag10  1  0.84935100  0.46301600  0.83295700  1
  Ag  Ag11  1  0.15064900  0.46301600  0.66704300  1
  Ag  Ag12  1  0.84935100  0.53698400  0.33295700  1
  Ag  Ag13  1  0.00000000  0.02788700  0.25000000  1
  Ag  Ag14  1  0.50000000  0.50000000  0.50000000  1
  Ag  Ag15  1  0.50000000  0.50000000  0.00000000  1
  P  P16  1  0.68755500  0.04376500  0.37978300  1
  P  P17  1  0.31244500  0.95623500  0.62021700  1
  P  P18  1  0.68755500  0.95623500  0.87978300  1
  P  P19  1  0.31244500  0.04376500  0.12021700  1
  P  P20  1  0.18755500  0.54376500  0.37978300  1
  P  P21  1  0.81244500  0.45623500  0.62021700  1
  P  P22  1  0.18755500  0.45623500  0.87978300  1
  P  P23  1  0.81244500  0.54376500  0.12021700  1
  O  O24  1  0.32551950  0.16435450  0.68491000  1
  O  O25  1  0.42705600  0.76610700  0.63408700  1
  O  O26  1  0.83894400  0.14142800  0.39147200  1
  O  O27  1  0.42705600  0.23389300  0.13408700  1
  O  O28  1  0.67448050  0.83564550  0.31509000  1
  O  O29  1  0.67448050  0.16435450  0.81509000  1
  O  O30  1  0.83894400  0.85857200  0.89147200  1
  O  O31  1  0.32551950  0.83564550  0.18491000  1
  O  O32  1  0.16105600  0.14142800  0.10852800  1
  O  O33  1  0.16105600  0.85857200  0.60852800  1
  O  O34  1  0.57294400  0.76610700  0.86591300  1
  O  O35  1  0.57294400  0.23389300  0.36591300  1
  O  O36  1  0.82551950  0.66435450  0.68491000  1
  O  O37  1  0.92705600  0.26610700  0.63408700  1
  O  O38  1  0.33894400  0.64142800  0.39147200  1
  O  O39  1  0.92705600  0.73389300  0.13408700  1
  O  O40  1  0.17448050  0.33564550  0.31509000  1
  O  O41  1  0.17448050  0.66435450  0.81509000  1
  O  O42  1  0.33894400  0.35857200  0.89147200  1
  O  O43  1  0.82551950  0.33564550  0.18491000  1
  O  O44  1  0.66105600  0.64142800  0.10852800  1
  O  O45  1  0.66105600  0.35857200  0.60852800  1
  O  O46  1  0.07294400  0.26610700  0.86591300  1
  O  O47  1  0.07294400  0.73389300  0.36591300  1
  F  F48  1  0.34569050  0.92918850  0.02647200  1
  F  F49  1  0.65430950  0.07081150  0.97352800  1
  F  F50  1  0.65430950  0.92918850  0.47352800  1
  F  F51  1  0.34569050  0.07081150  0.52647200  1
  F  F52  1  0.84569050  0.42918850  0.02647200  1
  F  F53  1  0.15430950  0.57081150  0.97352800  1
  F  F54  1  0.15430950  0.42918850  0.47352800  1
  F  F55  1  0.84569050  0.57081150  0.52647200  1
