# generated using pymatgen
data_Ta3Bi7O18
_symmetry_space_group_name_H-M   'P 1'
_cell_length_a   32.59772600
_cell_length_b   7.68197000
_cell_length_c   6.71401782
_cell_angle_alpha   90.00000000
_cell_angle_beta   93.72651826
_cell_angle_gamma   90.00000000
_symmetry_Int_Tables_number   1
_chemical_formula_structural   Ta3Bi7O18
_chemical_formula_sum   'Ta12 Bi28 O72'
_cell_volume   1677.73427262
_cell_formula_units_Z   4
loop_
 _symmetry_equiv_pos_site_id
 _symmetry_equiv_pos_as_xyz
  1  'x, y, z'
loop_
 _atom_site_type_symbol
 _atom_site_label
 _atom_site_symmetry_multiplicity
 _atom_site_fract_x
 _atom_site_fract_y
 _atom_site_fract_z
 _atom_site_occupancy
  Ta  Ta0  1  0.55597750  0.24964650  0.11725100  1
  Ta  Ta1  1  0.55597750  0.75035350  0.11725100  1
  Ta  Ta2  1  0.75000000  0.25000000  0.50000000  1
  Ta  Ta3  1  0.94402250  0.25035350  0.88274900  1
  Ta  Ta4  1  0.75000000  0.75000000  0.50000000  1
  Ta  Ta5  1  0.94402250  0.74964650  0.88274900  1
  Ta  Ta6  1  0.05597750  0.74964650  0.11725100  1
  Ta  Ta7  1  0.05597750  0.25035350  0.11725100  1
  Ta  Ta8  1  0.25000000  0.75000000  0.50000000  1
  Ta  Ta9  1  0.44402250  0.75035350  0.88274900  1
  Ta  Ta10  1  0.25000000  0.25000000  0.50000000  1
  Ta  Ta11  1  0.44402250  0.24964650  0.88274900  1
  Bi  Bi12  1  0.74796900  0.00000000  0.02617600  1
  Bi  Bi13  1  0.94849100  0.50000000  0.34812300  1
  Bi  Bi14  1  0.85470250  0.25060350  0.16368000  1
  Bi  Bi15  1  0.64529750  0.24939650  0.83632000  1
  Bi  Bi16  1  0.85470250  0.74939650  0.16368000  1
  Bi  Bi17  1  0.64665400  0.00000000  0.31746000  1
  Bi  Bi18  1  0.75203100  0.50000000  0.97382400  1
  Bi  Bi19  1  0.64529750  0.75060350  0.83632000  1
  Bi  Bi20  1  0.85334600  0.50000000  0.68254000  1
  Bi  Bi21  1  0.94367800  0.00000000  0.40747000  1
  Bi  Bi22  1  0.83836400  0.00000000  0.68868300  1
  Bi  Bi23  1  0.55632200  0.50000000  0.59253000  1
  Bi  Bi24  1  0.66163600  0.50000000  0.31131700  1
  Bi  Bi25  1  0.55150900  0.00000000  0.65187700  1
  Bi  Bi26  1  0.24796900  0.50000000  0.02617600  1
  Bi  Bi27  1  0.44849100  0.00000000  0.34812300  1
  Bi  Bi28  1  0.35470250  0.75060350  0.16368000  1
  Bi  Bi29  1  0.14529750  0.74939650  0.83632000  1
  Bi  Bi30  1  0.35470250  0.24939650  0.16368000  1
  Bi  Bi31  1  0.14665400  0.50000000  0.31746000  1
  Bi  Bi32  1  0.25203100  0.00000000  0.97382400  1
  Bi  Bi33  1  0.14529750  0.25060350  0.83632000  1
  Bi  Bi34  1  0.35334600  0.00000000  0.68254000  1
  Bi  Bi35  1  0.44367800  0.50000000  0.40747000  1
  Bi  Bi36  1  0.33836400  0.50000000  0.68868300  1
  Bi  Bi37  1  0.05632200  0.00000000  0.59253000  1
  Bi  Bi38  1  0.16163600  0.00000000  0.31131700  1
  Bi  Bi39  1  0.05150900  0.50000000  0.65187700  1
  O  O40  1  0.87951400  0.00000000  0.42293400  1
  O  O41  1  0.81816100  0.00000000  0.01769200  1
  O  O42  1  0.57144500  0.71283900  0.81443600  1
  O  O43  1  0.95005200  0.29981800  0.60618300  1
  O  O44  1  0.54784800  0.50000000  0.16929900  1
  O  O45  1  0.68183900  0.50000000  0.98230800  1
  O  O46  1  0.54994800  0.20018200  0.39381700  1
  O  O47  1  0.88135900  0.21099400  0.85470000  1
  O  O48  1  0.93129600  0.50000000  0.94003600  1
  O  O49  1  0.67073500  0.00000000  0.00619700  1
  O  O50  1  0.92855500  0.21283900  0.18556400  1
  O  O51  1  0.54994800  0.79981800  0.39381700  1
  O  O52  1  0.81038750  0.70807150  0.57176000  1
  O  O53  1  0.74059900  0.79532300  0.78642600  1
  O  O54  1  0.68961250  0.79192850  0.42824000  1
  O  O55  1  0.88338500  0.50000000  0.34467600  1
  O  O56  1  0.76409200  0.00000000  0.45904000  1
  O  O57  1  0.74059900  0.20467700  0.78642600  1
  O  O58  1  0.75940100  0.29532300  0.21357400  1
  O  O59  1  0.75940100  0.70467700  0.21357400  1
  O  O60  1  0.61661500  0.00000000  0.65532400  1
  O  O61  1  0.92855500  0.78716100  0.18556400  1
  O  O62  1  0.95005200  0.70018200  0.60618300  1
  O  O63  1  0.73590800  0.50000000  0.54096000  1
  O  O64  1  0.61864100  0.28900600  0.14530000  1
  O  O65  1  0.00000000  0.72059100  0.00000000  1
  O  O66  1  0.81038750  0.29192850  0.57176000  1
  O  O67  1  0.00000000  0.27940900  0.00000000  1
  O  O68  1  0.88135900  0.78900600  0.85470000  1
  O  O69  1  0.61864100  0.71099400  0.14530000  1
  O  O70  1  0.95215200  0.00000000  0.83070100  1
  O  O71  1  0.57144500  0.28716100  0.81443600  1
  O  O72  1  0.62048600  0.50000000  0.57706600  1
  O  O73  1  0.82926500  0.50000000  0.99380300  1
  O  O74  1  0.56870400  0.00000000  0.05996400  1
  O  O75  1  0.68961250  0.20807150  0.42824000  1
  O  O76  1  0.37951400  0.50000000  0.42293400  1
  O  O77  1  0.31816100  0.50000000  0.01769200  1
  O  O78  1  0.07144500  0.21283900  0.81443600  1
  O  O79  1  0.45005200  0.79981800  0.60618300  1
  O  O80  1  0.04784800  0.00000000  0.16929900  1
  O  O81  1  0.18183900  0.00000000  0.98230800  1
  O  O82  1  0.04994800  0.70018200  0.39381700  1
  O  O83  1  0.38135900  0.71099400  0.85470000  1
  O  O84  1  0.43129600  0.00000000  0.94003600  1
  O  O85  1  0.17073500  0.50000000  0.00619700  1
  O  O86  1  0.42855500  0.71283900  0.18556400  1
  O  O87  1  0.04994800  0.29981800  0.39381700  1
  O  O88  1  0.31038750  0.20807150  0.57176000  1
  O  O89  1  0.24059900  0.29532300  0.78642600  1
  O  O90  1  0.18961250  0.29192850  0.42824000  1
  O  O91  1  0.38338500  0.00000000  0.34467600  1
  O  O92  1  0.26409200  0.50000000  0.45904000  1
  O  O93  1  0.24059900  0.70467700  0.78642600  1
  O  O94  1  0.25940100  0.79532300  0.21357400  1
  O  O95  1  0.25940100  0.20467700  0.21357400  1
  O  O96  1  0.11661500  0.50000000  0.65532400  1
  O  O97  1  0.42855500  0.28716100  0.18556400  1
  O  O98  1  0.45005200  0.20018200  0.60618300  1
  O  O99  1  0.23590800  0.00000000  0.54096000  1
  O  O100  1  0.11864100  0.78900600  0.14530000  1
  O  O101  1  0.50000000  0.22059100  0.00000000  1
  O  O102  1  0.31038750  0.79192850  0.57176000  1
  O  O103  1  0.50000000  0.77940900  0.00000000  1
  O  O104  1  0.38135900  0.28900600  0.85470000  1
  O  O105  1  0.11864100  0.21099400  0.14530000  1
  O  O106  1  0.45215200  0.50000000  0.83070100  1
  O  O107  1  0.07144500  0.78716100  0.81443600  1
  O  O108  1  0.12048600  0.00000000  0.57706600  1
  O  O109  1  0.32926500  0.00000000  0.99380300  1
  O  O110  1  0.06870400  0.50000000  0.05996400  1
  O  O111  1  0.18961250  0.70807150  0.42824000  1
