# generated using pymatgen
data_Ba14AlSb11
_symmetry_space_group_name_H-M   'P 1'
_cell_length_a   18.52713600
_cell_length_b   18.52713600
_cell_length_c   24.56170000
_cell_angle_alpha   90.00000000
_cell_angle_beta   90.00000000
_cell_angle_gamma   90.00000000
_symmetry_Int_Tables_number   1
_chemical_formula_structural   Ba14AlSb11
_chemical_formula_sum   'Ba112 Al8 Sb88'
_cell_volume   8430.92064409
_cell_formula_units_Z   8
loop_
 _symmetry_equiv_pos_site_id
 _symmetry_equiv_pos_as_xyz
  1  'x, y, z'
loop_
 _atom_site_type_symbol
 _atom_site_label
 _atom_site_symmetry_multiplicity
 _atom_site_fract_x
 _atom_site_fract_y
 _atom_site_fract_z
 _atom_site_occupancy
  Ba  Ba0  1  0.31796550  0.65785550  0.96845850  1
  Ba  Ba1  1  0.84214450  0.68203450  0.21845850  1
  Ba  Ba2  1  0.54464950  0.17846750  0.95367650  1
  Ba  Ba3  1  0.32153250  0.45535050  0.20367650  1
  Ba  Ba4  1  0.65785550  0.18203450  0.21845850  1
  Ba  Ba5  1  0.31796550  0.34214450  0.46845850  1
  Ba  Ba6  1  0.34214450  0.81796550  0.21845850  1
  Ba  Ba7  1  0.18203450  0.15785550  0.96845850  1
  Ba  Ba8  1  0.37395500  0.52026600  0.37429700  1
  Ba  Ba9  1  0.17846750  0.95535050  0.20367650  1
  Ba  Ba10  1  0.47973400  0.12604500  0.12429700  1
  Ba  Ba11  1  0.54464950  0.82153250  0.45367650  1
  Ba  Ba12  1  0.97973400  0.12604500  0.62570300  1
  Ba  Ba13  1  0.18203450  0.84214450  0.46845850  1
  Ba  Ba14  1  0.87395500  0.52026600  0.37570300  1
  Ba  Ba15  1  0.32153250  0.54464950  0.70367650  1
  Ba  Ba16  1  0.25000000  0.35611800  0.62500000  1
  Ba  Ba17  1  0.15785550  0.31796550  0.21845850  1
  Ba  Ba18  1  0.45535050  0.17846750  0.45367650  1
  Ba  Ba19  1  0.14388200  0.75000000  0.87500000  1
  Ba  Ba20  1  0.97973400  0.37395500  0.12429700  1
  Ba  Ba21  1  0.12604500  0.02026600  0.37429700  1
  Ba  Ba22  1  0.14388200  0.25000000  0.37500000  1
  Ba  Ba23  1  0.25000000  0.85611800  0.62500000  1
  Ba  Ba24  1  0.02026600  0.62604500  0.12429700  1
  Ba  Ba25  1  0.32153250  0.95535050  0.04632350  1
  Ba  Ba26  1  0.95535050  0.32153250  0.45367650  1
  Ba  Ba27  1  0.37395500  0.47973400  0.87429700  1
  Ba  Ba28  1  0.12604500  0.52026600  0.87570300  1
  Ba  Ba29  1  0.04464950  0.17846750  0.79632350  1
  Ba  Ba30  1  0.17846750  0.04464950  0.70367650  1
  Ba  Ba31  1  0.97973400  0.87395500  0.12570300  1
  Ba  Ba32  1  0.25000000  0.14388200  0.12500000  1
  Ba  Ba33  1  0.35611800  0.75000000  0.37500000  1
  Ba  Ba34  1  0.37395500  0.97973400  0.37570300  1
  Ba  Ba35  1  0.02026600  0.12604500  0.12570300  1
  Ba  Ba36  1  0.35611800  0.25000000  0.87500000  1
  Ba  Ba37  1  0.54464950  0.32153250  0.79632350  1
  Ba  Ba38  1  0.34214450  0.68203450  0.53154150  1
  Ba  Ba39  1  0.25000000  0.64388200  0.12500000  1
  Ba  Ba40  1  0.17846750  0.45535050  0.04632350  1
  Ba  Ba41  1  0.62604500  0.47973400  0.37429700  1
  Ba  Ba42  1  0.31796550  0.15785550  0.28154150  1
  Ba  Ba43  1  0.02026600  0.37395500  0.62429700  1
  Ba  Ba44  1  0.95535050  0.17846750  0.29632350  1
  Ba  Ba45  1  0.52026600  0.37395500  0.12570300  1
  Ba  Ba46  1  0.32153250  0.04464950  0.54632350  1
  Ba  Ba47  1  0.12604500  0.47973400  0.37570300  1
  Ba  Ba48  1  0.81796550  0.34214450  0.28154150  1
  Ba  Ba49  1  0.15785550  0.18203450  0.53154150  1
  Ba  Ba50  1  0.18203450  0.65785550  0.28154150  1
  Ba  Ba51  1  0.34214450  0.31796550  0.03154150  1
  Ba  Ba52  1  0.67846750  0.04464950  0.04632350  1
  Ba  Ba53  1  0.45535050  0.32153250  0.29632350  1
  Ba  Ba54  1  0.15785550  0.81796550  0.03154150  1
  Ba  Ba55  1  0.68203450  0.84214450  0.28154150  1
  Ba  Ba56  1  0.81796550  0.15785550  0.46845850  1
  Ba  Ba57  1  0.34214450  0.18203450  0.71845850  1
  Ba  Ba58  1  0.04464950  0.67846750  0.45367650  1
  Ba  Ba59  1  0.82153250  0.95535050  0.70367650  1
  Ba  Ba60  1  0.15785550  0.68203450  0.71845850  1
  Ba  Ba61  1  0.81796550  0.84214450  0.96845850  1
  Ba  Ba62  1  0.84214450  0.31796550  0.71845850  1
  Ba  Ba63  1  0.68203450  0.65785550  0.46845850  1
  Ba  Ba64  1  0.87395500  0.02026600  0.87429700  1
  Ba  Ba65  1  0.67846750  0.45535050  0.70367650  1
  Ba  Ba66  1  0.97973400  0.62604500  0.62429700  1
  Ba  Ba67  1  0.04464950  0.32153250  0.95367650  1
  Ba  Ba68  1  0.47973400  0.62604500  0.12570300  1
  Ba  Ba69  1  0.68203450  0.34214450  0.96845850  1
  Ba  Ba70  1  0.37395500  0.02026600  0.87570300  1
  Ba  Ba71  1  0.82153250  0.04464950  0.20367650  1
  Ba  Ba72  1  0.75000000  0.85611800  0.12500000  1
  Ba  Ba73  1  0.65785550  0.81796550  0.71845850  1
  Ba  Ba74  1  0.95535050  0.67846750  0.95367650  1
  Ba  Ba75  1  0.64388200  0.25000000  0.37500000  1
  Ba  Ba76  1  0.47973400  0.87395500  0.62429700  1
  Ba  Ba77  1  0.62604500  0.52026600  0.87429700  1
  Ba  Ba78  1  0.64388200  0.75000000  0.87500000  1
  Ba  Ba79  1  0.75000000  0.35611800  0.12500000  1
  Ba  Ba80  1  0.52026600  0.12604500  0.62429700  1
  Ba  Ba81  1  0.82153250  0.45535050  0.54632350  1
  Ba  Ba82  1  0.45535050  0.82153250  0.95367650  1
  Ba  Ba83  1  0.87395500  0.97973400  0.37429700  1
  Ba  Ba84  1  0.62604500  0.02026600  0.37570300  1
  Ba  Ba85  1  0.54464950  0.67846750  0.29632350  1
  Ba  Ba86  1  0.67846750  0.54464950  0.20367650  1
  Ba  Ba87  1  0.47973400  0.37395500  0.62570300  1
  Ba  Ba88  1  0.75000000  0.64388200  0.62500000  1
  Ba  Ba89  1  0.85611800  0.25000000  0.87500000  1
  Ba  Ba90  1  0.87395500  0.47973400  0.87570300  1
  Ba  Ba91  1  0.52026600  0.62604500  0.62570300  1
  Ba  Ba92  1  0.85611800  0.75000000  0.37500000  1
  Ba  Ba93  1  0.04464950  0.82153250  0.29632350  1
  Ba  Ba94  1  0.84214450  0.18203450  0.03154150  1
  Ba  Ba95  1  0.75000000  0.14388200  0.62500000  1
  Ba  Ba96  1  0.67846750  0.95535050  0.54632350  1
  Ba  Ba97  1  0.12604500  0.97973400  0.87429700  1
  Ba  Ba98  1  0.81796550  0.65785550  0.78154150  1
  Ba  Ba99  1  0.52026600  0.87395500  0.12429700  1
  Ba  Ba100  1  0.45535050  0.67846750  0.79632350  1
  Ba  Ba101  1  0.02026600  0.87395500  0.62570300  1
  Ba  Ba102  1  0.82153250  0.54464950  0.04632350  1
  Ba  Ba103  1  0.62604500  0.97973400  0.87570300  1
  Ba  Ba104  1  0.31796550  0.84214450  0.78154150  1
  Ba  Ba105  1  0.65785550  0.68203450  0.03154150  1
  Ba  Ba106  1  0.68203450  0.15785550  0.78154150  1
  Ba  Ba107  1  0.84214450  0.81796550  0.53154150  1
  Ba  Ba108  1  0.17846750  0.54464950  0.54632350  1
  Ba  Ba109  1  0.95535050  0.82153250  0.79632350  1
  Ba  Ba110  1  0.65785550  0.31796550  0.53154150  1
  Ba  Ba111  1  0.18203450  0.34214450  0.78154150  1
  Al  Al112  1  0.50000000  0.00000000  0.25000000  1
  Al  Al113  1  0.00000000  0.50000000  0.25000000  1
  Al  Al114  1  0.00000000  0.00000000  0.50000000  1
  Al  Al115  1  0.00000000  0.00000000  0.00000000  1
  Al  Al116  1  0.00000000  0.50000000  0.75000000  1
  Al  Al117  1  0.50000000  0.00000000  0.75000000  1
  Al  Al118  1  0.50000000  0.50000000  0.00000000  1
  Al  Al119  1  0.50000000  0.50000000  0.50000000  1
  Sb  Sb120  1  0.86717800  0.27502200  0.57839500  1
  Sb  Sb121  1  0.72497800  0.63282200  0.32839500  1
  Sb  Sb122  1  0.22497800  0.86717800  0.32839500  1
  Sb  Sb123  1  0.13282200  0.27502200  0.07839500  1
  Sb  Sb124  1  0.36941300  0.00233500  0.19062800  1
  Sb  Sb125  1  0.49766500  0.63058700  0.44062800  1
  Sb  Sb126  1  0.49766500  0.36941300  0.94062800  1
  Sb  Sb127  1  0.13058700  0.50233500  0.19062800  1
  Sb  Sb128  1  0.00233500  0.13058700  0.44062800  1
  Sb  Sb129  1  0.86941300  0.49766500  0.19062800  1
  Sb  Sb130  1  0.37035650  0.87035650  0.50000000  1
  Sb  Sb131  1  0.00000000  0.00000000  0.25000000  1
  Sb  Sb132  1  0.37035650  0.37035650  0.75000000  1
  Sb  Sb133  1  0.27502200  0.63282200  0.82839500  1
  Sb  Sb134  1  0.36717800  0.22497800  0.57839500  1
  Sb  Sb135  1  0.63058700  0.99766500  0.19062800  1
  Sb  Sb136  1  0.50233500  0.36941300  0.44062800  1
  Sb  Sb137  1  0.12964350  0.87035650  0.75000000  1
  Sb  Sb138  1  0.12964350  0.37035650  0.50000000  1
  Sb  Sb139  1  0.72497800  0.13282200  0.92160500  1
  Sb  Sb140  1  0.36717800  0.27502200  0.17160500  1
  Sb  Sb141  1  0.00000000  0.00000000  0.75000000  1
  Sb  Sb142  1  0.50000000  0.00000000  0.00000000  1
  Sb  Sb143  1  0.63282200  0.22497800  0.07839500  1
  Sb  Sb144  1  0.27502200  0.36717800  0.32839500  1
  Sb  Sb145  1  0.87035650  0.12964350  0.75000000  1
  Sb  Sb146  1  0.37035650  0.12964350  0.00000000  1
  Sb  Sb147  1  0.99766500  0.63058700  0.30937200  1
  Sb  Sb148  1  0.36941300  0.50233500  0.05937200  1
  Sb  Sb149  1  0.13282200  0.77502200  0.17160500  1
  Sb  Sb150  1  0.22497800  0.36717800  0.92160500  1
  Sb  Sb151  1  0.12964350  0.62964350  0.00000000  1
  Sb  Sb152  1  0.00000000  0.50000000  0.00000000  1
  Sb  Sb153  1  0.12964350  0.12964350  0.25000000  1
  Sb  Sb154  1  0.13058700  0.00233500  0.05937200  1
  Sb  Sb155  1  0.49766500  0.86941300  0.30937200  1
  Sb  Sb156  1  0.86941300  0.99766500  0.05937200  1
  Sb  Sb157  1  0.50233500  0.13058700  0.30937200  1
  Sb  Sb158  1  0.00233500  0.36941300  0.30937200  1
  Sb  Sb159  1  0.13058700  0.99766500  0.55937200  1
  Sb  Sb160  1  0.86717800  0.22497800  0.17160500  1
  Sb  Sb161  1  0.27502200  0.13282200  0.42160500  1
  Sb  Sb162  1  0.77502200  0.36717800  0.42160500  1
  Sb  Sb163  1  0.13282200  0.22497800  0.67160500  1
  Sb  Sb164  1  0.36717800  0.77502200  0.07839500  1
  Sb  Sb165  1  0.22497800  0.13282200  0.82839500  1
  Sb  Sb166  1  0.72497800  0.36717800  0.82839500  1
  Sb  Sb167  1  0.63282200  0.77502200  0.57839500  1
  Sb  Sb168  1  0.86941300  0.50233500  0.69062800  1
  Sb  Sb169  1  0.99766500  0.13058700  0.94062800  1
  Sb  Sb170  1  0.99766500  0.86941300  0.44062800  1
  Sb  Sb171  1  0.63058700  0.00233500  0.69062800  1
  Sb  Sb172  1  0.50233500  0.63058700  0.94062800  1
  Sb  Sb173  1  0.36941300  0.99766500  0.69062800  1
  Sb  Sb174  1  0.87035650  0.37035650  0.00000000  1
  Sb  Sb175  1  0.50000000  0.50000000  0.75000000  1
  Sb  Sb176  1  0.87035650  0.87035650  0.25000000  1
  Sb  Sb177  1  0.77502200  0.13282200  0.32839500  1
  Sb  Sb178  1  0.86717800  0.72497800  0.07839500  1
  Sb  Sb179  1  0.13058700  0.49766500  0.69062800  1
  Sb  Sb180  1  0.00233500  0.86941300  0.94062800  1
  Sb  Sb181  1  0.62964350  0.37035650  0.25000000  1
  Sb  Sb182  1  0.62964350  0.87035650  0.00000000  1
  Sb  Sb183  1  0.22497800  0.63282200  0.42160500  1
  Sb  Sb184  1  0.86717800  0.77502200  0.67160500  1
  Sb  Sb185  1  0.50000000  0.50000000  0.25000000  1
  Sb  Sb186  1  0.00000000  0.50000000  0.50000000  1
  Sb  Sb187  1  0.13282200  0.72497800  0.57839500  1
  Sb  Sb188  1  0.77502200  0.86717800  0.82839500  1
  Sb  Sb189  1  0.37035650  0.62964350  0.25000000  1
  Sb  Sb190  1  0.87035650  0.62964350  0.50000000  1
  Sb  Sb191  1  0.49766500  0.13058700  0.80937200  1
  Sb  Sb192  1  0.86941300  0.00233500  0.55937200  1
  Sb  Sb193  1  0.63282200  0.27502200  0.67160500  1
  Sb  Sb194  1  0.72497800  0.86717800  0.42160500  1
  Sb  Sb195  1  0.62964350  0.12964350  0.50000000  1
  Sb  Sb196  1  0.50000000  0.00000000  0.50000000  1
  Sb  Sb197  1  0.62964350  0.62964350  0.75000000  1
  Sb  Sb198  1  0.63058700  0.50233500  0.55937200  1
  Sb  Sb199  1  0.99766500  0.36941300  0.80937200  1
  Sb  Sb200  1  0.36941300  0.49766500  0.55937200  1
  Sb  Sb201  1  0.00233500  0.63058700  0.80937200  1
  Sb  Sb202  1  0.50233500  0.86941300  0.80937200  1
  Sb  Sb203  1  0.63058700  0.49766500  0.05937200  1
  Sb  Sb204  1  0.36717800  0.72497800  0.67160500  1
  Sb  Sb205  1  0.77502200  0.63282200  0.92160500  1
  Sb  Sb206  1  0.27502200  0.86717800  0.92160500  1
  Sb  Sb207  1  0.63282200  0.72497800  0.17160500  1
