# generated using pymatgen
data_Na5B2P3O13
_symmetry_space_group_name_H-M   'P 1'
_cell_length_a   6.79259900
_cell_length_b   11.74681100
_cell_length_c   7.77690222
_cell_angle_alpha   90.00000000
_cell_angle_beta   115.09531040
_cell_angle_gamma   90.00000000
_symmetry_Int_Tables_number   1
_chemical_formula_structural   Na5B2P3O13
_chemical_formula_sum   'Na10 B4 P6 O26'
_cell_volume   561.95390957
_cell_formula_units_Z   2
loop_
 _symmetry_equiv_pos_site_id
 _symmetry_equiv_pos_as_xyz
  1  'x, y, z'
loop_
 _atom_site_type_symbol
 _atom_site_label
 _atom_site_symmetry_multiplicity
 _atom_site_fract_x
 _atom_site_fract_y
 _atom_site_fract_z
 _atom_site_occupancy
  Na  Na0  1  0.38031200  0.10129800  0.72183200  1
  Na  Na1  1  0.47503000  0.33077600  0.50774400  1
  Na  Na2  1  0.35215200  0.60815500  0.73271100  1
  Na  Na3  1  0.90107800  0.23606500  0.96467500  1
  Na  Na4  1  0.09892200  0.73606500  0.03532500  1
  Na  Na5  1  0.95177500  0.33197100  0.48803100  1
  Na  Na6  1  0.61968800  0.60129800  0.27816800  1
  Na  Na7  1  0.04822500  0.83197100  0.51196900  1
  Na  Na8  1  0.64784800  0.10815500  0.26728900  1
  Na  Na9  1  0.52497000  0.83077600  0.49225600  1
  B  B10  1  0.78877200  0.51290000  0.00155600  1
  B  B11  1  0.13252100  0.46409600  0.99613600  1
  B  B12  1  0.21122800  0.01290000  0.99844400  1
  B  B13  1  0.86747900  0.96409600  0.00386400  1
  P  P14  1  0.15598500  0.56322200  0.32040600  1
  P  P15  1  0.84190900  0.57673500  0.69335000  1
  P  P16  1  0.49979100  0.34917300  0.01103900  1
  P  P17  1  0.50020900  0.84917300  0.98896100  1
  P  P18  1  0.84401500  0.06322200  0.67959400  1
  P  P19  1  0.15809100  0.07673500  0.30665000  1
  O  O20  1  0.25152500  0.36727700  0.96986500  1
  O  O21  1  0.73781400  0.02767200  0.82117700  1
  O  O22  1  0.74172900  0.47740200  0.55985100  1
  O  O23  1  0.73161400  0.59521800  0.83719600  1
  O  O24  1  0.26218600  0.52767200  0.17882300  1
  O  O25  1  0.91002100  0.05174200  0.16135700  1
  O  O26  1  0.75386300  0.17963900  0.59754200  1
  O  O27  1  0.07064400  0.92445200  0.00755400  1
  O  O28  1  0.25827100  0.97740200  0.44014900  1
  O  O29  1  0.74847500  0.86727700  0.03013500  1
  O  O30  1  0.80795500  0.97102800  0.53291700  1
  O  O31  1  0.83500900  0.68933200  0.59444900  1
  O  O32  1  0.16499100  0.18933200  0.40555100  1
  O  O33  1  0.48915000  0.77693500  0.14665100  1
  O  O34  1  0.19204500  0.47102800  0.46708300  1
  O  O35  1  0.92935600  0.42445200  0.99244600  1
  O  O36  1  0.51085000  0.27693500  0.85334900  1
  O  O37  1  0.24613700  0.67963900  0.40245800  1
  O  O38  1  0.42156400  0.97693200  0.00283600  1
  O  O39  1  0.90456400  0.58191800  0.18190500  1
  O  O40  1  0.26838600  0.09521800  0.16280400  1
  O  O41  1  0.37190800  0.80385200  0.78954400  1
  O  O42  1  0.62809200  0.30385200  0.21045600  1
  O  O43  1  0.57843600  0.47693200  0.99716400  1
  O  O44  1  0.08997900  0.55174200  0.83864300  1
  O  O45  1  0.09543600  0.08191800  0.81809500  1
