# generated using pymatgen
data_Y4Al2O9
_symmetry_space_group_name_H-M   'P 1'
_cell_length_a   7.41962300
_cell_length_b   10.52775800
_cell_length_c   11.24528962
_cell_angle_alpha   90.00000000
_cell_angle_beta   108.34465983
_cell_angle_gamma   90.00000000
_symmetry_Int_Tables_number   1
_chemical_formula_structural   Y4Al2O9
_chemical_formula_sum   'Y16 Al8 O36'
_cell_volume   833.75251946
_cell_formula_units_Z   4
loop_
 _symmetry_equiv_pos_site_id
 _symmetry_equiv_pos_as_xyz
  1  'x, y, z'
loop_
 _atom_site_type_symbol
 _atom_site_label
 _atom_site_symmetry_multiplicity
 _atom_site_fract_x
 _atom_site_fract_y
 _atom_site_fract_z
 _atom_site_occupancy
  Y  Y0  1  0.77557700  0.59461700  0.30428000  1
  Y  Y1  1  0.41505000  0.38175700  0.08780200  1
  Y  Y2  1  0.90839200  0.36862900  0.05932600  1
  Y  Y3  1  0.41505000  0.11824300  0.58780200  1
  Y  Y4  1  0.77557700  0.90538300  0.80428000  1
  Y  Y5  1  0.22442300  0.09461700  0.19572000  1
  Y  Y6  1  0.26752900  0.60979700  0.28681100  1
  Y  Y7  1  0.26752900  0.89020300  0.78681100  1
  Y  Y8  1  0.73247100  0.10979700  0.21318900  1
  Y  Y9  1  0.90839200  0.13137100  0.55932600  1
  Y  Y10  1  0.73247100  0.39020300  0.71318900  1
  Y  Y11  1  0.09160800  0.86862900  0.44067400  1
  Y  Y12  1  0.58495000  0.88175700  0.41219800  1
  Y  Y13  1  0.58495000  0.61824300  0.91219800  1
  Y  Y14  1  0.22442300  0.40538300  0.69572000  1
  Y  Y15  1  0.09160800  0.63137100  0.94067400  1
  Al  Al16  1  0.58996100  0.31913200  0.38426600  1
  Al  Al17  1  0.41003900  0.81913200  0.11573400  1
  Al  Al18  1  0.41003900  0.68086800  0.61573400  1
  Al  Al19  1  0.04402900  0.17570200  0.87527100  1
  Al  Al20  1  0.95597100  0.67570200  0.62472900  1
  Al  Al21  1  0.95597100  0.82429800  0.12472900  1
  Al  Al22  1  0.04402900  0.32429800  0.37527100  1
  Al  Al23  1  0.58996100  0.18086800  0.88426600  1
  O  O24  1  0.46761800  0.27197100  0.75261100  1
  O  O25  1  0.02354900  0.25865800  0.73357600  1
  O  O26  1  0.02354900  0.24134200  0.23357600  1
  O  O27  1  0.52743300  0.02545400  0.82935200  1
  O  O28  1  0.53238200  0.77197100  0.74738900  1
  O  O29  1  0.81965500  0.76503000  0.97827100  1
  O  O30  1  0.47256700  0.52545400  0.67064800  1
  O  O31  1  0.18057800  0.72647200  0.61698200  1
  O  O32  1  0.93634600  0.98839800  0.14395400  1
  O  O33  1  0.97645100  0.74134200  0.26642400  1
  O  O34  1  0.52743300  0.47454600  0.32935200  1
  O  O35  1  0.93634600  0.51160200  0.64395400  1
  O  O36  1  0.81965500  0.73497000  0.47827100  1
  O  O37  1  0.81942200  0.27352800  0.38301800  1
  O  O38  1  0.06365400  0.48839800  0.35604600  1
  O  O39  1  0.16726300  0.49833300  0.10859100  1
  O  O40  1  0.16726300  0.00166700  0.60859100  1
  O  O41  1  0.61429300  0.26479600  0.53713900  1
  O  O42  1  0.06365400  0.01160200  0.85604600  1
  O  O43  1  0.46761800  0.22802900  0.25261100  1
  O  O44  1  0.47256700  0.97454600  0.17064800  1
  O  O45  1  0.53238200  0.72802900  0.24738900  1
  O  O46  1  0.97645100  0.75865800  0.76642400  1
  O  O47  1  0.68829400  0.99688200  0.60593000  1
  O  O48  1  0.83273700  0.99833300  0.39140900  1
  O  O49  1  0.31170600  0.00311800  0.39407000  1
  O  O50  1  0.61429300  0.23520400  0.03713900  1
  O  O51  1  0.83273700  0.50166700  0.89140900  1
  O  O52  1  0.81942200  0.22647200  0.88301800  1
  O  O53  1  0.18034500  0.26503000  0.52172900  1
  O  O54  1  0.18057800  0.77352800  0.11698200  1
  O  O55  1  0.68829400  0.50311800  0.10593000  1
  O  O56  1  0.38570700  0.73520400  0.46286100  1
  O  O57  1  0.18034500  0.23497000  0.02172900  1
  O  O58  1  0.31170600  0.49688200  0.89407000  1
  O  O59  1  0.38570700  0.76479600  0.96286100  1
