# generated using pymatgen
data_Na2TiSiO5
_symmetry_space_group_name_H-M   'P 1'
_cell_length_a   4.86754700
_cell_length_b   9.23820000
_cell_length_c   9.96300600
_cell_angle_alpha   90.00000000
_cell_angle_beta   90.00000000
_cell_angle_gamma   90.00000000
_symmetry_Int_Tables_number   1
_chemical_formula_structural   Na2TiSiO5
_chemical_formula_sum   'Na8 Ti4 Si4 O20'
_cell_volume   448.01020397
_cell_formula_units_Z   4
loop_
 _symmetry_equiv_pos_site_id
 _symmetry_equiv_pos_as_xyz
  1  'x, y, z'
loop_
 _atom_site_type_symbol
 _atom_site_label
 _atom_site_symmetry_multiplicity
 _atom_site_fract_x
 _atom_site_fract_y
 _atom_site_fract_z
 _atom_site_occupancy
  Na  Na0  1  0.00516000  0.25134700  0.49616300  1
  Na  Na1  1  0.00652900  0.50000000  0.24655800  1
  Na  Na2  1  0.99347100  0.50000000  0.74655800  1
  Na  Na3  1  0.40589300  0.00000000  0.99459700  1
  Na  Na4  1  0.99484000  0.25134700  0.99616300  1
  Na  Na5  1  0.99484000  0.74865300  0.99616300  1
  Na  Na6  1  0.59410700  0.00000000  0.49459700  1
  Na  Na7  1  0.00516000  0.74865300  0.49616300  1
  Ti  Ti8  1  0.53285800  0.50000000  0.00109300  1
  Ti  Ti9  1  0.97367800  0.00000000  0.21485600  1
  Ti  Ti10  1  0.02632200  0.00000000  0.71485600  1
  Ti  Ti11  1  0.46714200  0.50000000  0.50109300  1
  Si  Si12  1  0.50441100  0.74996300  0.25063500  1
  Si  Si13  1  0.49558900  0.25003700  0.75063500  1
  Si  Si14  1  0.50441100  0.25003700  0.25063500  1
  Si  Si15  1  0.49558900  0.74996300  0.75063500  1
  O  O16  1  0.63922100  0.64752600  0.86598300  1
  O  O17  1  0.25124200  0.14745300  0.81595200  1
  O  O18  1  0.74052700  0.14918100  0.68532400  1
  O  O19  1  0.82177000  0.50000000  0.50189800  1
  O  O20  1  0.64671100  0.35342500  0.13580100  1
  O  O21  1  0.35328900  0.35342500  0.63580100  1
  O  O22  1  0.63922100  0.35247400  0.86598300  1
  O  O23  1  0.25124200  0.85254700  0.81595200  1
  O  O24  1  0.64671100  0.64657500  0.13580100  1
  O  O25  1  0.35328900  0.64657500  0.63580100  1
  O  O26  1  0.85076900  0.00000000  0.05288200  1
  O  O27  1  0.25947300  0.85081900  0.18532400  1
  O  O28  1  0.36077900  0.64752600  0.36598300  1
  O  O29  1  0.25947300  0.14918100  0.18532400  1
  O  O30  1  0.74875800  0.14745300  0.31595200  1
  O  O31  1  0.74052700  0.85081900  0.68532400  1
  O  O32  1  0.14923100  0.00000000  0.55288200  1
  O  O33  1  0.74875800  0.85254700  0.31595200  1
  O  O34  1  0.17823000  0.50000000  0.00189800  1
  O  O35  1  0.36077900  0.35247400  0.36598300  1
