# generated using pymatgen
data_Sr(AlCl4)2
_symmetry_space_group_name_H-M   'P 1'
_cell_length_a   11.64252600
_cell_length_b   11.64252600
_cell_length_c   20.99812000
_cell_angle_alpha   90.00000000
_cell_angle_beta   90.00000000
_cell_angle_gamma   90.00000000
_symmetry_Int_Tables_number   1
_chemical_formula_structural   Sr(AlCl4)2
_chemical_formula_sum   'Sr8 Al16 Cl64'
_cell_volume   2846.26181386
_cell_formula_units_Z   8
loop_
 _symmetry_equiv_pos_site_id
 _symmetry_equiv_pos_as_xyz
  1  'x, y, z'
loop_
 _atom_site_type_symbol
 _atom_site_label
 _atom_site_symmetry_multiplicity
 _atom_site_fract_x
 _atom_site_fract_y
 _atom_site_fract_z
 _atom_site_occupancy
  Sr  Sr0  1  0.00000000  0.50000000  0.00000000  1
  Sr  Sr1  1  0.00000000  0.00000000  0.25000000  1
  Sr  Sr2  1  0.50000000  0.50000000  0.25000000  1
  Sr  Sr3  1  0.50000000  0.00000000  0.00000000  1
  Sr  Sr4  1  0.50000000  0.00000000  0.50000000  1
  Sr  Sr5  1  0.50000000  0.50000000  0.75000000  1
  Sr  Sr6  1  0.00000000  0.00000000  0.75000000  1
  Sr  Sr7  1  0.00000000  0.50000000  0.50000000  1
  Al  Al8  1  0.96314600  0.75000000  0.37500000  1
  Al  Al9  1  0.53685400  0.25000000  0.37500000  1
  Al  Al10  1  0.25000000  0.53685400  0.12500000  1
  Al  Al11  1  0.03685400  0.25000000  0.37500000  1
  Al  Al12  1  0.75000000  0.46314600  0.12500000  1
  Al  Al13  1  0.75000000  0.96314600  0.12500000  1
  Al  Al14  1  0.25000000  0.03685400  0.12500000  1
  Al  Al15  1  0.46314600  0.75000000  0.37500000  1
  Al  Al16  1  0.46314600  0.25000000  0.87500000  1
  Al  Al17  1  0.03685400  0.75000000  0.87500000  1
  Al  Al18  1  0.75000000  0.03685400  0.62500000  1
  Al  Al19  1  0.53685400  0.75000000  0.87500000  1
  Al  Al20  1  0.25000000  0.96314600  0.62500000  1
  Al  Al21  1  0.25000000  0.46314600  0.62500000  1
  Al  Al22  1  0.75000000  0.53685400  0.62500000  1
  Al  Al23  1  0.96314600  0.25000000  0.87500000  1
  Cl  Cl24  1  0.93344500  0.25039000  0.28980700  1
  Cl  Cl25  1  0.24961000  0.93344500  0.03980700  1
  Cl  Cl26  1  0.74961000  0.06655500  0.21019300  1
  Cl  Cl27  1  0.24961000  0.43344500  0.21019300  1
  Cl  Cl28  1  0.13851500  0.40413300  0.38675500  1
  Cl  Cl29  1  0.93344500  0.24961000  0.46019300  1
  Cl  Cl30  1  0.36148500  0.59586700  0.36324500  1
  Cl  Cl31  1  0.63851500  0.40413300  0.36324500  1
  Cl  Cl32  1  0.09586700  0.13851500  0.13675500  1
  Cl  Cl33  1  0.59586700  0.86148500  0.11324500  1
  Cl  Cl34  1  0.75039000  0.06655500  0.03980700  1
  Cl  Cl35  1  0.90413300  0.86148500  0.13675500  1
  Cl  Cl36  1  0.36148500  0.90413300  0.38675500  1
  Cl  Cl37  1  0.56655500  0.75039000  0.28980700  1
  Cl  Cl38  1  0.25039000  0.43344500  0.03980700  1
  Cl  Cl39  1  0.75039000  0.56655500  0.21019300  1
  Cl  Cl40  1  0.13851500  0.09586700  0.36324500  1
  Cl  Cl41  1  0.63851500  0.09586700  0.38675500  1
  Cl  Cl42  1  0.90413300  0.36148500  0.11324500  1
  Cl  Cl43  1  0.06655500  0.75039000  0.46019300  1
  Cl  Cl44  1  0.43344500  0.25039000  0.46019300  1
  Cl  Cl45  1  0.40413300  0.13851500  0.11324500  1
  Cl  Cl46  1  0.74961000  0.56655500  0.03980700  1
  Cl  Cl47  1  0.09586700  0.63851500  0.11324500  1
  Cl  Cl48  1  0.59586700  0.36148500  0.13675500  1
  Cl  Cl49  1  0.06655500  0.74961000  0.28980700  1
  Cl  Cl50  1  0.43344500  0.24961000  0.28980700  1
  Cl  Cl51  1  0.86148500  0.90413300  0.36324500  1
  Cl  Cl52  1  0.25039000  0.93344500  0.21019300  1
  Cl  Cl53  1  0.40413300  0.63851500  0.13675500  1
  Cl  Cl54  1  0.56655500  0.74961000  0.46019300  1
  Cl  Cl55  1  0.86148500  0.59586700  0.38675500  1
  Cl  Cl56  1  0.43344500  0.75039000  0.78980700  1
  Cl  Cl57  1  0.74961000  0.43344500  0.53980700  1
  Cl  Cl58  1  0.24961000  0.56655500  0.71019300  1
  Cl  Cl59  1  0.74961000  0.93344500  0.71019300  1
  Cl  Cl60  1  0.63851500  0.90413300  0.88675500  1
  Cl  Cl61  1  0.43344500  0.74961000  0.96019300  1
  Cl  Cl62  1  0.86148500  0.09586700  0.86324500  1
  Cl  Cl63  1  0.13851500  0.90413300  0.86324500  1
  Cl  Cl64  1  0.59586700  0.63851500  0.63675500  1
  Cl  Cl65  1  0.09586700  0.36148500  0.61324500  1
  Cl  Cl66  1  0.25039000  0.56655500  0.53980700  1
  Cl  Cl67  1  0.40413300  0.36148500  0.63675500  1
  Cl  Cl68  1  0.86148500  0.40413300  0.88675500  1
  Cl  Cl69  1  0.06655500  0.25039000  0.78980700  1
  Cl  Cl70  1  0.75039000  0.93344500  0.53980700  1
  Cl  Cl71  1  0.25039000  0.06655500  0.71019300  1
  Cl  Cl72  1  0.63851500  0.59586700  0.86324500  1
  Cl  Cl73  1  0.13851500  0.59586700  0.88675500  1
  Cl  Cl74  1  0.40413300  0.86148500  0.61324500  1
  Cl  Cl75  1  0.56655500  0.25039000  0.96019300  1
  Cl  Cl76  1  0.93344500  0.75039000  0.96019300  1
  Cl  Cl77  1  0.90413300  0.63851500  0.61324500  1
  Cl  Cl78  1  0.24961000  0.06655500  0.53980700  1
  Cl  Cl79  1  0.59586700  0.13851500  0.61324500  1
  Cl  Cl80  1  0.09586700  0.86148500  0.63675500  1
  Cl  Cl81  1  0.56655500  0.24961000  0.78980700  1
  Cl  Cl82  1  0.93344500  0.74961000  0.78980700  1
  Cl  Cl83  1  0.36148500  0.40413300  0.86324500  1
  Cl  Cl84  1  0.75039000  0.43344500  0.71019300  1
  Cl  Cl85  1  0.90413300  0.13851500  0.63675500  1
  Cl  Cl86  1  0.06655500  0.24961000  0.96019300  1
  Cl  Cl87  1  0.36148500  0.09586700  0.88675500  1
