# generated using pymatgen
data_Rb2Zr(IO3)6
_symmetry_space_group_name_H-M   'P 1'
_cell_length_a   11.87255337
_cell_length_b   11.87255337
_cell_length_c   11.82560151
_cell_angle_alpha   90.00000000
_cell_angle_beta   90.00000000
_cell_angle_gamma   120.00000000
_symmetry_Int_Tables_number   1
_chemical_formula_structural   Rb2Zr(IO3)6
_chemical_formula_sum   'Rb6 Zr3 I18 O54'
_cell_volume   1443.58424327
_cell_formula_units_Z   3
loop_
 _symmetry_equiv_pos_site_id
 _symmetry_equiv_pos_as_xyz
  1  'x, y, z'
loop_
 _atom_site_type_symbol
 _atom_site_label
 _atom_site_symmetry_multiplicity
 _atom_site_fract_x
 _atom_site_fract_y
 _atom_site_fract_z
 _atom_site_occupancy
  Rb  Rb0  1  0.00000000  0.00000000  0.83202200  1
  Rb  Rb1  1  0.00000000  0.00000000  0.16797800  1
  Rb  Rb2  1  0.66666667  0.33333333  0.16535533  1
  Rb  Rb3  1  0.66666667  0.33333333  0.50131133  1
  Rb  Rb4  1  0.33333333  0.66666667  0.49868867  1
  Rb  Rb5  1  0.33333333  0.66666667  0.83464467  1
  Zr  Zr6  1  0.00000000  0.00000000  0.50000000  1
  Zr  Zr7  1  0.66666667  0.33333333  0.83333333  1
  Zr  Zr8  1  0.33333333  0.66666667  0.16666667  1
  I  I9  1  0.26727867  0.31858433  0.61412033  1
  I  I10  1  0.94869433  0.26727867  0.38587967  1
  I  I11  1  0.05130567  0.73272133  0.61412033  1
  I  I12  1  0.68141567  0.94869433  0.61412033  1
  I  I13  1  0.73272133  0.68141567  0.38587967  1
  I  I14  1  0.31858433  0.05130567  0.38587967  1
  I  I15  1  0.93394533  0.65191767  0.94745367  1
  I  I16  1  0.61536100  0.60061200  0.71921300  1
  I  I17  1  0.71797233  0.06605467  0.94745367  1
  I  I18  1  0.34808233  0.28202767  0.94745367  1
  I  I19  1  0.39938800  0.01474900  0.71921300  1
  I  I20  1  0.98525100  0.38463900  0.71921300  1
  I  I21  1  0.60061200  0.98525100  0.28078700  1
  I  I22  1  0.28202767  0.93394533  0.05254633  1
  I  I23  1  0.38463900  0.39938800  0.28078700  1
  I  I24  1  0.01474900  0.61536100  0.28078700  1
  I  I25  1  0.06605467  0.34808233  0.05254633  1
  I  I26  1  0.65191767  0.71797233  0.05254633  1
  O  O27  1  0.86960800  0.24464600  0.52323100  1
  O  O28  1  0.37503800  0.13039200  0.52323100  1
  O  O29  1  0.24464600  0.37503800  0.47676900  1
  O  O30  1  0.39883933  0.19032767  0.29113967  1
  O  O31  1  0.95520667  0.11196733  0.39016933  1
  O  O32  1  0.79148833  0.60116067  0.29113967  1
  O  O33  1  0.75535400  0.62496200  0.52323100  1
  O  O34  1  0.20851167  0.39883933  0.70886033  1
  O  O35  1  0.04479333  0.88803267  0.60983067  1
  O  O36  1  0.15676067  0.04479333  0.39016933  1
  O  O37  1  0.13039200  0.75535400  0.47676900  1
  O  O38  1  0.84323933  0.95520667  0.60983067  1
  O  O39  1  0.62496200  0.86960800  0.47676900  1
  O  O40  1  0.80967233  0.20851167  0.29113967  1
  O  O41  1  0.19032767  0.79148833  0.70886033  1
  O  O42  1  0.88803267  0.84323933  0.39016933  1
  O  O43  1  0.60116067  0.80967233  0.70886033  1
  O  O44  1  0.11196733  0.15676067  0.60983067  1
  O  O45  1  0.53627467  0.57797933  0.85656433  1
  O  O46  1  0.04170467  0.46372533  0.85656433  1
  O  O47  1  0.91131267  0.70837133  0.81010233  1
  O  O48  1  0.06550600  0.52366100  0.62447300  1
  O  O49  1  0.62187333  0.44530067  0.72350267  1
  O  O50  1  0.45815500  0.93449400  0.62447300  1
  O  O51  1  0.42202067  0.95829533  0.85656433  1
  O  O52  1  0.87517833  0.73217267  0.04219367  1
  O  O53  1  0.71146000  0.22136600  0.94316400  1
  O  O54  1  0.82342733  0.37812667  0.72350267  1
  O  O55  1  0.79705867  0.08868733  0.81010233  1
  O  O56  1  0.50990600  0.28854000  0.94316400  1
  O  O57  1  0.29162867  0.20294133  0.81010233  1
  O  O58  1  0.47633900  0.54184500  0.62447300  1
  O  O59  1  0.85699433  0.12482167  0.04219367  1
  O  O60  1  0.55469933  0.17657267  0.72350267  1
  O  O61  1  0.26782733  0.14300567  0.04219367  1
  O  O62  1  0.77863400  0.49009400  0.94316400  1
  O  O63  1  0.20294133  0.91131267  0.18989767  1
  O  O64  1  0.70837133  0.79705867  0.18989767  1
  O  O65  1  0.57797933  0.04170467  0.14343567  1
  O  O66  1  0.73217267  0.85699433  0.95780633  1
  O  O67  1  0.28854000  0.77863400  0.05683600  1
  O  O68  1  0.12482167  0.26782733  0.95780633  1
  O  O69  1  0.08868733  0.29162867  0.18989767  1
  O  O70  1  0.54184500  0.06550600  0.37552700  1
  O  O71  1  0.37812667  0.55469933  0.27649733  1
  O  O72  1  0.49009400  0.71146000  0.05683600  1
  O  O73  1  0.46372533  0.42202067  0.14343567  1
  O  O74  1  0.17657267  0.62187333  0.27649733  1
  O  O75  1  0.95829533  0.53627467  0.14343567  1
  O  O76  1  0.14300567  0.87517833  0.95780633  1
  O  O77  1  0.52366100  0.45815500  0.37552700  1
  O  O78  1  0.22136600  0.50990600  0.05683600  1
  O  O79  1  0.93449400  0.47633900  0.37552700  1
  O  O80  1  0.44530067  0.82342733  0.27649733  1
