# generated using pymatgen
data_AlPO4
_symmetry_space_group_name_H-M   'P 1'
_cell_length_a   25.51679200
_cell_length_b   10.45984400
_cell_length_c   12.85213988
_cell_angle_alpha   90.00000000
_cell_angle_beta   119.75394922
_cell_angle_gamma   90.00000000
_symmetry_Int_Tables_number   1
_chemical_formula_structural   AlPO4
_chemical_formula_sum   'Al24 P24 O96'
_cell_volume   2978.02817689
_cell_formula_units_Z   24
loop_
 _symmetry_equiv_pos_site_id
 _symmetry_equiv_pos_as_xyz
  1  'x, y, z'
loop_
 _atom_site_type_symbol
 _atom_site_label
 _atom_site_symmetry_multiplicity
 _atom_site_fract_x
 _atom_site_fract_y
 _atom_site_fract_z
 _atom_site_occupancy
  Al  Al0  1  0.06609900  0.50000000  0.68953600  1
  Al  Al1  1  0.38718950  0.27635950  0.51394800  1
  Al  Al2  1  0.20482700  0.00000000  0.33255300  1
  Al  Al3  1  0.15560900  0.50000000  0.21215100  1
  Al  Al4  1  0.11281050  0.77635950  0.48605200  1
  Al  Al5  1  0.00000000  0.28329300  0.00000000  1
  Al  Al6  1  0.11281050  0.22364050  0.48605200  1
  Al  Al7  1  0.29517300  0.50000000  0.66744700  1
  Al  Al8  1  0.38718950  0.72364050  0.51394800  1
  Al  Al9  1  0.34439100  0.00000000  0.78784900  1
  Al  Al10  1  0.43390100  0.00000000  0.31046400  1
  Al  Al11  1  0.00000000  0.71670700  0.00000000  1
  Al  Al12  1  0.56609900  0.00000000  0.68953600  1
  Al  Al13  1  0.88718950  0.77635950  0.51394800  1
  Al  Al14  1  0.70482700  0.50000000  0.33255300  1
  Al  Al15  1  0.65560900  0.00000000  0.21215100  1
  Al  Al16  1  0.61281050  0.27635950  0.48605200  1
  Al  Al17  1  0.50000000  0.78329300  0.00000000  1
  Al  Al18  1  0.61281050  0.72364050  0.48605200  1
  Al  Al19  1  0.79517300  0.00000000  0.66744700  1
  Al  Al20  1  0.88718950  0.22364050  0.51394800  1
  Al  Al21  1  0.84439100  0.50000000  0.78784900  1
  Al  Al22  1  0.93390100  0.50000000  0.31046400  1
  Al  Al23  1  0.50000000  0.21670700  0.00000000  1
  P  P24  1  0.33971500  0.00000000  0.39573800  1
  P  P25  1  0.10942400  0.22228800  0.23974300  1
  P  P26  1  0.29190500  0.50000000  0.41477500  1
  P  P27  1  0.06921500  0.50000000  0.94215200  1
  P  P28  1  0.16028500  0.50000000  0.60426200  1
  P  P29  1  0.00000000  0.71960200  0.50000000  1
  P  P30  1  0.43078500  0.00000000  0.05784800  1
  P  P31  1  0.39057600  0.72228800  0.76025700  1
  P  P32  1  0.39057600  0.27771200  0.76025700  1
  P  P33  1  0.20809500  0.00000000  0.58522500  1
  P  P34  1  0.00000000  0.28039800  0.50000000  1
  P  P35  1  0.10942400  0.77771200  0.23974300  1
  P  P36  1  0.83971500  0.50000000  0.39573800  1
  P  P37  1  0.60942400  0.72228800  0.23974300  1
  P  P38  1  0.79190500  0.00000000  0.41477500  1
  P  P39  1  0.56921500  0.00000000  0.94215200  1
  P  P40  1  0.66028500  0.00000000  0.60426200  1
  P  P41  1  0.50000000  0.21960200  0.50000000  1
  P  P42  1  0.93078500  0.50000000  0.05784800  1
  P  P43  1  0.89057600  0.22228800  0.76025700  1
  P  P44  1  0.89057600  0.77771200  0.76025700  1
  P  P45  1  0.70809500  0.50000000  0.58522500  1
  P  P46  1  0.50000000  0.78039800  0.50000000  1
  P  P47  1  0.60942400  0.27771200  0.23974300  1
  O  O48  1  0.32826550  0.37968350  0.42280500  1
  O  O49  1  0.13797500  0.61863800  0.52306600  1
  O  O50  1  0.12629000  0.36437400  0.24526800  1
  O  O51  1  0.03315500  0.37959600  0.93638200  1
  O  O52  1  0.13560700  0.50000000  0.69197500  1
  O  O53  1  0.33630950  0.63858850  0.73754300  1
  O  O54  1  0.47619500  0.86463300  0.38676800  1
  O  O55  1  0.27049800  0.00000000  0.32189000  1
  O  O56  1  0.09142850  0.19533650  0.33564300  1
  O  O57  1  0.17173450  0.87968350  0.57719500  1
  O  O58  1  0.03315500  0.62040400  0.93638200  1
  O  O59  1  0.22950200  0.50000000  0.67811000  1
  O  O60  1  0.16369050  0.13858850  0.26245700  1
  O  O61  1  0.47619500  0.13536700  0.38676800  1
  O  O62  1  0.05559500  0.18972400  0.11544800  1
  O  O63  1  0.36885100  0.00000000  0.94200200  1
  O  O64  1  0.08035000  0.50000000  0.83597300  1
  O  O65  1  0.33630950  0.36141150  0.73754300  1
  O  O66  1  0.22464200  0.00000000  0.48480200  1
  O  O67  1  0.32826550  0.62031650  0.42280500  1
  O  O68  1  0.44440500  0.31027600  0.88455200  1
  O  O69  1  0.12629000  0.63562600  0.24526800  1
  O  O70  1  0.36202500  0.88136200  0.47693400  1
  O  O71  1  0.13114900  0.50000000  0.05799800  1
  O  O72  1  0.40857150  0.30466350  0.66435700  1
  O  O73  1  0.17173450  0.12031650  0.57719500  1
  O  O74  1  0.23409300  0.50000000  0.29257700  1
  O  O75  1  0.13797500  0.38136200  0.52306600  1
  O  O76  1  0.26590700  0.00000000  0.70742300  1
  O  O77  1  0.37371000  0.86437400  0.75473200  1
  O  O78  1  0.02380500  0.63536700  0.61323200  1
  O  O79  1  0.36439300  0.00000000  0.30802500  1
  O  O80  1  0.46684500  0.87959600  0.06361800  1
  O  O81  1  0.09142850  0.80466350  0.33564300  1
  O  O82  1  0.05559500  0.81027600  0.11544800  1
  O  O83  1  0.44909800  0.69520700  0.49251300  1
  O  O84  1  0.44440500  0.68972400  0.88455200  1
  O  O85  1  0.05090200  0.80479300  0.50748700  1
  O  O86  1  0.16369050  0.86141150  0.26245700  1
  O  O87  1  0.36202500  0.11863800  0.47693400  1
  O  O88  1  0.40857150  0.69533650  0.66435700  1
  O  O89  1  0.02380500  0.36463300  0.61323200  1
  O  O90  1  0.37371000  0.13562600  0.75473200  1
  O  O91  1  0.05090200  0.19520700  0.50748700  1
  O  O92  1  0.44909800  0.30479300  0.49251300  1
  O  O93  1  0.27535800  0.50000000  0.51519800  1
  O  O94  1  0.46684500  0.12040400  0.06361800  1
  O  O95  1  0.41965000  0.00000000  0.16402700  1
  O  O96  1  0.82826550  0.87968350  0.42280500  1
  O  O97  1  0.63797500  0.11863800  0.52306600  1
  O  O98  1  0.62629000  0.86437400  0.24526800  1
  O  O99  1  0.53315500  0.87959600  0.93638200  1
  O  O100  1  0.63560700  0.00000000  0.69197500  1
  O  O101  1  0.83630950  0.13858850  0.73754300  1
  O  O102  1  0.97619500  0.36463300  0.38676800  1
  O  O103  1  0.77049800  0.50000000  0.32189000  1
  O  O104  1  0.59142850  0.69533650  0.33564300  1
  O  O105  1  0.67173450  0.37968350  0.57719500  1
  O  O106  1  0.53315500  0.12040400  0.93638200  1
  O  O107  1  0.72950200  0.00000000  0.67811000  1
  O  O108  1  0.66369050  0.63858850  0.26245700  1
  O  O109  1  0.97619500  0.63536700  0.38676800  1
  O  O110  1  0.55559500  0.68972400  0.11544800  1
  O  O111  1  0.86885100  0.50000000  0.94200200  1
  O  O112  1  0.58035000  0.00000000  0.83597300  1
  O  O113  1  0.83630950  0.86141150  0.73754300  1
  O  O114  1  0.72464200  0.50000000  0.48480200  1
  O  O115  1  0.82826550  0.12031650  0.42280500  1
  O  O116  1  0.94440500  0.81027600  0.88455200  1
  O  O117  1  0.62629000  0.13562600  0.24526800  1
  O  O118  1  0.86202500  0.38136200  0.47693400  1
  O  O119  1  0.63114900  0.00000000  0.05799800  1
  O  O120  1  0.90857150  0.80466350  0.66435700  1
  O  O121  1  0.67173450  0.62031650  0.57719500  1
  O  O122  1  0.73409300  0.00000000  0.29257700  1
  O  O123  1  0.63797500  0.88136200  0.52306600  1
  O  O124  1  0.76590700  0.50000000  0.70742300  1
  O  O125  1  0.87371000  0.36437400  0.75473200  1
  O  O126  1  0.52380500  0.13536700  0.61323200  1
  O  O127  1  0.86439300  0.50000000  0.30802500  1
  O  O128  1  0.96684500  0.37959600  0.06361800  1
  O  O129  1  0.59142850  0.30466350  0.33564300  1
  O  O130  1  0.55559500  0.31027600  0.11544800  1
  O  O131  1  0.94909800  0.19520700  0.49251300  1
  O  O132  1  0.94440500  0.18972400  0.88455200  1
  O  O133  1  0.55090200  0.30479300  0.50748700  1
  O  O134  1  0.66369050  0.36141150  0.26245700  1
  O  O135  1  0.86202500  0.61863800  0.47693400  1
  O  O136  1  0.90857150  0.19533650  0.66435700  1
  O  O137  1  0.52380500  0.86463300  0.61323200  1
  O  O138  1  0.87371000  0.63562600  0.75473200  1
  O  O139  1  0.55090200  0.69520700  0.50748700  1
  O  O140  1  0.94909800  0.80479300  0.49251300  1
  O  O141  1  0.77535800  0.00000000  0.51519800  1
  O  O142  1  0.96684500  0.62040400  0.06361800  1
  O  O143  1  0.91965000  0.50000000  0.16402700  1
