# generated using pymatgen
data_KPSe3
_symmetry_space_group_name_H-M   'P 1'
_cell_length_a   7.44771801
_cell_length_b   7.44771801
_cell_length_c   19.28676900
_cell_angle_alpha   90.00000000
_cell_angle_beta   90.00000000
_cell_angle_gamma   120.00000000
_symmetry_Int_Tables_number   1
_chemical_formula_structural   KPSe3
_chemical_formula_sum   'K6 P6 Se18'
_cell_volume   926.48109130
_cell_formula_units_Z   6
loop_
 _symmetry_equiv_pos_site_id
 _symmetry_equiv_pos_as_xyz
  1  'x, y, z'
loop_
 _atom_site_type_symbol
 _atom_site_label
 _atom_site_symmetry_multiplicity
 _atom_site_fract_x
 _atom_site_fract_y
 _atom_site_fract_z
 _atom_site_occupancy
  K  K0  1  0.28546000  0.73392700  0.41257700  1
  K  K1  1  0.73392700  0.28546000  0.58742300  1
  K  K2  1  0.71454000  0.44846700  0.92075633  1
  K  K3  1  0.44846700  0.71454000  0.07924367  1
  K  K4  1  0.26607300  0.55153300  0.74591033  1
  K  K5  1  0.55153300  0.26607300  0.25408967  1
  P  P6  1  0.93763000  0.07087400  0.38729000  1
  P  P7  1  0.07087400  0.93763000  0.61271000  1
  P  P8  1  0.86675600  0.92912600  0.27937667  1
  P  P9  1  0.92912600  0.86675600  0.72062333  1
  P  P10  1  0.13324400  0.06237000  0.05395667  1
  P  P11  1  0.06237000  0.13324400  0.94604333  1
  Se  Se12  1  0.00083200  0.72990300  0.05899400  1
  Se  Se13  1  0.92448200  0.17725200  0.11059600  1
  Se  Se14  1  0.82274800  0.74723000  0.44392933  1
  Se  Se15  1  0.25277000  0.07551800  0.77726267  1
  Se  Se16  1  0.99916800  0.72907100  0.27433933  1
  Se  Se17  1  0.54305000  0.79752300  0.25310100  1
  Se  Se18  1  0.17725200  0.92448200  0.88940400  1
  Se  Se19  1  0.27092900  0.27009700  0.60767267  1
  Se  Se20  1  0.74723000  0.82274800  0.55607067  1
  Se  Se21  1  0.27009700  0.27092900  0.39232733  1
  Se  Se22  1  0.45695000  0.25447300  0.08023233  1
  Se  Se23  1  0.25447300  0.45695000  0.91976767  1
  Se  Se24  1  0.20247700  0.74552700  0.58643433  1
  Se  Se25  1  0.79752300  0.54305000  0.74689900  1
  Se  Se26  1  0.72990300  0.00083200  0.94100600  1
  Se  Se27  1  0.07551800  0.25277000  0.22273733  1
  Se  Se28  1  0.74552700  0.20247700  0.41356567  1
  Se  Se29  1  0.72907100  0.99916800  0.72566067  1
