# generated using pymatgen
data_Ta2Hg2F11
_symmetry_space_group_name_H-M   'P 1'
_cell_length_a   23.88398600
_cell_length_b   7.73237400
_cell_length_c   15.03435551
_cell_angle_alpha   90.00000000
_cell_angle_beta   126.78000016
_cell_angle_gamma   90.00000000
_symmetry_Int_Tables_number   1
_chemical_formula_structural   Ta2Hg2F11
_chemical_formula_sum   'Ta16 Hg16 F88'
_cell_volume   2223.84588035
_cell_formula_units_Z   8
loop_
 _symmetry_equiv_pos_site_id
 _symmetry_equiv_pos_as_xyz
  1  'x, y, z'
loop_
 _atom_site_type_symbol
 _atom_site_label
 _atom_site_symmetry_multiplicity
 _atom_site_fract_x
 _atom_site_fract_y
 _atom_site_fract_z
 _atom_site_occupancy
  Ta  Ta0  1  0.85082800  0.77370100  0.48318700  1
  Ta  Ta1  1  0.10583900  0.80736100  0.62868100  1
  Ta  Ta2  1  0.64917200  0.27370100  0.01681300  1
  Ta  Ta3  1  0.39416100  0.30736100  0.87131900  1
  Ta  Ta4  1  0.60583900  0.69263900  0.12868100  1
  Ta  Ta5  1  0.14917200  0.22629900  0.51681300  1
  Ta  Ta6  1  0.35082800  0.72629900  0.98318700  1
  Ta  Ta7  1  0.89416100  0.19263900  0.37131900  1
  Ta  Ta8  1  0.35082800  0.27370100  0.48318700  1
  Ta  Ta9  1  0.60583900  0.30736100  0.62868100  1
  Ta  Ta10  1  0.14917200  0.77370100  0.01681300  1
  Ta  Ta11  1  0.89416100  0.80736100  0.87131900  1
  Ta  Ta12  1  0.10583900  0.19263900  0.12868100  1
  Ta  Ta13  1  0.64917200  0.72629900  0.51681300  1
  Ta  Ta14  1  0.85082800  0.22629900  0.98318700  1
  Ta  Ta15  1  0.39416100  0.69263900  0.37131900  1
  Hg  Hg16  1  0.70558600  0.23724400  0.37390000  1
  Hg  Hg17  1  0.20558600  0.26275600  0.87390000  1
  Hg  Hg18  1  0.93353200  0.73430100  0.21497400  1
  Hg  Hg19  1  0.93353200  0.26569900  0.71497400  1
  Hg  Hg20  1  0.06646800  0.26569900  0.78502600  1
  Hg  Hg21  1  0.29441400  0.76275600  0.62610000  1
  Hg  Hg22  1  0.79441400  0.73724400  0.12610000  1
  Hg  Hg23  1  0.06646800  0.73430100  0.28502600  1
  Hg  Hg24  1  0.20558600  0.73724400  0.37390000  1
  Hg  Hg25  1  0.70558600  0.76275600  0.87390000  1
  Hg  Hg26  1  0.43353200  0.23430100  0.21497400  1
  Hg  Hg27  1  0.43353200  0.76569900  0.71497400  1
  Hg  Hg28  1  0.56646800  0.76569900  0.78502600  1
  Hg  Hg29  1  0.79441400  0.26275600  0.62610000  1
  Hg  Hg30  1  0.29441400  0.23724400  0.12610000  1
  Hg  Hg31  1  0.56646800  0.23430100  0.28502600  1
  F  F32  1  0.83296050  0.28320950  0.40438700  1
  F  F33  1  0.69621450  0.09720550  0.00004000  1
  F  F34  1  0.80378550  0.59720550  0.49996000  1
  F  F35  1  0.93888400  0.66140100  0.57716000  1
  F  F36  1  0.87308150  0.91054050  0.60663000  1
  F  F37  1  0.66703950  0.78320950  0.09561300  1
  F  F38  1  0.83891350  0.68292650  0.35466400  1
  F  F39  1  0.30378550  0.90279450  0.99996000  1
  F  F40  1  0.02843750  0.72712350  0.48698400  1
  F  F41  1  0.06111600  0.66140100  0.92284000  1
  F  F42  1  0.39116700  0.11739200  0.79134800  1
  F  F43  1  0.33891350  0.81707350  0.85466400  1
  F  F44  1  0.95191850  0.94766450  0.85311100  1
  F  F45  1  0.18581200  0.92308800  0.75238700  1
  F  F46  1  0.04808150  0.05233550  0.14688900  1
  F  F47  1  0.12691850  0.08945950  0.39337000  1
  F  F48  1  0.81418800  0.07691200  0.24761300  1
  F  F49  1  0.87308150  0.08945950  0.10663000  1
  F  F50  1  0.12691850  0.91054050  0.89337000  1
  F  F51  1  0.97156250  0.27287650  0.51301600  1
  F  F52  1  0.95191850  0.05233550  0.35311100  1
  F  F53  1  0.04808150  0.94766450  0.64688900  1
  F  F54  1  0.10883300  0.61739200  0.70865200  1
  F  F55  1  0.89920700  0.97694900  0.46196400  1
  F  F56  1  0.16703950  0.71679050  0.59561300  1
  F  F57  1  0.39920700  0.52305100  0.96196400  1
  F  F58  1  0.06111600  0.33859900  0.42284000  1
  F  F59  1  0.60883300  0.88260800  0.20865200  1
  F  F60  1  0.02843750  0.27287650  0.98698400  1
  F  F61  1  0.16108650  0.31707350  0.64533600  1
  F  F62  1  0.97156250  0.72712350  0.01301600  1
  F  F63  1  0.33296050  0.21679050  0.90438700  1
  F  F64  1  0.26762850  0.58935550  0.88959700  1
  F  F65  1  0.89116700  0.38260800  0.29134800  1
  F  F66  1  0.60079300  0.47694900  0.03803600  1
  F  F67  1  0.31418800  0.42308800  0.74761300  1
  F  F68  1  0.76762850  0.91064450  0.38959700  1
  F  F69  1  0.66108650  0.18292650  0.14533600  1
  F  F70  1  0.10079300  0.02305100  0.53803600  1
  F  F71  1  0.68581200  0.57691200  0.25238700  1
  F  F72  1  0.93888400  0.33859900  0.07716000  1
  F  F73  1  0.19621450  0.40279450  0.50004000  1
  F  F74  1  0.23237150  0.08935550  0.61040300  1
  F  F75  1  0.73237150  0.41064450  0.11040300  1
  F  F76  1  0.33296050  0.78320950  0.40438700  1
  F  F77  1  0.19621450  0.59720550  0.00004000  1
  F  F78  1  0.30378550  0.09720550  0.49996000  1
  F  F79  1  0.43888400  0.16140100  0.57716000  1
  F  F80  1  0.37308150  0.41054050  0.60663000  1
  F  F81  1  0.16703950  0.28320950  0.09561300  1
  F  F82  1  0.33891350  0.18292650  0.35466400  1
  F  F83  1  0.80378550  0.40279450  0.99996000  1
  F  F84  1  0.52843750  0.22712350  0.48698400  1
  F  F85  1  0.56111600  0.16140100  0.92284000  1
  F  F86  1  0.89116700  0.61739200  0.79134800  1
  F  F87  1  0.83891350  0.31707350  0.85466400  1
  F  F88  1  0.45191850  0.44766450  0.85311100  1
  F  F89  1  0.68581200  0.42308800  0.75238700  1
  F  F90  1  0.54808150  0.55233550  0.14688900  1
  F  F91  1  0.62691850  0.58945950  0.39337000  1
  F  F92  1  0.31418800  0.57691200  0.24761300  1
  F  F93  1  0.37308150  0.58945950  0.10663000  1
  F  F94  1  0.62691850  0.41054050  0.89337000  1
  F  F95  1  0.47156250  0.77287650  0.51301600  1
  F  F96  1  0.45191850  0.55233550  0.35311100  1
  F  F97  1  0.54808150  0.44766450  0.64688900  1
  F  F98  1  0.60883300  0.11739200  0.70865200  1
  F  F99  1  0.39920700  0.47694900  0.46196400  1
  F  F100  1  0.66703950  0.21679050  0.59561300  1
  F  F101  1  0.89920700  0.02305100  0.96196400  1
  F  F102  1  0.56111600  0.83859900  0.42284000  1
  F  F103  1  0.10883300  0.38260800  0.20865200  1
  F  F104  1  0.52843750  0.77287650  0.98698400  1
  F  F105  1  0.66108650  0.81707350  0.64533600  1
  F  F106  1  0.47156250  0.22712350  0.01301600  1
  F  F107  1  0.83296050  0.71679050  0.90438700  1
  F  F108  1  0.76762850  0.08935550  0.88959700  1
  F  F109  1  0.39116700  0.88260800  0.29134800  1
  F  F110  1  0.10079300  0.97694900  0.03803600  1
  F  F111  1  0.81418800  0.92308800  0.74761300  1
  F  F112  1  0.26762850  0.41064450  0.38959700  1
  F  F113  1  0.16108650  0.68292650  0.14533600  1
  F  F114  1  0.60079300  0.52305100  0.53803600  1
  F  F115  1  0.18581200  0.07691200  0.25238700  1
  F  F116  1  0.43888400  0.83859900  0.07716000  1
  F  F117  1  0.69621450  0.90279450  0.50004000  1
  F  F118  1  0.73237150  0.58935550  0.61040300  1
  F  F119  1  0.23237150  0.91064450  0.11040300  1
