# generated using pymatgen
data_Mg(B6C)2
_symmetry_space_group_name_H-M   'P 1'
_cell_length_a   5.61538800
_cell_length_b   7.93651600
_cell_length_c   9.82217600
_cell_angle_alpha   90.00000000
_cell_angle_beta   90.00000000
_cell_angle_gamma   90.00000000
_symmetry_Int_Tables_number   1
_chemical_formula_structural   Mg(B6C)2
_chemical_formula_sum   'Mg4 B48 C8'
_cell_volume   437.74115303
_cell_formula_units_Z   4
loop_
 _symmetry_equiv_pos_site_id
 _symmetry_equiv_pos_as_xyz
  1  'x, y, z'
loop_
 _atom_site_type_symbol
 _atom_site_label
 _atom_site_symmetry_multiplicity
 _atom_site_fract_x
 _atom_site_fract_y
 _atom_site_fract_z
 _atom_site_occupancy
  Mg  Mg0  1  0.00000000  0.36119500  0.25000000  1
  Mg  Mg1  1  0.00000000  0.63880500  0.75000000  1
  Mg  Mg2  1  0.50000000  0.86119500  0.75000000  1
  Mg  Mg3  1  0.50000000  0.13880500  0.25000000  1
  B  B4  1  0.23926350  0.44793550  0.91494350  1
  B  B5  1  0.50000000  0.68158450  0.09370450  1
  B  B6  1  0.16151700  0.16044800  0.06384200  1
  B  B7  1  0.76073650  0.55206450  0.41494350  1
  B  B8  1  0.23926350  0.55206450  0.08505650  1
  B  B9  1  0.23926350  0.44793550  0.58505650  1
  B  B10  1  0.66151700  0.66044800  0.93615800  1
  B  B11  1  0.50000000  0.31841550  0.90629550  1
  B  B12  1  0.76073650  0.55206450  0.08505650  1
  B  B13  1  0.50000000  0.47933900  0.16684100  1
  B  B14  1  0.33848300  0.33955200  0.06384200  1
  B  B15  1  0.50000000  0.52066100  0.66684100  1
  B  B16  1  0.76073650  0.44793550  0.58505650  1
  B  B17  1  0.00000000  0.81841550  0.09370450  1
  B  B18  1  0.66151700  0.33955200  0.06384200  1
  B  B19  1  0.76073650  0.44793550  0.91494350  1
  B  B20  1  0.33848300  0.66044800  0.93615800  1
  B  B21  1  0.83848300  0.16044800  0.06384200  1
  B  B22  1  0.16151700  0.83955200  0.93615800  1
  B  B23  1  0.00000000  0.18158450  0.90629550  1
  B  B24  1  0.50000000  0.52066100  0.83315900  1
  B  B25  1  0.83848300  0.83955200  0.93615800  1
  B  B26  1  0.50000000  0.47933900  0.33315900  1
  B  B27  1  0.23926350  0.55206450  0.41494350  1
  B  B28  1  0.73926350  0.94793550  0.41494350  1
  B  B29  1  0.00000000  0.18158450  0.59370450  1
  B  B30  1  0.66151700  0.66044800  0.56384200  1
  B  B31  1  0.26073650  0.05206450  0.91494350  1
  B  B32  1  0.73926350  0.05206450  0.58505650  1
  B  B33  1  0.73926350  0.94793550  0.08505650  1
  B  B34  1  0.16151700  0.16044800  0.43615800  1
  B  B35  1  0.00000000  0.81841550  0.40629550  1
  B  B36  1  0.26073650  0.05206450  0.58505650  1
  B  B37  1  0.00000000  0.97933900  0.66684100  1
  B  B38  1  0.83848300  0.83955200  0.56384200  1
  B  B39  1  0.00000000  0.02066100  0.16684100  1
  B  B40  1  0.26073650  0.94793550  0.08505650  1
  B  B41  1  0.50000000  0.31841550  0.59370450  1
  B  B42  1  0.16151700  0.83955200  0.56384200  1
  B  B43  1  0.26073650  0.94793550  0.41494350  1
  B  B44  1  0.83848300  0.16044800  0.43615800  1
  B  B45  1  0.33848300  0.66044800  0.56384200  1
  B  B46  1  0.66151700  0.33955200  0.43615800  1
  B  B47  1  0.50000000  0.68158450  0.40629550  1
  B  B48  1  0.00000000  0.02066100  0.33315900  1
  B  B49  1  0.33848300  0.33955200  0.43615800  1
  B  B50  1  0.00000000  0.97933900  0.83315900  1
  B  B51  1  0.73926350  0.05206450  0.91494350  1
  C  C52  1  0.00000000  0.37086500  0.66241900  1
  C  C53  1  0.00000000  0.62913500  0.16241900  1
  C  C54  1  0.00000000  0.37086500  0.83758100  1
  C  C55  1  0.00000000  0.62913500  0.33758100  1
  C  C56  1  0.50000000  0.87086500  0.16241900  1
  C  C57  1  0.50000000  0.12913500  0.66241900  1
  C  C58  1  0.50000000  0.87086500  0.33758100  1
  C  C59  1  0.50000000  0.12913500  0.83758100  1
