# generated using pymatgen
data_Y2Si2O7
_symmetry_space_group_name_H-M   'P 1'
_cell_length_a   6.93292200
_cell_length_b   9.09112000
_cell_length_c   4.78859844
_cell_angle_alpha   90.00000000
_cell_angle_beta   101.89359220
_cell_angle_gamma   90.00000000
_symmetry_Int_Tables_number   1
_chemical_formula_structural   Y2Si2O7
_chemical_formula_sum   'Y4 Si4 O14'
_cell_volume   295.33653446
_cell_formula_units_Z   2
loop_
 _symmetry_equiv_pos_site_id
 _symmetry_equiv_pos_as_xyz
  1  'x, y, z'
loop_
 _atom_site_type_symbol
 _atom_site_label
 _atom_site_symmetry_multiplicity
 _atom_site_fract_x
 _atom_site_fract_y
 _atom_site_fract_z
 _atom_site_occupancy
  Y  Y0  1  0.50000000  0.19256500  0.00000000  1
  Y  Y1  1  0.50000000  0.80743500  0.00000000  1
  Y  Y2  1  0.00000000  0.69256500  0.00000000  1
  Y  Y3  1  0.00000000  0.30743500  0.00000000  1
  Si  Si4  1  0.21733900  0.00000000  0.41132300  1
  Si  Si5  1  0.78266100  0.00000000  0.58867700  1
  Si  Si6  1  0.71733900  0.50000000  0.41132300  1
  Si  Si7  1  0.28266100  0.50000000  0.58867700  1
  O  O8  1  0.76543100  0.85119800  0.77897900  1
  O  O9  1  0.23456900  0.85119800  0.22102100  1
  O  O10  1  0.23456900  0.14880200  0.22102100  1
  O  O11  1  0.76543100  0.14880200  0.77897900  1
  O  O12  1  0.00000000  0.00000000  0.50000000  1
  O  O13  1  0.61988400  0.00000000  0.28716700  1
  O  O14  1  0.38011600  0.00000000  0.71283300  1
  O  O15  1  0.26543100  0.35119800  0.77897900  1
  O  O16  1  0.73456900  0.35119800  0.22102100  1
  O  O17  1  0.73456900  0.64880200  0.22102100  1
  O  O18  1  0.26543100  0.64880200  0.77897900  1
  O  O19  1  0.50000000  0.50000000  0.50000000  1
  O  O20  1  0.11988400  0.50000000  0.28716700  1
  O  O21  1  0.88011600  0.50000000  0.71283300  1
