# generated using pymatgen
data_Pr6Ti2S7O6
_symmetry_space_group_name_H-M   'P 1'
_cell_length_a   12.14015200
_cell_length_b   3.93272500
_cell_length_c   16.68130846
_cell_angle_alpha   90.00000000
_cell_angle_beta   97.72665116
_cell_angle_gamma   90.00000000
_symmetry_Int_Tables_number   1
_chemical_formula_structural   Pr6Ti2S7O6
_chemical_formula_sum   'Pr12 Ti4 S14 O12'
_cell_volume   789.19940154
_cell_formula_units_Z   2
loop_
 _symmetry_equiv_pos_site_id
 _symmetry_equiv_pos_as_xyz
  1  'x, y, z'
loop_
 _atom_site_type_symbol
 _atom_site_label
 _atom_site_symmetry_multiplicity
 _atom_site_fract_x
 _atom_site_fract_y
 _atom_site_fract_z
 _atom_site_occupancy
  Pr  Pr0  1  0.40634700  0.75000000  0.88079400  1
  Pr  Pr1  1  0.93582300  0.25000000  0.10843000  1
  Pr  Pr2  1  0.59365300  0.25000000  0.11920600  1
  Pr  Pr3  1  0.28114600  0.25000000  0.12347600  1
  Pr  Pr4  1  0.02399500  0.75000000  0.62415000  1
  Pr  Pr5  1  0.52594500  0.25000000  0.70907900  1
  Pr  Pr6  1  0.32206800  0.25000000  0.47280500  1
  Pr  Pr7  1  0.71885400  0.75000000  0.87652400  1
  Pr  Pr8  1  0.67793200  0.75000000  0.52719500  1
  Pr  Pr9  1  0.06417700  0.75000000  0.89157000  1
  Pr  Pr10  1  0.47405500  0.75000000  0.29092100  1
  Pr  Pr11  1  0.97600500  0.25000000  0.37585000  1
  Ti  Ti12  1  0.22186500  0.25000000  0.76446200  1
  Ti  Ti13  1  0.20333200  0.75000000  0.31271700  1
  Ti  Ti14  1  0.79666800  0.25000000  0.68728300  1
  Ti  Ti15  1  0.77813500  0.75000000  0.23553800  1
  S  S16  1  0.20273600  0.25000000  0.62572700  1
  S  S17  1  0.44751400  0.75000000  0.57993200  1
  S  S18  1  0.11584200  0.75000000  0.46291500  1
  S  S19  1  0.00311500  0.25000000  0.75519000  1
  S  S20  1  0.55248600  0.25000000  0.42006800  1
  S  S21  1  0.09887000  0.75000000  0.06753300  1
  S  S22  1  0.57870600  0.25000000  0.94126300  1
  S  S23  1  0.90113000  0.25000000  0.93246700  1
  S  S24  1  0.76637100  0.75000000  0.07098000  1
  S  S25  1  0.79726400  0.75000000  0.37427300  1
  S  S26  1  0.99688500  0.75000000  0.24481000  1
  S  S27  1  0.88415800  0.25000000  0.53708500  1
  S  S28  1  0.42129400  0.75000000  0.05873700  1
  S  S29  1  0.23362900  0.25000000  0.92902000  1
  O  O30  1  0.18059000  0.25000000  0.32874600  1
  O  O31  1  0.62813500  0.75000000  0.21082800  1
  O  O32  1  0.79427800  0.25000000  0.21713200  1
  O  O33  1  0.45172000  0.25000000  0.21386900  1
  O  O34  1  0.33288100  0.75000000  0.38570900  1
  O  O35  1  0.54828000  0.75000000  0.78613100  1
  O  O36  1  0.66711900  0.25000000  0.61429100  1
  O  O37  1  0.27293200  0.75000000  0.22295300  1
  O  O38  1  0.72706800  0.25000000  0.77704700  1
  O  O39  1  0.37186500  0.25000000  0.78917200  1
  O  O40  1  0.81941000  0.75000000  0.67125400  1
  O  O41  1  0.20572200  0.75000000  0.78286800  1
