# generated using pymatgen
data_K2Zn(GeO3)2
_symmetry_space_group_name_H-M   'P 1'
_cell_length_a   6.51074800
_cell_length_b   9.90599200
_cell_length_c   11.06502900
_cell_angle_alpha   90.00000000
_cell_angle_beta   90.00000000
_cell_angle_gamma   90.00000000
_symmetry_Int_Tables_number   1
_chemical_formula_structural   K2Zn(GeO3)2
_chemical_formula_sum   'K8 Zn4 Ge8 O24'
_cell_volume   713.64366613
_cell_formula_units_Z   4
loop_
 _symmetry_equiv_pos_site_id
 _symmetry_equiv_pos_as_xyz
  1  'x, y, z'
loop_
 _atom_site_type_symbol
 _atom_site_label
 _atom_site_symmetry_multiplicity
 _atom_site_fract_x
 _atom_site_fract_y
 _atom_site_fract_z
 _atom_site_occupancy
  K  K0  1  0.60702450  0.82331350  0.92699200  1
  K  K1  1  0.39297550  0.82331350  0.57300800  1
  K  K2  1  0.39297550  0.17668650  0.42699200  1
  K  K3  1  0.60702450  0.17668650  0.07300800  1
  K  K4  1  0.10702450  0.32331350  0.92699200  1
  K  K5  1  0.89297550  0.32331350  0.57300800  1
  K  K6  1  0.89297550  0.67668650  0.42699200  1
  K  K7  1  0.10702450  0.67668650  0.07300800  1
  Zn  Zn8  1  0.50000000  0.80880600  0.25000000  1
  Zn  Zn9  1  0.50000000  0.19119400  0.75000000  1
  Zn  Zn10  1  0.00000000  0.30880600  0.25000000  1
  Zn  Zn11  1  0.00000000  0.69119400  0.75000000  1
  Ge  Ge12  1  0.84393750  0.01809050  0.36225100  1
  Ge  Ge13  1  0.15606250  0.01809050  0.13774900  1
  Ge  Ge14  1  0.15606250  0.98190950  0.86225100  1
  Ge  Ge15  1  0.84393750  0.98190950  0.63774900  1
  Ge  Ge16  1  0.34393750  0.51809050  0.36225100  1
  Ge  Ge17  1  0.65606250  0.51809050  0.13774900  1
  Ge  Ge18  1  0.65606250  0.48190950  0.86225100  1
  Ge  Ge19  1  0.34393750  0.48190950  0.63774900  1
  O  O20  1  0.79585500  0.18848500  0.33233800  1
  O  O21  1  0.62304800  0.08169800  0.61981400  1
  O  O22  1  0.62304800  0.91830200  0.38018600  1
  O  O23  1  0.20414500  0.81151500  0.83233800  1
  O  O24  1  0.99700400  0.00000000  0.50000000  1
  O  O25  1  0.37695200  0.91830200  0.11981400  1
  O  O26  1  0.50000000  0.43786500  0.25000000  1
  O  O27  1  0.37695200  0.08169800  0.88018600  1
  O  O28  1  0.00299600  0.00000000  0.00000000  1
  O  O29  1  0.50000000  0.56213500  0.75000000  1
  O  O30  1  0.20414500  0.18848500  0.16766200  1
  O  O31  1  0.79585500  0.81151500  0.66766200  1
  O  O32  1  0.29585500  0.68848500  0.33233800  1
  O  O33  1  0.12304800  0.58169800  0.61981400  1
  O  O34  1  0.12304800  0.41830200  0.38018600  1
  O  O35  1  0.70414500  0.31151500  0.83233800  1
  O  O36  1  0.49700400  0.50000000  0.50000000  1
  O  O37  1  0.87695200  0.41830200  0.11981400  1
  O  O38  1  0.00000000  0.93786500  0.25000000  1
  O  O39  1  0.87695200  0.58169800  0.88018600  1
  O  O40  1  0.50299600  0.50000000  0.00000000  1
  O  O41  1  0.00000000  0.06213500  0.75000000  1
  O  O42  1  0.70414500  0.68848500  0.16766200  1
  O  O43  1  0.29585500  0.31151500  0.66766200  1
