# generated using pymatgen
data_S4IN3Cl2
_symmetry_space_group_name_H-M   'P 1'
_cell_length_a   6.46279800
_cell_length_b   9.25542600
_cell_length_c   18.21867388
_cell_angle_alpha   90.00000000
_cell_angle_beta   92.95896746
_cell_angle_gamma   90.00000000
_symmetry_Int_Tables_number   1
_chemical_formula_structural   S4IN3Cl2
_chemical_formula_sum   'S16 I4 N12 Cl8'
_cell_volume   1088.31433892
_cell_formula_units_Z   4
loop_
 _symmetry_equiv_pos_site_id
 _symmetry_equiv_pos_as_xyz
  1  'x, y, z'
loop_
 _atom_site_type_symbol
 _atom_site_label
 _atom_site_symmetry_multiplicity
 _atom_site_fract_x
 _atom_site_fract_y
 _atom_site_fract_z
 _atom_site_occupancy
  S  S0  1  0.78287400  0.74352800  0.76021600  1
  S  S1  1  0.99156800  0.60311600  0.89443000  1
  S  S2  1  0.53462300  0.84302500  0.81378500  1
  S  S3  1  0.21712600  0.25647200  0.23978400  1
  S  S4  1  0.00843200  0.39688400  0.10557000  1
  S  S5  1  0.21712600  0.24352800  0.73978400  1
  S  S6  1  0.34992900  0.24300300  0.53130100  1
  S  S7  1  0.00843200  0.10311600  0.60557000  1
  S  S8  1  0.65007100  0.75699700  0.46869900  1
  S  S9  1  0.46537700  0.34302500  0.68621500  1
  S  S10  1  0.99156800  0.89688400  0.39443000  1
  S  S11  1  0.53462300  0.65697500  0.31378500  1
  S  S12  1  0.34992900  0.25699700  0.03130100  1
  S  S13  1  0.78287400  0.75647200  0.26021600  1
  S  S14  1  0.46537700  0.15697500  0.18621500  1
  S  S15  1  0.65007100  0.74300300  0.96869900  1
  I  I16  1  0.77628600  0.29014700  0.37220500  1
  I  I17  1  0.22371400  0.70985300  0.62779500  1
  I  I18  1  0.22371400  0.79014700  0.12779500  1
  I  I19  1  0.77628600  0.20985300  0.87220500  1
  N  N20  1  0.14774100  0.14932100  0.54053800  1
  N  N21  1  0.54398500  0.68996500  0.39834700  1
  N  N22  1  0.45601500  0.18996500  0.10165300  1
  N  N23  1  0.85225900  0.64932100  0.95946200  1
  N  N24  1  0.92872300  0.65714200  0.81595600  1
  N  N25  1  0.45601500  0.31003500  0.60165300  1
  N  N26  1  0.07127700  0.15714200  0.68404400  1
  N  N27  1  0.85225900  0.85067900  0.45946200  1
  N  N28  1  0.54398500  0.81003500  0.89834700  1
  N  N29  1  0.14774100  0.35067900  0.04053800  1
  N  N30  1  0.07127700  0.34285800  0.18404400  1
  N  N31  1  0.92872300  0.84285800  0.31595600  1
  Cl  Cl32  1  0.51019600  0.91116000  0.65279200  1
  Cl  Cl33  1  0.48980400  0.08884000  0.34720800  1
  Cl  Cl34  1  0.48980400  0.41116000  0.84720800  1
  Cl  Cl35  1  0.51019600  0.58884000  0.15279200  1
  Cl  Cl36  1  0.95300800  0.51821800  0.60767800  1
  Cl  Cl37  1  0.04699200  0.48178200  0.39232200  1
  Cl  Cl38  1  0.95300800  0.98178200  0.10767800  1
  Cl  Cl39  1  0.04699200  0.01821800  0.89232200  1
