# generated using pymatgen
data_K2Ge4O9
_symmetry_space_group_name_H-M   'P 1'
_cell_length_a   12.05450650
_cell_length_b   12.05450650
_cell_length_c   9.95996700
_cell_angle_alpha   90.00000000
_cell_angle_beta   90.00000000
_cell_angle_gamma   120.00000000
_symmetry_Int_Tables_number   1
_chemical_formula_structural   K2Ge4O9
_chemical_formula_sum   'K12 Ge24 O54'
_cell_volume   1253.39339545
_cell_formula_units_Z   6
loop_
 _symmetry_equiv_pos_site_id
 _symmetry_equiv_pos_as_xyz
  1  'x, y, z'
loop_
 _atom_site_type_symbol
 _atom_site_label
 _atom_site_symmetry_multiplicity
 _atom_site_fract_x
 _atom_site_fract_y
 _atom_site_fract_z
 _atom_site_occupancy
  K  K0  1  0.00190600  0.66534200  0.92820200  1
  K  K1  1  0.66343600  0.99809400  0.92820200  1
  K  K2  1  0.33465800  0.33656400  0.92820200  1
  K  K3  1  0.00190600  0.33656400  0.42820200  1
  K  K4  1  0.33465800  0.99809400  0.42820200  1
  K  K5  1  0.66343600  0.66534200  0.42820200  1
  K  K6  1  0.99809400  0.33465800  0.07179800  1
  K  K7  1  0.33656400  0.00190600  0.07179800  1
  K  K8  1  0.66534200  0.66343600  0.07179800  1
  K  K9  1  0.99809400  0.66343600  0.57179800  1
  K  K10  1  0.66534200  0.00190600  0.57179800  1
  K  K11  1  0.33656400  0.33465800  0.57179800  1
  Ge  Ge12  1  0.00000000  0.00000000  0.00000000  1
  Ge  Ge13  1  0.00000000  0.00000000  0.50000000  1
  Ge  Ge14  1  0.00000000  0.82354800  0.25000000  1
  Ge  Ge15  1  0.82354800  0.00000000  0.25000000  1
  Ge  Ge16  1  0.17645200  0.17645200  0.25000000  1
  Ge  Ge17  1  0.00000000  0.17645200  0.75000000  1
  Ge  Ge18  1  0.17645200  0.00000000  0.75000000  1
  Ge  Ge19  1  0.82354800  0.82354800  0.75000000  1
  Ge  Ge20  1  0.15063900  0.66473900  0.21440300  1
  Ge  Ge21  1  0.51410000  0.84936100  0.21440300  1
  Ge  Ge22  1  0.33526100  0.48590000  0.21440300  1
  Ge  Ge23  1  0.15063900  0.48590000  0.71440300  1
  Ge  Ge24  1  0.33526100  0.84936100  0.71440300  1
  Ge  Ge25  1  0.51410000  0.66473900  0.71440300  1
  Ge  Ge26  1  0.84936100  0.33526100  0.78559700  1
  Ge  Ge27  1  0.48590000  0.15063900  0.78559700  1
  Ge  Ge28  1  0.66473900  0.51410000  0.78559700  1
  Ge  Ge29  1  0.84936100  0.51410000  0.28559700  1
  Ge  Ge30  1  0.66473900  0.15063900  0.28559700  1
  Ge  Ge31  1  0.48590000  0.33526100  0.28559700  1
  Ge  Ge32  1  0.33333333  0.66666667  0.46211000  1
  Ge  Ge33  1  0.33333333  0.66666667  0.96211000  1
  Ge  Ge34  1  0.66666667  0.33333333  0.53789000  1
  Ge  Ge35  1  0.66666667  0.33333333  0.03789000  1
  O  O36  1  0.92016600  0.84966300  0.11518500  1
  O  O37  1  0.92949700  0.07983400  0.11518500  1
  O  O38  1  0.15033700  0.07050300  0.11518500  1
  O  O39  1  0.92016600  0.07050300  0.61518500  1
  O  O40  1  0.15033700  0.07983400  0.61518500  1
  O  O41  1  0.92949700  0.84966300  0.61518500  1
  O  O42  1  0.07983400  0.15033700  0.88481500  1
  O  O43  1  0.07050300  0.92016600  0.88481500  1
  O  O44  1  0.84966300  0.92949700  0.88481500  1
  O  O45  1  0.07983400  0.92949700  0.38481500  1
  O  O46  1  0.84966300  0.92016600  0.38481500  1
  O  O47  1  0.07050300  0.15033700  0.38481500  1
  O  O48  1  0.11386300  0.78827000  0.16817700  1
  O  O49  1  0.67440700  0.88613700  0.16817700  1
  O  O50  1  0.21173000  0.32559300  0.16817700  1
  O  O51  1  0.11386300  0.32559300  0.66817700  1
  O  O52  1  0.21173000  0.88613700  0.66817700  1
  O  O53  1  0.67440700  0.78827000  0.66817700  1
  O  O54  1  0.88613700  0.21173000  0.83182300  1
  O  O55  1  0.32559300  0.11386300  0.83182300  1
  O  O56  1  0.78827000  0.67440700  0.83182300  1
  O  O57  1  0.88613700  0.67440700  0.33182300  1
  O  O58  1  0.78827000  0.11386300  0.33182300  1
  O  O59  1  0.32559300  0.21173000  0.33182300  1
  O  O60  1  0.25219300  0.73651300  0.35195600  1
  O  O61  1  0.48432000  0.74780700  0.35195600  1
  O  O62  1  0.26348700  0.51568000  0.35195600  1
  O  O63  1  0.25219300  0.51568000  0.85195600  1
  O  O64  1  0.26348700  0.74780700  0.85195600  1
  O  O65  1  0.48432000  0.73651300  0.85195600  1
  O  O66  1  0.74780700  0.26348700  0.64804400  1
  O  O67  1  0.51568000  0.25219300  0.64804400  1
  O  O68  1  0.73651300  0.48432000  0.64804400  1
  O  O69  1  0.74780700  0.48432000  0.14804400  1
  O  O70  1  0.73651300  0.25219300  0.14804400  1
  O  O71  1  0.51568000  0.26348700  0.14804400  1
  O  O72  1  0.18318200  0.60231600  0.06996600  1
  O  O73  1  0.41913400  0.81681800  0.06996600  1
  O  O74  1  0.39768400  0.58086600  0.06996600  1
  O  O75  1  0.18318200  0.58086600  0.56996600  1
  O  O76  1  0.39768400  0.81681800  0.56996600  1
  O  O77  1  0.41913400  0.60231600  0.56996600  1
  O  O78  1  0.81681800  0.39768400  0.93003400  1
  O  O79  1  0.58086600  0.18318200  0.93003400  1
  O  O80  1  0.60231600  0.41913400  0.93003400  1
  O  O81  1  0.81681800  0.41913400  0.43003400  1
  O  O82  1  0.60231600  0.18318200  0.43003400  1
  O  O83  1  0.58086600  0.39768400  0.43003400  1
  O  O84  1  0.00000000  0.52342000  0.25000000  1
  O  O85  1  0.52342000  0.00000000  0.25000000  1
  O  O86  1  0.47658000  0.47658000  0.25000000  1
  O  O87  1  0.00000000  0.47658000  0.75000000  1
  O  O88  1  0.47658000  0.00000000  0.75000000  1
  O  O89  1  0.52342000  0.52342000  0.75000000  1
