# generated using pymatgen
data_Rb5Nb3OF18
_symmetry_space_group_name_H-M   'P 1'
_cell_length_a   15.82261600
_cell_length_b   15.82261600
_cell_length_c   7.97372200
_cell_angle_alpha   90.00000000
_cell_angle_beta   90.00000000
_cell_angle_gamma   90.00000000
_symmetry_Int_Tables_number   1
_chemical_formula_structural   Rb5Nb3OF18
_chemical_formula_sum   'Rb20 Nb12 O4 F72'
_cell_volume   1996.26258332
_cell_formula_units_Z   4
loop_
 _symmetry_equiv_pos_site_id
 _symmetry_equiv_pos_as_xyz
  1  'x, y, z'
loop_
 _atom_site_type_symbol
 _atom_site_label
 _atom_site_symmetry_multiplicity
 _atom_site_fract_x
 _atom_site_fract_y
 _atom_site_fract_z
 _atom_site_occupancy
  Rb  Rb0  1  0.50000000  0.00000000  0.26282900  1
  Rb  Rb1  1  0.50000000  0.00000000  0.76282900  1
  Rb  Rb2  1  0.77679800  0.91648000  0.03494400  1
  Rb  Rb3  1  0.41648000  0.72320200  0.53494400  1
  Rb  Rb4  1  0.58352000  0.27679800  0.53494400  1
  Rb  Rb5  1  0.22320200  0.08352000  0.03494400  1
  Rb  Rb6  1  0.58352000  0.72320200  0.03494400  1
  Rb  Rb7  1  0.41648000  0.27679800  0.03494400  1
  Rb  Rb8  1  0.77679800  0.08352000  0.53494400  1
  Rb  Rb9  1  0.22320200  0.91648000  0.53494400  1
  Rb  Rb10  1  0.00000000  0.50000000  0.76282900  1
  Rb  Rb11  1  0.00000000  0.50000000  0.26282900  1
  Rb  Rb12  1  0.27679800  0.41648000  0.53494400  1
  Rb  Rb13  1  0.91648000  0.22320200  0.03494400  1
  Rb  Rb14  1  0.08352000  0.77679800  0.03494400  1
  Rb  Rb15  1  0.72320200  0.58352000  0.53494400  1
  Rb  Rb16  1  0.08352000  0.22320200  0.53494400  1
  Rb  Rb17  1  0.91648000  0.77679800  0.53494400  1
  Rb  Rb18  1  0.27679800  0.58352000  0.03494400  1
  Rb  Rb19  1  0.72320200  0.41648000  0.03494400  1
  Nb  Nb20  1  0.65616950  0.15616950  0.99980750  1
  Nb  Nb21  1  0.65616950  0.84383050  0.49980750  1
  Nb  Nb22  1  0.34383050  0.15616950  0.49980750  1
  Nb  Nb23  1  0.34383050  0.84383050  0.99980750  1
  Nb  Nb24  1  0.00000000  0.00000000  0.26637500  1
  Nb  Nb25  1  0.00000000  0.00000000  0.76637500  1
  Nb  Nb26  1  0.15616950  0.65616950  0.49980750  1
  Nb  Nb27  1  0.15616950  0.34383050  0.99980750  1
  Nb  Nb28  1  0.84383050  0.65616950  0.99980750  1
  Nb  Nb29  1  0.84383050  0.34383050  0.49980750  1
  Nb  Nb30  1  0.50000000  0.50000000  0.76637500  1
  Nb  Nb31  1  0.50000000  0.50000000  0.26637500  1
  O  O32  1  0.00000000  0.00000000  0.99291500  1
  O  O33  1  0.00000000  0.00000000  0.49291500  1
  O  O34  1  0.50000000  0.50000000  0.49291500  1
  O  O35  1  0.50000000  0.50000000  0.99291500  1
  F  F36  1  0.63564750  0.13564750  0.75657650  1
  F  F37  1  0.63564750  0.86435250  0.25657650  1
  F  F38  1  0.36435250  0.13564750  0.25657650  1
  F  F39  1  0.36435250  0.86435250  0.75657650  1
  F  F40  1  0.47020950  0.14013450  0.51836350  1
  F  F41  1  0.64013450  0.02979050  0.01836350  1
  F  F42  1  0.35986550  0.97020950  0.01836350  1
  F  F43  1  0.52979050  0.85986550  0.51836350  1
  F  F44  1  0.35986550  0.02979050  0.51836350  1
  F  F45  1  0.64013450  0.97020950  0.51836350  1
  F  F46  1  0.47020950  0.85986550  0.01836350  1
  F  F47  1  0.52979050  0.14013450  0.01836350  1
  F  F48  1  0.35433350  0.85433350  0.24611050  1
  F  F49  1  0.35433350  0.14566650  0.74611050  1
  F  F50  1  0.64566650  0.85433350  0.74611050  1
  F  F51  1  0.64566650  0.14566650  0.24611050  1
  F  F52  1  0.11506950  0.95521550  0.23583950  1
  F  F53  1  0.45521550  0.38493050  0.73583950  1
  F  F54  1  0.54478450  0.61506950  0.73583950  1
  F  F55  1  0.88493050  0.04478450  0.23583950  1
  F  F56  1  0.54478450  0.38493050  0.23583950  1
  F  F57  1  0.45521550  0.61506950  0.23583950  1
  F  F58  1  0.11506950  0.04478450  0.73583950  1
  F  F59  1  0.88493050  0.95521550  0.73583950  1
  F  F60  1  0.76779900  0.89100000  0.43119700  1
  F  F61  1  0.39100000  0.73220100  0.93119700  1
  F  F62  1  0.60900000  0.26779900  0.93119700  1
  F  F63  1  0.23220100  0.10900000  0.43119700  1
  F  F64  1  0.60900000  0.73220100  0.43119700  1
  F  F65  1  0.39100000  0.26779900  0.43119700  1
  F  F66  1  0.76779900  0.10900000  0.93119700  1
  F  F67  1  0.23220100  0.89100000  0.93119700  1
  F  F68  1  0.25957550  0.75957550  0.08072650  1
  F  F69  1  0.25957550  0.24042450  0.58072650  1
  F  F70  1  0.74042450  0.75957550  0.58072650  1
  F  F71  1  0.74042450  0.24042450  0.08072650  1
  F  F72  1  0.13564750  0.63564750  0.25657650  1
  F  F73  1  0.13564750  0.36435250  0.75657650  1
  F  F74  1  0.86435250  0.63564750  0.75657650  1
  F  F75  1  0.86435250  0.36435250  0.25657650  1
  F  F76  1  0.97020950  0.64013450  0.01836350  1
  F  F77  1  0.14013450  0.52979050  0.51836350  1
  F  F78  1  0.85986550  0.47020950  0.51836350  1
  F  F79  1  0.02979050  0.35986550  0.01836350  1
  F  F80  1  0.85986550  0.52979050  0.01836350  1
  F  F81  1  0.14013450  0.47020950  0.01836350  1
  F  F82  1  0.97020950  0.35986550  0.51836350  1
  F  F83  1  0.02979050  0.64013450  0.51836350  1
  F  F84  1  0.85433350  0.35433350  0.74611050  1
  F  F85  1  0.85433350  0.64566650  0.24611050  1
  F  F86  1  0.14566650  0.35433350  0.24611050  1
  F  F87  1  0.14566650  0.64566650  0.74611050  1
  F  F88  1  0.61506950  0.45521550  0.73583950  1
  F  F89  1  0.95521550  0.88493050  0.23583950  1
  F  F90  1  0.04478450  0.11506950  0.23583950  1
  F  F91  1  0.38493050  0.54478450  0.73583950  1
  F  F92  1  0.04478450  0.88493050  0.73583950  1
  F  F93  1  0.95521550  0.11506950  0.73583950  1
  F  F94  1  0.61506950  0.54478450  0.23583950  1
  F  F95  1  0.38493050  0.45521550  0.23583950  1
  F  F96  1  0.26779900  0.39100000  0.93119700  1
  F  F97  1  0.89100000  0.23220100  0.43119700  1
  F  F98  1  0.10900000  0.76779900  0.43119700  1
  F  F99  1  0.73220100  0.60900000  0.93119700  1
  F  F100  1  0.10900000  0.23220100  0.93119700  1
  F  F101  1  0.89100000  0.76779900  0.93119700  1
  F  F102  1  0.26779900  0.60900000  0.43119700  1
  F  F103  1  0.73220100  0.39100000  0.43119700  1
  F  F104  1  0.75957550  0.25957550  0.58072650  1
  F  F105  1  0.75957550  0.74042450  0.08072650  1
  F  F106  1  0.24042450  0.25957550  0.08072650  1
  F  F107  1  0.24042450  0.74042450  0.58072650  1
