# generated using pymatgen
data_Ga2S5N5Cl7
_symmetry_space_group_name_H-M   'P 1'
_cell_length_a   8.81212600
_cell_length_b   13.69674100
_cell_length_c   18.91516592
_cell_angle_alpha   90.00000000
_cell_angle_beta   113.00551159
_cell_angle_gamma   90.00000000
_symmetry_Int_Tables_number   1
_chemical_formula_structural   Ga2S5N5Cl7
_chemical_formula_sum   'Ga8 S20 N20 Cl28'
_cell_volume   2101.43733590
_cell_formula_units_Z   4
loop_
 _symmetry_equiv_pos_site_id
 _symmetry_equiv_pos_as_xyz
  1  'x, y, z'
loop_
 _atom_site_type_symbol
 _atom_site_label
 _atom_site_symmetry_multiplicity
 _atom_site_fract_x
 _atom_site_fract_y
 _atom_site_fract_z
 _atom_site_occupancy
  Ga  Ga0  1  0.06068100  0.68385100  0.13868700  1
  Ga  Ga1  1  0.77407200  0.25406100  0.01799900  1
  Ga  Ga2  1  0.06068100  0.81614900  0.63868700  1
  Ga  Ga3  1  0.93931900  0.18385100  0.36131300  1
  Ga  Ga4  1  0.22592800  0.74593900  0.98200100  1
  Ga  Ga5  1  0.77407200  0.24593900  0.51799900  1
  Ga  Ga6  1  0.22592800  0.75406100  0.48200100  1
  Ga  Ga7  1  0.93931900  0.31614900  0.86131300  1
  S  S8  1  0.64364300  0.00477100  0.12959500  1
  S  S9  1  0.42620100  0.93797200  0.31720200  1
  S  S10  1  0.30854100  0.38660600  0.23275400  1
  S  S11  1  0.69145900  0.88660600  0.26724600  1
  S  S12  1  0.30854100  0.11339400  0.73275400  1
  S  S13  1  0.77806300  0.91621400  0.80020500  1
  S  S14  1  0.57379900  0.43797200  0.18279800  1
  S  S15  1  0.35154600  0.14416200  0.07698400  1
  S  S16  1  0.22193700  0.08378600  0.19979500  1
  S  S17  1  0.35635700  0.50477100  0.37040500  1
  S  S18  1  0.77806300  0.58378600  0.30020500  1
  S  S19  1  0.22193700  0.41621400  0.69979500  1
  S  S20  1  0.64845400  0.85583800  0.92301600  1
  S  S21  1  0.35635700  0.99522900  0.87040500  1
  S  S22  1  0.64364300  0.49522900  0.62959500  1
  S  S23  1  0.42620100  0.56202800  0.81720200  1
  S  S24  1  0.69145900  0.61339400  0.76724600  1
  S  S25  1  0.64845400  0.64416200  0.42301600  1
  S  S26  1  0.35154600  0.35583800  0.57698400  1
  S  S27  1  0.57379900  0.06202800  0.68279800  1
  N  N28  1  0.41122300  0.38540000  0.18021600  1
  N  N29  1  0.74387900  0.87080700  0.86904400  1
  N  N30  1  0.64615600  0.99221100  0.75302500  1
  N  N31  1  0.58877700  0.88540000  0.31978400  1
  N  N32  1  0.48803500  0.58501500  0.41302300  1
  N  N33  1  0.25612100  0.37080700  0.63095600  1
  N  N34  1  0.48803500  0.91498500  0.91302300  1
  N  N35  1  0.58877700  0.61460000  0.81978400  1
  N  N36  1  0.61208300  0.54072800  0.69853600  1
  N  N37  1  0.38791700  0.04072800  0.80146400  1
  N  N38  1  0.61208300  0.95927200  0.19853600  1
  N  N39  1  0.51196500  0.08501500  0.08697700  1
  N  N40  1  0.74387900  0.62919300  0.36904400  1
  N  N41  1  0.64615600  0.50778900  0.25302500  1
  N  N42  1  0.35384400  0.49221100  0.74697500  1
  N  N43  1  0.41122300  0.11460000  0.68021600  1
  N  N44  1  0.51196500  0.41498500  0.58697700  1
  N  N45  1  0.25612100  0.12919300  0.13095600  1
  N  N46  1  0.38791700  0.45927200  0.30146400  1
  N  N47  1  0.35384400  0.00778900  0.24697500  1
  Cl  Cl48  1  0.46335600  0.82492400  0.53426300  1
  Cl  Cl49  1  0.53664400  0.17507600  0.46573700  1
  Cl  Cl50  1  0.79109700  0.10860900  0.97576000  1
  Cl  Cl51  1  0.67578600  0.30563900  0.79449300  1
  Cl  Cl52  1  0.96669800  0.34748100  0.98763000  1
  Cl  Cl53  1  0.12170800  0.73698900  0.85717800  1
  Cl  Cl54  1  0.53664400  0.32492400  0.96573700  1
  Cl  Cl55  1  0.07254200  0.18214600  0.86293000  1
  Cl  Cl56  1  0.04982900  0.05245800  0.33661500  1
  Cl  Cl57  1  0.20890300  0.60860900  0.52424000  1
  Cl  Cl58  1  0.92745800  0.68214600  0.63707000  1
  Cl  Cl59  1  0.95017100  0.94754200  0.66338500  1
  Cl  Cl60  1  0.12170800  0.76301100  0.35717800  1
  Cl  Cl61  1  0.87829200  0.23698900  0.64282200  1
  Cl  Cl62  1  0.96669800  0.15251900  0.48763000  1
  Cl  Cl63  1  0.03330200  0.65251900  0.01237000  1
  Cl  Cl64  1  0.92745800  0.81785400  0.13707000  1
  Cl  Cl65  1  0.32421400  0.69436100  0.20550700  1
  Cl  Cl66  1  0.20890300  0.89139100  0.02424000  1
  Cl  Cl67  1  0.87829200  0.26301100  0.14282200  1
  Cl  Cl68  1  0.67578600  0.19436100  0.29449300  1
  Cl  Cl69  1  0.07254200  0.31785400  0.36293000  1
  Cl  Cl70  1  0.04982900  0.44754200  0.83661500  1
  Cl  Cl71  1  0.32421400  0.80563900  0.70550700  1
  Cl  Cl72  1  0.95017100  0.55245800  0.16338500  1
  Cl  Cl73  1  0.79109700  0.39139100  0.47576000  1
  Cl  Cl74  1  0.03330200  0.84748100  0.51237000  1
  Cl  Cl75  1  0.46335600  0.67507600  0.03426300  1
