# generated using pymatgen
data_LiSb(PO3)4
_symmetry_space_group_name_H-M   'P 1'
_cell_length_a   16.40883400
_cell_length_b   7.12874600
_cell_length_c   9.82007903
_cell_angle_alpha   90.00000000
_cell_angle_beta   125.50133360
_cell_angle_gamma   90.00000000
_symmetry_Int_Tables_number   1
_chemical_formula_structural   LiSb(PO3)4
_chemical_formula_sum   'Li4 Sb4 P16 O48'
_cell_volume   935.15729951
_cell_formula_units_Z   4
loop_
 _symmetry_equiv_pos_site_id
 _symmetry_equiv_pos_as_xyz
  1  'x, y, z'
loop_
 _atom_site_type_symbol
 _atom_site_label
 _atom_site_symmetry_multiplicity
 _atom_site_fract_x
 _atom_site_fract_y
 _atom_site_fract_z
 _atom_site_occupancy
  Li  Li0  1  0.00000000  0.30744400  0.75000000  1
  Li  Li1  1  0.00000000  0.69255600  0.25000000  1
  Li  Li2  1  0.50000000  0.80744400  0.75000000  1
  Li  Li3  1  0.50000000  0.19255600  0.25000000  1
  Sb  Sb4  1  0.00000000  0.82641900  0.75000000  1
  Sb  Sb5  1  0.00000000  0.17358100  0.25000000  1
  Sb  Sb6  1  0.50000000  0.32641900  0.75000000  1
  Sb  Sb7  1  0.50000000  0.67358100  0.25000000  1
  P  P8  1  0.64424900  0.35057100  0.19006300  1
  P  P9  1  0.63890250  0.94291550  0.11957700  1
  P  P10  1  0.86109750  0.44291550  0.38042300  1
  P  P11  1  0.85575100  0.85057100  0.30993700  1
  P  P12  1  0.14424900  0.14942900  0.69006300  1
  P  P13  1  0.13890250  0.55708450  0.61957700  1
  P  P14  1  0.36109750  0.05708450  0.88042300  1
  P  P15  1  0.35575100  0.64942900  0.80993700  1
  P  P16  1  0.14424900  0.85057100  0.19006300  1
  P  P17  1  0.13890250  0.44291550  0.11957700  1
  P  P18  1  0.36109750  0.94291550  0.38042300  1
  P  P19  1  0.35575100  0.35057100  0.30993700  1
  P  P20  1  0.64424900  0.64942900  0.69006300  1
  P  P21  1  0.63890250  0.05708450  0.61957700  1
  P  P22  1  0.86109750  0.55708450  0.88042300  1
  P  P23  1  0.85575100  0.14942900  0.80993700  1
  O  O24  1  0.62100450  0.78202950  0.19740200  1
  O  O25  1  0.65326350  0.12895350  0.22608500  1
  O  O26  1  0.62446200  0.39372500  0.02337200  1
  O  O27  1  0.75046600  0.42482000  0.34163800  1
  O  O28  1  0.93195100  0.08736700  0.77785400  1
  O  O29  1  0.74953400  0.92482000  0.15836200  1
  O  O30  1  0.87553800  0.89372500  0.47662800  1
  O  O31  1  0.93122600  0.48053600  0.56414500  1
  O  O32  1  0.06877400  0.48053600  0.93585500  1
  O  O33  1  0.84673650  0.62895350  0.27391500  1
  O  O34  1  0.87899550  0.28202950  0.30259800  1
  O  O35  1  0.06804900  0.08736700  0.72214600  1
  O  O36  1  0.93195100  0.91263300  0.27785400  1
  O  O37  1  0.12100450  0.71797050  0.69740200  1
  O  O38  1  0.15326350  0.37104650  0.72608500  1
  O  O39  1  0.93122600  0.51946400  0.06414500  1
  O  O40  1  0.06877400  0.51946400  0.43585500  1
  O  O41  1  0.12446200  0.10627500  0.52337200  1
  O  O42  1  0.25046600  0.07518000  0.84163800  1
  O  O43  1  0.06804900  0.91263300  0.22214600  1
  O  O44  1  0.24953400  0.57518000  0.65836200  1
  O  O45  1  0.37553800  0.60627500  0.97662800  1
  O  O46  1  0.34673650  0.87104650  0.77391500  1
  O  O47  1  0.37899550  0.21797050  0.80259800  1
  O  O48  1  0.12100450  0.28202950  0.19740200  1
  O  O49  1  0.15326350  0.62895350  0.22608500  1
  O  O50  1  0.12446200  0.89372500  0.02337200  1
  O  O51  1  0.25046600  0.92482000  0.34163800  1
  O  O52  1  0.43195100  0.58736700  0.77785400  1
  O  O53  1  0.24953400  0.42482000  0.15836200  1
  O  O54  1  0.37553800  0.39372500  0.47662800  1
  O  O55  1  0.43122600  0.98053600  0.56414500  1
  O  O56  1  0.56877400  0.98053600  0.93585500  1
  O  O57  1  0.34673650  0.12895350  0.27391500  1
  O  O58  1  0.37899550  0.78202950  0.30259800  1
  O  O59  1  0.56804900  0.58736700  0.72214600  1
  O  O60  1  0.43195100  0.41263300  0.27785400  1
  O  O61  1  0.62100450  0.21797050  0.69740200  1
  O  O62  1  0.65326350  0.87104650  0.72608500  1
  O  O63  1  0.43122600  0.01946400  0.06414500  1
  O  O64  1  0.56877400  0.01946400  0.43585500  1
  O  O65  1  0.62446200  0.60627500  0.52337200  1
  O  O66  1  0.75046600  0.57518000  0.84163800  1
  O  O67  1  0.56804900  0.41263300  0.22214600  1
  O  O68  1  0.74953400  0.07518000  0.65836200  1
  O  O69  1  0.87553800  0.10627500  0.97662800  1
  O  O70  1  0.84673650  0.37104650  0.77391500  1
  O  O71  1  0.87899550  0.71797050  0.80259800  1
