# generated using pymatgen
data_Li2BeSiO4
_symmetry_space_group_name_H-M   'P 1'
_cell_length_a   6.90863000
_cell_length_b   6.96840800
_cell_length_c   6.15369500
_cell_angle_alpha   90.00000000
_cell_angle_beta   90.00000000
_cell_angle_gamma   90.00000000
_symmetry_Int_Tables_number   1
_chemical_formula_structural   Li2BeSiO4
_chemical_formula_sum   'Li8 Be4 Si4 O16'
_cell_volume   296.25212350
_cell_formula_units_Z   4
loop_
 _symmetry_equiv_pos_site_id
 _symmetry_equiv_pos_as_xyz
  1  'x, y, z'
loop_
 _atom_site_type_symbol
 _atom_site_label
 _atom_site_symmetry_multiplicity
 _atom_site_fract_x
 _atom_site_fract_y
 _atom_site_fract_z
 _atom_site_occupancy
  Li  Li0  1  0.68286800  0.00000000  0.50000000  1
  Li  Li1  1  0.50000000  0.69750900  0.25000000  1
  Li  Li2  1  0.31713200  0.00000000  0.00000000  1
  Li  Li3  1  0.50000000  0.30249100  0.75000000  1
  Li  Li4  1  0.18286800  0.50000000  0.50000000  1
  Li  Li5  1  0.00000000  0.19750900  0.25000000  1
  Li  Li6  1  0.81713200  0.50000000  0.00000000  1
  Li  Li7  1  0.00000000  0.80249100  0.75000000  1
  Be  Be8  1  0.68197800  0.00000000  0.00000000  1
  Be  Be9  1  0.31802200  0.00000000  0.50000000  1
  Be  Be10  1  0.18197800  0.50000000  0.00000000  1
  Be  Be11  1  0.81802200  0.50000000  0.50000000  1
  Si  Si12  1  0.50000000  0.31891900  0.25000000  1
  Si  Si13  1  0.50000000  0.68108100  0.75000000  1
  Si  Si14  1  0.00000000  0.81891900  0.25000000  1
  Si  Si15  1  0.00000000  0.18108100  0.75000000  1
  O  O16  1  0.53203550  0.81488150  0.96641200  1
  O  O17  1  0.46796450  0.81488150  0.53358800  1
  O  O18  1  0.18658800  0.03507600  0.71812200  1
  O  O19  1  0.81341200  0.96492400  0.21812200  1
  O  O20  1  0.81341200  0.03507600  0.78187800  1
  O  O21  1  0.46796450  0.18511850  0.46641200  1
  O  O22  1  0.18658800  0.96492400  0.28187800  1
  O  O23  1  0.53203550  0.18511850  0.03358800  1
  O  O24  1  0.03203550  0.31488150  0.96641200  1
  O  O25  1  0.96796450  0.31488150  0.53358800  1
  O  O26  1  0.68658800  0.53507600  0.71812200  1
  O  O27  1  0.31341200  0.46492400  0.21812200  1
  O  O28  1  0.31341200  0.53507600  0.78187800  1
  O  O29  1  0.96796450  0.68511850  0.46641200  1
  O  O30  1  0.68658800  0.46492400  0.28187800  1
  O  O31  1  0.03203550  0.68511850  0.03358800  1
