# generated using pymatgen
data_CaZr4(PO4)6
_symmetry_space_group_name_H-M   'P 1'
_cell_length_a   8.94624390
_cell_length_b   8.94624390
_cell_length_c   22.90355770
_cell_angle_alpha   90.00000000
_cell_angle_beta   90.00000000
_cell_angle_gamma   120.00000000
_symmetry_Int_Tables_number   1
_chemical_formula_structural   CaZr4(PO4)6
_chemical_formula_sum   'Ca3 Zr12 P18 O72'
_cell_volume   1587.50480338
_cell_formula_units_Z   3
loop_
 _symmetry_equiv_pos_site_id
 _symmetry_equiv_pos_as_xyz
  1  'x, y, z'
loop_
 _atom_site_type_symbol
 _atom_site_label
 _atom_site_symmetry_multiplicity
 _atom_site_fract_x
 _atom_site_fract_y
 _atom_site_fract_z
 _atom_site_occupancy
  Ca  Ca0  1  0.33333333  0.66666667  0.16666667  1
  Ca  Ca1  1  1.00000000  0.00000000  0.50000000  1
  Ca  Ca2  1  0.66666667  0.33333333  0.83333333  1
  Zr  Zr3  1  0.33333333  0.66666667  0.01789267  1
  Zr  Zr4  1  0.66666667  0.33333333  0.19381733  1
  Zr  Zr5  1  0.33333333  0.66666667  0.31544067  1
  Zr  Zr6  1  0.00000000  0.00000000  0.13951600  1
  Zr  Zr7  1  0.00000000  0.00000000  0.35122600  1
  Zr  Zr8  1  0.33333333  0.66666667  0.52715067  1
  Zr  Zr9  1  0.00000000  0.00000000  0.64877400  1
  Zr  Zr10  1  0.66666667  0.33333333  0.47284933  1
  Zr  Zr11  1  0.66666667  0.33333333  0.68455933  1
  Zr  Zr12  1  0.00000000  0.00000000  0.86048400  1
  Zr  Zr13  1  0.66666667  0.33333333  0.98210733  1
  Zr  Zr14  1  0.33333333  0.66666667  0.80618267  1
  P  P15  1  0.95991433  0.34310067  0.08611167  1
  P  P16  1  0.65689933  0.61681367  0.08611167  1
  P  P17  1  0.28348033  0.29324767  0.24722167  1
  P  P18  1  0.38318633  0.04008567  0.08611167  1
  P  P19  1  0.70675233  0.99023267  0.24722167  1
  P  P20  1  0.00976733  0.71651967  0.24722167  1
  P  P21  1  0.62658100  0.67643400  0.41944500  1
  P  P22  1  0.32356600  0.95014700  0.41944500  1
  P  P23  1  0.95014700  0.62658100  0.58055500  1
  P  P24  1  0.04985300  0.37341900  0.41944500  1
  P  P25  1  0.37341900  0.32356600  0.58055500  1
  P  P26  1  0.67643400  0.04985300  0.58055500  1
  P  P27  1  0.29324767  0.00976733  0.75277833  1
  P  P28  1  0.99023267  0.28348033  0.75277833  1
  P  P29  1  0.61681367  0.95991433  0.91388833  1
  P  P30  1  0.71651967  0.70675233  0.75277833  1
  P  P31  1  0.04008567  0.65689933  0.91388833  1
  P  P32  1  0.34310067  0.38318633  0.91388833  1
  O  O33  1  0.00550700  0.80934900  0.30381400  1
  O  O34  1  0.15000500  0.49649800  0.08341800  1
  O  O35  1  0.32017367  0.48333833  0.24991533  1
  O  O36  1  0.70532067  0.16056133  0.24285033  1
  O  O37  1  0.82722800  0.78857400  0.09048300  1
  O  O38  1  0.45524067  0.29467933  0.24285033  1
  O  O39  1  0.80384200  0.99449300  0.30381400  1
  O  O40  1  0.16803400  0.20835400  0.19388100  1
  O  O41  1  0.21142600  0.03865400  0.09048300  1
  O  O42  1  0.86282467  0.33884033  0.02951933  1
  O  O43  1  0.96134600  0.17277200  0.09048300  1
  O  O44  1  0.50350200  0.65350700  0.08341800  1
  O  O45  1  0.83943867  0.54475933  0.24285033  1
  O  O46  1  0.47601567  0.13717533  0.02951933  1
  O  O47  1  0.87502067  0.37365333  0.13945233  1
  O  O48  1  0.16316467  0.67982633  0.24991533  1
  O  O49  1  0.49863267  0.12497933  0.13945233  1
  O  O50  1  0.79164600  0.95968000  0.19388100  1
  O  O51  1  0.66115967  0.52398433  0.02951933  1
  O  O52  1  0.62634667  0.50136733  0.13945233  1
  O  O53  1  0.34649300  0.84999500  0.08341800  1
  O  O54  1  0.04032000  0.83196600  0.19388100  1
  O  O55  1  0.19065100  0.19615800  0.30381400  1
  O  O56  1  0.51666167  0.83683533  0.24991533  1
  O  O57  1  0.67217367  0.14268233  0.63714733  1
  O  O58  1  0.81667167  0.82983133  0.41675133  1
  O  O59  1  0.98684033  0.81667167  0.58324867  1
  O  O60  1  0.37198733  0.49389467  0.57618367  1
  O  O61  1  0.49389467  0.12190733  0.42381633  1
  O  O62  1  0.12190733  0.62801267  0.57618367  1
  O  O63  1  0.47050867  0.32782633  0.63714733  1
  O  O64  1  0.83470067  0.54168733  0.52721433  1
  O  O65  1  0.87809267  0.37198733  0.42381633  1
  O  O66  1  0.52949133  0.67217367  0.36285267  1
  O  O67  1  0.62801267  0.50610533  0.42381633  1
  O  O68  1  0.17016867  0.98684033  0.41675133  1
  O  O69  1  0.50610533  0.87809267  0.57618367  1
  O  O70  1  0.14268233  0.47050867  0.36285267  1
  O  O71  1  0.54168733  0.70698667  0.47278567  1
  O  O72  1  0.82983133  0.01315967  0.58324867  1
  O  O73  1  0.16529933  0.45831267  0.47278567  1
  O  O74  1  0.45831267  0.29301333  0.52721433  1
  O  O75  1  0.32782633  0.85731767  0.36285267  1
  O  O76  1  0.29301333  0.83470067  0.47278567  1
  O  O77  1  0.01315967  0.18332833  0.41675133  1
  O  O78  1  0.70698667  0.16529933  0.52721433  1
  O  O79  1  0.85731767  0.52949133  0.63714733  1
  O  O80  1  0.18332833  0.17016867  0.58324867  1
  O  O81  1  0.33884033  0.47601567  0.97048067  1
  O  O82  1  0.48333833  0.16316467  0.75008467  1
  O  O83  1  0.65350700  0.15000500  0.91658200  1
  O  O84  1  0.03865400  0.82722800  0.90951700  1
  O  O85  1  0.16056133  0.45524067  0.75714967  1
  O  O86  1  0.78857400  0.96134600  0.90951700  1
  O  O87  1  0.13717533  0.66115967  0.97048067  1
  O  O88  1  0.50136733  0.87502067  0.86054767  1
  O  O89  1  0.54475933  0.70532067  0.75714967  1
  O  O90  1  0.19615800  0.00550700  0.69618600  1
  O  O91  1  0.29467933  0.83943867  0.75714967  1
  O  O92  1  0.83683533  0.32017367  0.75008467  1
  O  O93  1  0.17277200  0.21142600  0.90951700  1
  O  O94  1  0.80934900  0.80384200  0.69618600  1
  O  O95  1  0.20835400  0.04032000  0.80611900  1
  O  O96  1  0.49649800  0.34649300  0.91658200  1
  O  O97  1  0.83196600  0.79164600  0.80611900  1
  O  O98  1  0.12497933  0.62634667  0.86054767  1
  O  O99  1  0.99449300  0.19065100  0.69618600  1
  O  O100  1  0.95968000  0.16803400  0.80611900  1
  O  O101  1  0.67982633  0.51666167  0.75008467  1
  O  O102  1  0.37365333  0.49863267  0.86054767  1
  O  O103  1  0.52398433  0.86282467  0.97048067  1
  O  O104  1  0.84999500  0.50350200  0.91658200  1
