# generated using pymatgen
data_Cs2CdI4
_symmetry_space_group_name_H-M   'P 1'
_cell_length_a   8.74763200
_cell_length_b   11.09988900
_cell_length_c   15.40484100
_cell_angle_alpha   90.00000000
_cell_angle_beta   90.00000000
_cell_angle_gamma   90.00000000
_symmetry_Int_Tables_number   1
_chemical_formula_structural   Cs2CdI4
_chemical_formula_sum   'Cs8 Cd4 I16'
_cell_volume   1495.77531106
_cell_formula_units_Z   4
loop_
 _symmetry_equiv_pos_site_id
 _symmetry_equiv_pos_as_xyz
  1  'x, y, z'
loop_
 _atom_site_type_symbol
 _atom_site_label
 _atom_site_symmetry_multiplicity
 _atom_site_fract_x
 _atom_site_fract_y
 _atom_site_fract_z
 _atom_site_occupancy
  Cs  Cs0  1  0.25000000  0.98379900  0.66759000  1
  Cs  Cs1  1  0.25000000  0.11756100  0.10129800  1
  Cs  Cs2  1  0.75000000  0.88243900  0.89870200  1
  Cs  Cs3  1  0.25000000  0.61756100  0.39870200  1
  Cs  Cs4  1  0.25000000  0.48379900  0.83241000  1
  Cs  Cs5  1  0.75000000  0.01620100  0.33241000  1
  Cs  Cs6  1  0.75000000  0.38243900  0.60129800  1
  Cs  Cs7  1  0.75000000  0.51620100  0.16759000  1
  Cd  Cd8  1  0.25000000  0.22476800  0.42116000  1
  Cd  Cd9  1  0.25000000  0.72476800  0.07884000  1
  Cd  Cd10  1  0.75000000  0.77523200  0.57884000  1
  Cd  Cd11  1  0.75000000  0.27523200  0.92116000  1
  I  I12  1  0.48905400  0.67985300  0.66100800  1
  I  I13  1  0.98905400  0.82014700  0.16100800  1
  I  I14  1  0.75000000  0.67666800  0.40950000  1
  I  I15  1  0.25000000  0.97203300  0.41208100  1
  I  I16  1  0.01094600  0.17985300  0.83899200  1
  I  I17  1  0.25000000  0.32333200  0.59050000  1
  I  I18  1  0.98905400  0.32014700  0.33899200  1
  I  I19  1  0.75000000  0.17666800  0.09050000  1
  I  I20  1  0.75000000  0.52796700  0.91208100  1
  I  I21  1  0.75000000  0.02796700  0.58791900  1
  I  I22  1  0.01094600  0.67985300  0.66100800  1
  I  I23  1  0.51094600  0.82014700  0.16100800  1
  I  I24  1  0.25000000  0.82333200  0.90950000  1
  I  I25  1  0.51094600  0.32014700  0.33899200  1
  I  I26  1  0.25000000  0.47203300  0.08791900  1
  I  I27  1  0.48905400  0.17985300  0.83899200  1
