# generated using pymatgen
data_Ba2BN2Cl
_symmetry_space_group_name_H-M   'P 1'
_cell_length_a   14.88154400
_cell_length_b   14.88154400
_cell_length_c   14.88154400
_cell_angle_alpha   90.00000000
_cell_angle_beta   90.00000000
_cell_angle_gamma   90.00000000
_symmetry_Int_Tables_number   1
_chemical_formula_structural   Ba2BN2Cl
_chemical_formula_sum   'Ba48 B24 N48 Cl24'
_cell_volume   3295.67196992
_cell_formula_units_Z   24
loop_
 _symmetry_equiv_pos_site_id
 _symmetry_equiv_pos_as_xyz
  1  'x, y, z'
loop_
 _atom_site_type_symbol
 _atom_site_label
 _atom_site_symmetry_multiplicity
 _atom_site_fract_x
 _atom_site_fract_y
 _atom_site_fract_z
 _atom_site_occupancy
  Ba  Ba0  1  0.00000000  0.75000000  0.09088000  1
  Ba  Ba1  1  0.96871350  0.46871350  0.03128650  1
  Ba  Ba2  1  0.50000000  0.25000000  0.15912000  1
  Ba  Ba3  1  0.15912000  0.50000000  0.25000000  1
  Ba  Ba4  1  0.03128650  0.96871350  0.46871350  1
  Ba  Ba5  1  0.21871350  0.21871350  0.21871350  1
  Ba  Ba6  1  0.50000000  0.75000000  0.34088000  1
  Ba  Ba7  1  0.00000000  0.25000000  0.40912000  1
  Ba  Ba8  1  0.25000000  0.15912000  0.50000000  1
  Ba  Ba9  1  0.46871350  0.03128650  0.96871350  1
  Ba  Ba10  1  0.75000000  0.09088000  0.00000000  1
  Ba  Ba11  1  0.75000000  0.34088000  0.50000000  1
  Ba  Ba12  1  0.78128650  0.28128650  0.21871350  1
  Ba  Ba13  1  0.87500000  0.12500000  0.62500000  1
  Ba  Ba14  1  0.40912000  0.00000000  0.25000000  1
  Ba  Ba15  1  0.03128650  0.03128650  0.03128650  1
  Ba  Ba16  1  0.09088000  0.00000000  0.75000000  1
  Ba  Ba17  1  0.28128650  0.21871350  0.78128650  1
  Ba  Ba18  1  0.34088000  0.50000000  0.75000000  1
  Ba  Ba19  1  0.25000000  0.40912000  0.00000000  1
  Ba  Ba20  1  0.21871350  0.78128650  0.28128650  1
  Ba  Ba21  1  0.12500000  0.62500000  0.87500000  1
  Ba  Ba22  1  0.62500000  0.87500000  0.12500000  1
  Ba  Ba23  1  0.37500000  0.37500000  0.37500000  1
  Ba  Ba24  1  0.50000000  0.25000000  0.59088000  1
  Ba  Ba25  1  0.46871350  0.96871350  0.53128650  1
  Ba  Ba26  1  0.00000000  0.75000000  0.65912000  1
  Ba  Ba27  1  0.65912000  0.00000000  0.75000000  1
  Ba  Ba28  1  0.53128650  0.46871350  0.96871350  1
  Ba  Ba29  1  0.71871350  0.71871350  0.71871350  1
  Ba  Ba30  1  0.00000000  0.25000000  0.84088000  1
  Ba  Ba31  1  0.50000000  0.75000000  0.90912000  1
  Ba  Ba32  1  0.75000000  0.65912000  0.00000000  1
  Ba  Ba33  1  0.96871350  0.53128650  0.46871350  1
  Ba  Ba34  1  0.25000000  0.59088000  0.50000000  1
  Ba  Ba35  1  0.25000000  0.84088000  0.00000000  1
  Ba  Ba36  1  0.28128650  0.78128650  0.71871350  1
  Ba  Ba37  1  0.37500000  0.62500000  0.12500000  1
  Ba  Ba38  1  0.90912000  0.50000000  0.75000000  1
  Ba  Ba39  1  0.53128650  0.53128650  0.53128650  1
  Ba  Ba40  1  0.59088000  0.50000000  0.25000000  1
  Ba  Ba41  1  0.78128650  0.71871350  0.28128650  1
  Ba  Ba42  1  0.84088000  0.00000000  0.25000000  1
  Ba  Ba43  1  0.75000000  0.90912000  0.50000000  1
  Ba  Ba44  1  0.71871350  0.28128650  0.78128650  1
  Ba  Ba45  1  0.62500000  0.12500000  0.37500000  1
  Ba  Ba46  1  0.12500000  0.37500000  0.62500000  1
  Ba  Ba47  1  0.87500000  0.87500000  0.87500000  1
  B  B48  1  0.33594300  0.62500000  0.91405700  1
  B  B49  1  0.16405700  0.37500000  0.41405700  1
  B  B50  1  0.62500000  0.08594300  0.16405700  1
  B  B51  1  0.62500000  0.91405700  0.33594300  1
  B  B52  1  0.37500000  0.41405700  0.16405700  1
  B  B53  1  0.33594300  0.37500000  0.58594300  1
  B  B54  1  0.58594300  0.33594300  0.37500000  1
  B  B55  1  0.41405700  0.16405700  0.37500000  1
  B  B56  1  0.16405700  0.62500000  0.08594300  1
  B  B57  1  0.08594300  0.16405700  0.62500000  1
  B  B58  1  0.37500000  0.58594300  0.33594300  1
  B  B59  1  0.91405700  0.33594300  0.62500000  1
  B  B60  1  0.83594300  0.12500000  0.41405700  1
  B  B61  1  0.66405700  0.87500000  0.91405700  1
  B  B62  1  0.12500000  0.58594300  0.66405700  1
  B  B63  1  0.12500000  0.41405700  0.83594300  1
  B  B64  1  0.87500000  0.91405700  0.66405700  1
  B  B65  1  0.83594300  0.87500000  0.08594300  1
  B  B66  1  0.08594300  0.83594300  0.87500000  1
  B  B67  1  0.91405700  0.66405700  0.87500000  1
  B  B68  1  0.66405700  0.12500000  0.58594300  1
  B  B69  1  0.58594300  0.66405700  0.12500000  1
  B  B70  1  0.87500000  0.08594300  0.83594300  1
  B  B71  1  0.41405700  0.83594300  0.12500000  1
  N  N72  1  0.13664600  0.54251700  0.06048600  1
  N  N73  1  0.18951400  0.70748300  0.11335400  1
  N  N74  1  0.54251700  0.06048600  0.13664600  1
  N  N75  1  0.13664600  0.45748300  0.43951400  1
  N  N76  1  0.61335400  0.31048600  0.29251700  1
  N  N77  1  0.54251700  0.93951400  0.36335400  1
  N  N78  1  0.31048600  0.29251700  0.61335400  1
  N  N79  1  0.70748300  0.11335400  0.18951400  1
  N  N80  1  0.45748300  0.43951400  0.13664600  1
  N  N81  1  0.81048600  0.20748300  0.38664600  1
  N  N82  1  0.18951400  0.29251700  0.38664600  1
  N  N83  1  0.43951400  0.13664600  0.45748300  1
  N  N84  1  0.86335400  0.95748300  0.06048600  1
  N  N85  1  0.29251700  0.61335400  0.31048600  1
  N  N86  1  0.06048600  0.86335400  0.95748300  1
  N  N87  1  0.11335400  0.18951400  0.70748300  1
  N  N88  1  0.38664600  0.18951400  0.29251700  1
  N  N89  1  0.93951400  0.36335400  0.54251700  1
  N  N90  1  0.20748300  0.38664600  0.81048600  1
  N  N91  1  0.29251700  0.38664600  0.18951400  1
  N  N92  1  0.38664600  0.81048600  0.20748300  1
  N  N93  1  0.06048600  0.13664600  0.54251700  1
  N  N94  1  0.36335400  0.54251700  0.93951400  1
  N  N95  1  0.95748300  0.06048600  0.86335400  1
  N  N96  1  0.63664600  0.04251700  0.56048600  1
  N  N97  1  0.68951400  0.20748300  0.61335400  1
  N  N98  1  0.04251700  0.56048600  0.63664600  1
  N  N99  1  0.63664600  0.95748300  0.93951400  1
  N  N100  1  0.11335400  0.81048600  0.79251700  1
  N  N101  1  0.04251700  0.43951400  0.86335400  1
  N  N102  1  0.81048600  0.79251700  0.11335400  1
  N  N103  1  0.20748300  0.61335400  0.68951400  1
  N  N104  1  0.95748300  0.93951400  0.63664600  1
  N  N105  1  0.31048600  0.70748300  0.88664600  1
  N  N106  1  0.68951400  0.79251700  0.88664600  1
  N  N107  1  0.93951400  0.63664600  0.95748300  1
  N  N108  1  0.36335400  0.45748300  0.56048600  1
  N  N109  1  0.79251700  0.11335400  0.81048600  1
  N  N110  1  0.56048600  0.36335400  0.45748300  1
  N  N111  1  0.61335400  0.68951400  0.20748300  1
  N  N112  1  0.88664600  0.68951400  0.79251700  1
  N  N113  1  0.43951400  0.86335400  0.04251700  1
  N  N114  1  0.70748300  0.88664600  0.31048600  1
  N  N115  1  0.79251700  0.88664600  0.68951400  1
  N  N116  1  0.88664600  0.31048600  0.70748300  1
  N  N117  1  0.56048600  0.63664600  0.04251700  1
  N  N118  1  0.86335400  0.04251700  0.43951400  1
  N  N119  1  0.45748300  0.56048600  0.36335400  1
  Cl  Cl120  1  0.26584800  0.98415200  0.62500000  1
  Cl  Cl121  1  0.76584800  0.51584800  0.37500000  1
  Cl  Cl122  1  0.98415200  0.37500000  0.23415200  1
  Cl  Cl123  1  0.37500000  0.23415200  0.98415200  1
  Cl  Cl124  1  0.23415200  0.01584800  0.12500000  1
  Cl  Cl125  1  0.01584800  0.12500000  0.23415200  1
  Cl  Cl126  1  0.23415200  0.98415200  0.37500000  1
  Cl  Cl127  1  0.12500000  0.23415200  0.01584800  1
  Cl  Cl128  1  0.98415200  0.62500000  0.26584800  1
  Cl  Cl129  1  0.62500000  0.26584800  0.98415200  1
  Cl  Cl130  1  0.51584800  0.37500000  0.76584800  1
  Cl  Cl131  1  0.37500000  0.76584800  0.51584800  1
  Cl  Cl132  1  0.76584800  0.48415200  0.12500000  1
  Cl  Cl133  1  0.26584800  0.01584800  0.87500000  1
  Cl  Cl134  1  0.48415200  0.87500000  0.73415200  1
  Cl  Cl135  1  0.87500000  0.73415200  0.48415200  1
  Cl  Cl136  1  0.73415200  0.51584800  0.62500000  1
  Cl  Cl137  1  0.51584800  0.62500000  0.73415200  1
  Cl  Cl138  1  0.73415200  0.48415200  0.87500000  1
  Cl  Cl139  1  0.62500000  0.73415200  0.51584800  1
  Cl  Cl140  1  0.48415200  0.12500000  0.76584800  1
  Cl  Cl141  1  0.12500000  0.76584800  0.48415200  1
  Cl  Cl142  1  0.01584800  0.87500000  0.26584800  1
  Cl  Cl143  1  0.87500000  0.26584800  0.01584800  1
