# generated using pymatgen
data_CuB4O7
_symmetry_space_group_name_H-M   'P 1'
_cell_length_a   6.55603800
_cell_length_b   10.88011400
_cell_length_c   5.15631800
_cell_angle_alpha   90.00000000
_cell_angle_beta   90.00000000
_cell_angle_gamma   90.00000000
_symmetry_Int_Tables_number   1
_chemical_formula_structural   CuB4O7
_chemical_formula_sum   'Cu4 B16 O28'
_cell_volume   367.80243599
_cell_formula_units_Z   4
loop_
 _symmetry_equiv_pos_site_id
 _symmetry_equiv_pos_as_xyz
  1  'x, y, z'
loop_
 _atom_site_type_symbol
 _atom_site_label
 _atom_site_symmetry_multiplicity
 _atom_site_fract_x
 _atom_site_fract_y
 _atom_site_fract_z
 _atom_site_occupancy
  Cu  Cu0  1  0.27875300  0.00000000  0.25000000  1
  Cu  Cu1  1  0.72124700  0.00000000  0.75000000  1
  Cu  Cu2  1  0.77875300  0.50000000  0.25000000  1
  Cu  Cu3  1  0.22124700  0.50000000  0.75000000  1
  B  B4  1  0.81198300  0.88618700  0.25000000  1
  B  B5  1  0.50000000  0.79679800  0.50000000  1
  B  B6  1  0.81198300  0.11381300  0.25000000  1
  B  B7  1  0.18801700  0.88618700  0.75000000  1
  B  B8  1  0.50000000  0.20320200  0.00000000  1
  B  B9  1  0.50000000  0.20320200  0.50000000  1
  B  B10  1  0.18801700  0.11381300  0.75000000  1
  B  B11  1  0.50000000  0.79679800  0.00000000  1
  B  B12  1  0.31198300  0.38618700  0.25000000  1
  B  B13  1  0.00000000  0.29679800  0.50000000  1
  B  B14  1  0.31198300  0.61381300  0.25000000  1
  B  B15  1  0.68801700  0.38618700  0.75000000  1
  B  B16  1  0.00000000  0.70320200  0.00000000  1
  B  B17  1  0.00000000  0.70320200  0.50000000  1
  B  B18  1  0.68801700  0.61381300  0.75000000  1
  B  B19  1  0.00000000  0.29679800  0.00000000  1
  O  O20  1  0.92172600  0.00000000  0.25000000  1
  O  O21  1  0.52337650  0.72047350  0.75000000  1
  O  O22  1  0.47662350  0.72047350  0.25000000  1
  O  O23  1  0.31725950  0.12733850  0.97902400  1
  O  O24  1  0.31725950  0.12733850  0.52097600  1
  O  O25  1  0.68274050  0.12733850  0.47902400  1
  O  O26  1  0.68274050  0.12733850  0.02097600  1
  O  O27  1  0.52337650  0.27952650  0.75000000  1
  O  O28  1  0.07827400  0.00000000  0.75000000  1
  O  O29  1  0.68274050  0.87266150  0.02097600  1
  O  O30  1  0.31725950  0.87266150  0.97902400  1
  O  O31  1  0.31725950  0.87266150  0.52097600  1
  O  O32  1  0.47662350  0.27952650  0.25000000  1
  O  O33  1  0.68274050  0.87266150  0.47902400  1
  O  O34  1  0.42172600  0.50000000  0.25000000  1
  O  O35  1  0.02337650  0.22047350  0.75000000  1
  O  O36  1  0.97662350  0.22047350  0.25000000  1
  O  O37  1  0.81725950  0.62733850  0.97902400  1
  O  O38  1  0.81725950  0.62733850  0.52097600  1
  O  O39  1  0.18274050  0.62733850  0.47902400  1
  O  O40  1  0.18274050  0.62733850  0.02097600  1
  O  O41  1  0.02337650  0.77952650  0.75000000  1
  O  O42  1  0.57827400  0.50000000  0.75000000  1
  O  O43  1  0.18274050  0.37266150  0.02097600  1
  O  O44  1  0.81725950  0.37266150  0.97902400  1
  O  O45  1  0.81725950  0.37266150  0.52097600  1
  O  O46  1  0.97662350  0.77952650  0.25000000  1
  O  O47  1  0.18274050  0.37266150  0.47902400  1
