# generated using pymatgen
data_PO2
_symmetry_space_group_name_H-M   'P 1'
_cell_length_a   9.94664400
_cell_length_b   10.50541000
_cell_length_c   7.29814452
_cell_angle_alpha   90.00000000
_cell_angle_beta   97.23689211
_cell_angle_gamma   90.00000000
_symmetry_Int_Tables_number   1
_chemical_formula_structural   PO2
_chemical_formula_sum   'P16 O32'
_cell_volume   756.53409797
_cell_formula_units_Z   16
loop_
 _symmetry_equiv_pos_site_id
 _symmetry_equiv_pos_as_xyz
  1  'x, y, z'
loop_
 _atom_site_type_symbol
 _atom_site_label
 _atom_site_symmetry_multiplicity
 _atom_site_fract_x
 _atom_site_fract_y
 _atom_site_fract_z
 _atom_site_occupancy
  P  P0  1  0.86103600  0.11716100  0.17638900  1
  P  P1  1  0.86103600  0.88283900  0.67638900  1
  P  P2  1  0.46092950  0.81423350  0.44046100  1
  P  P3  1  0.13896400  0.88283900  0.82361100  1
  P  P4  1  0.53907050  0.18576650  0.55953900  1
  P  P5  1  0.53907050  0.81423350  0.05953900  1
  P  P6  1  0.46092950  0.18576650  0.94046100  1
  P  P7  1  0.13896400  0.11716100  0.32361100  1
  P  P8  1  0.36103600  0.61716100  0.17638900  1
  P  P9  1  0.36103600  0.38283900  0.67638900  1
  P  P10  1  0.96092950  0.31423350  0.44046100  1
  P  P11  1  0.63896400  0.38283900  0.82361100  1
  P  P12  1  0.03907050  0.68576650  0.55953900  1
  P  P13  1  0.03907050  0.31423350  0.05953900  1
  P  P14  1  0.96092950  0.68576650  0.94046100  1
  P  P15  1  0.63896400  0.61716100  0.32361100  1
  O  O16  1  0.50000000  0.88118400  0.25000000  1
  O  O17  1  0.34154900  0.71000600  0.34468600  1
  O  O18  1  0.40860700  0.70873000  0.02146700  1
  O  O19  1  0.50000000  0.54071400  0.25000000  1
  O  O20  1  0.65845100  0.28999400  0.65531400  1
  O  O21  1  0.40860700  0.29127000  0.52146700  1
  O  O22  1  0.50000000  0.45928600  0.75000000  1
  O  O23  1  0.50000000  0.11881600  0.75000000  1
  O  O24  1  0.25268400  0.96642900  0.88576700  1
  O  O25  1  0.34154900  0.28999400  0.84468600  1
  O  O26  1  0.65845100  0.71000600  0.15531400  1
  O  O27  1  0.74731600  0.03357100  0.11423300  1
  O  O28  1  0.25268400  0.03357100  0.38576700  1
  O  O29  1  0.59139300  0.70873000  0.47853300  1
  O  O30  1  0.59139300  0.29127000  0.97853300  1
  O  O31  1  0.74731600  0.96642900  0.61423300  1
  O  O32  1  0.00000000  0.38118400  0.25000000  1
  O  O33  1  0.84154900  0.21000600  0.34468600  1
  O  O34  1  0.90860700  0.20873000  0.02146700  1
  O  O35  1  0.00000000  0.04071400  0.25000000  1
  O  O36  1  0.15845100  0.78999400  0.65531400  1
  O  O37  1  0.90860700  0.79127000  0.52146700  1
  O  O38  1  0.00000000  0.95928600  0.75000000  1
  O  O39  1  0.00000000  0.61881600  0.75000000  1
  O  O40  1  0.75268400  0.46642900  0.88576700  1
  O  O41  1  0.84154900  0.78999400  0.84468600  1
  O  O42  1  0.15845100  0.21000600  0.15531400  1
  O  O43  1  0.24731600  0.53357100  0.11423300  1
  O  O44  1  0.75268400  0.53357100  0.38576700  1
  O  O45  1  0.09139300  0.20873000  0.47853300  1
  O  O46  1  0.09139300  0.79127000  0.97853300  1
  O  O47  1  0.24731600  0.46642900  0.61423300  1
