# generated using pymatgen
data_ZrP2NCl11
_symmetry_space_group_name_H-M   'P 1'
_cell_length_a   12.05243800
_cell_length_b   18.64344400
_cell_length_c   16.27777900
_cell_angle_alpha   90.00000000
_cell_angle_beta   90.00000000
_cell_angle_gamma   90.00000000
_symmetry_Int_Tables_number   1
_chemical_formula_structural   ZrP2NCl11
_chemical_formula_sum   'Zr8 P16 N8 Cl88'
_cell_volume   3657.59989711
_cell_formula_units_Z   8
loop_
 _symmetry_equiv_pos_site_id
 _symmetry_equiv_pos_as_xyz
  1  'x, y, z'
loop_
 _atom_site_type_symbol
 _atom_site_label
 _atom_site_symmetry_multiplicity
 _atom_site_fract_x
 _atom_site_fract_y
 _atom_site_fract_z
 _atom_site_occupancy
  Zr  Zr0  1  0.35204400  0.00000000  0.06638500  1
  Zr  Zr1  1  0.14795600  0.00000000  0.56638500  1
  Zr  Zr2  1  0.64795600  0.00000000  0.93361500  1
  Zr  Zr3  1  0.85204400  0.00000000  0.43361500  1
  Zr  Zr4  1  0.85204400  0.50000000  0.06638500  1
  Zr  Zr5  1  0.64795600  0.50000000  0.56638500  1
  Zr  Zr6  1  0.14795600  0.50000000  0.93361500  1
  Zr  Zr7  1  0.35204400  0.50000000  0.43361500  1
  P  P8  1  0.49861000  0.30295900  0.18325500  1
  P  P9  1  0.50139000  0.80295900  0.68325500  1
  P  P10  1  0.50139000  0.69704100  0.81674500  1
  P  P11  1  0.49861000  0.19704100  0.31674500  1
  P  P12  1  0.49861000  0.69704100  0.18325500  1
  P  P13  1  0.50139000  0.19704100  0.68325500  1
  P  P14  1  0.50139000  0.30295900  0.81674500  1
  P  P15  1  0.49861000  0.80295900  0.31674500  1
  P  P16  1  0.99861000  0.80295900  0.18325500  1
  P  P17  1  0.00139000  0.30295900  0.68325500  1
  P  P18  1  0.00139000  0.19704100  0.81674500  1
  P  P19  1  0.99861000  0.69704100  0.31674500  1
  P  P20  1  0.99861000  0.19704100  0.18325500  1
  P  P21  1  0.00139000  0.69704100  0.68325500  1
  P  P22  1  0.00139000  0.80295900  0.81674500  1
  P  P23  1  0.99861000  0.30295900  0.31674500  1
  N  N24  1  0.54765900  0.75000000  0.75000000  1
  N  N25  1  0.45234100  0.75000000  0.25000000  1
  N  N26  1  0.54765900  0.25000000  0.75000000  1
  N  N27  1  0.45234100  0.25000000  0.25000000  1
  N  N28  1  0.04765900  0.25000000  0.75000000  1
  N  N29  1  0.95234100  0.25000000  0.25000000  1
  N  N30  1  0.04765900  0.75000000  0.75000000  1
  N  N31  1  0.95234100  0.75000000  0.25000000  1
  Cl  Cl32  1  0.41075450  0.88188250  0.72904400  1
  Cl  Cl33  1  0.92682100  0.00000000  0.58616500  1
  Cl  Cl34  1  0.62659100  0.34772900  0.87554800  1
  Cl  Cl35  1  0.62659100  0.84772900  0.62445200  1
  Cl  Cl36  1  0.58924550  0.61811750  0.22904400  1
  Cl  Cl37  1  0.59134000  0.25519500  0.09882900  1
  Cl  Cl38  1  0.41075450  0.38188250  0.77095600  1
  Cl  Cl39  1  0.41075450  0.11811750  0.72904400  1
  Cl  Cl40  1  0.37340900  0.65227100  0.12445200  1
  Cl  Cl41  1  0.62659100  0.15227100  0.62445200  1
  Cl  Cl42  1  0.40866000  0.24480500  0.59882900  1
  Cl  Cl43  1  0.83184400  0.00000000  0.28548600  1
  Cl  Cl44  1  0.37340900  0.84772900  0.37554800  1
  Cl  Cl45  1  0.57317900  0.00000000  0.08616500  1
  Cl  Cl46  1  0.58924550  0.11811750  0.27095600  1
  Cl  Cl47  1  0.64325100  0.13187800  0.93883300  1
  Cl  Cl48  1  0.64325100  0.86812200  0.93883300  1
  Cl  Cl49  1  0.40866000  0.75519500  0.59882900  1
  Cl  Cl50  1  0.59134000  0.24480500  0.40117100  1
  Cl  Cl51  1  0.14325100  0.86812200  0.56116700  1
  Cl  Cl52  1  0.85674900  0.13187800  0.43883300  1
  Cl  Cl53  1  0.85674900  0.86812200  0.43883300  1
  Cl  Cl54  1  0.42682100  0.00000000  0.91383500  1
  Cl  Cl55  1  0.33184400  0.00000000  0.21451400  1
  Cl  Cl56  1  0.37340900  0.15227100  0.37554800  1
  Cl  Cl57  1  0.41075450  0.61811750  0.77095600  1
  Cl  Cl58  1  0.66815600  0.00000000  0.78548600  1
  Cl  Cl59  1  0.40866000  0.25519500  0.90117100  1
  Cl  Cl60  1  0.37340900  0.34772900  0.12445200  1
  Cl  Cl61  1  0.16815600  0.00000000  0.71451400  1
  Cl  Cl62  1  0.35674900  0.86812200  0.06116700  1
  Cl  Cl63  1  0.59134000  0.74480500  0.09882900  1
  Cl  Cl64  1  0.14325100  0.13187800  0.56116700  1
  Cl  Cl65  1  0.07317900  0.00000000  0.41383500  1
  Cl  Cl66  1  0.66016700  0.00000000  0.47468300  1
  Cl  Cl67  1  0.35674900  0.13187800  0.06116700  1
  Cl  Cl68  1  0.16016700  0.00000000  0.02531700  1
  Cl  Cl69  1  0.33983300  0.00000000  0.52531700  1
  Cl  Cl70  1  0.62659100  0.65227100  0.87554800  1
  Cl  Cl71  1  0.58924550  0.38188250  0.22904400  1
  Cl  Cl72  1  0.59134000  0.75519500  0.40117100  1
  Cl  Cl73  1  0.58924550  0.88188250  0.27095600  1
  Cl  Cl74  1  0.83983300  0.00000000  0.97468300  1
  Cl  Cl75  1  0.40866000  0.74480500  0.90117100  1
  Cl  Cl76  1  0.91075450  0.38188250  0.72904400  1
  Cl  Cl77  1  0.42682100  0.50000000  0.58616500  1
  Cl  Cl78  1  0.12659100  0.84772900  0.87554800  1
  Cl  Cl79  1  0.12659100  0.34772900  0.62445200  1
  Cl  Cl80  1  0.08924550  0.11811750  0.22904400  1
  Cl  Cl81  1  0.09134000  0.75519500  0.09882900  1
  Cl  Cl82  1  0.91075450  0.88188250  0.77095600  1
  Cl  Cl83  1  0.91075450  0.61811750  0.72904400  1
  Cl  Cl84  1  0.87340900  0.15227100  0.12445200  1
  Cl  Cl85  1  0.12659100  0.65227100  0.62445200  1
  Cl  Cl86  1  0.90866000  0.74480500  0.59882900  1
  Cl  Cl87  1  0.33184400  0.50000000  0.28548600  1
  Cl  Cl88  1  0.87340900  0.34772900  0.37554800  1
  Cl  Cl89  1  0.07317900  0.50000000  0.08616500  1
  Cl  Cl90  1  0.08924550  0.61811750  0.27095600  1
  Cl  Cl91  1  0.14325100  0.63187800  0.93883300  1
  Cl  Cl92  1  0.14325100  0.36812200  0.93883300  1
  Cl  Cl93  1  0.90866000  0.25519500  0.59882900  1
  Cl  Cl94  1  0.09134000  0.74480500  0.40117100  1
  Cl  Cl95  1  0.64325100  0.36812200  0.56116700  1
  Cl  Cl96  1  0.35674900  0.63187800  0.43883300  1
  Cl  Cl97  1  0.35674900  0.36812200  0.43883300  1
  Cl  Cl98  1  0.92682100  0.50000000  0.91383500  1
  Cl  Cl99  1  0.83184400  0.50000000  0.21451400  1
  Cl  Cl100  1  0.87340900  0.65227100  0.37554800  1
  Cl  Cl101  1  0.91075450  0.11811750  0.77095600  1
  Cl  Cl102  1  0.16815600  0.50000000  0.78548600  1
  Cl  Cl103  1  0.90866000  0.75519500  0.90117100  1
  Cl  Cl104  1  0.87340900  0.84772900  0.12445200  1
  Cl  Cl105  1  0.66815600  0.50000000  0.71451400  1
  Cl  Cl106  1  0.85674900  0.36812200  0.06116700  1
  Cl  Cl107  1  0.09134000  0.24480500  0.09882900  1
  Cl  Cl108  1  0.64325100  0.63187800  0.56116700  1
  Cl  Cl109  1  0.57317900  0.50000000  0.41383500  1
  Cl  Cl110  1  0.16016700  0.50000000  0.47468300  1
  Cl  Cl111  1  0.85674900  0.63187800  0.06116700  1
  Cl  Cl112  1  0.66016700  0.50000000  0.02531700  1
  Cl  Cl113  1  0.83983300  0.50000000  0.52531700  1
  Cl  Cl114  1  0.12659100  0.15227100  0.87554800  1
  Cl  Cl115  1  0.08924550  0.88188250  0.22904400  1
  Cl  Cl116  1  0.09134000  0.25519500  0.40117100  1
  Cl  Cl117  1  0.08924550  0.38188250  0.27095600  1
  Cl  Cl118  1  0.33983300  0.50000000  0.97468300  1
  Cl  Cl119  1  0.90866000  0.24480500  0.90117100  1
