# generated using pymatgen
data_LiLa(PO3)4
_symmetry_space_group_name_H-M   'P 1'
_cell_length_a   16.80026214
_cell_length_b   7.21418000
_cell_length_c   10.00900224
_cell_angle_alpha   90.00000000
_cell_angle_beta   126.53733910
_cell_angle_gamma   90.00000000
_symmetry_Int_Tables_number   1
_chemical_formula_structural   LiLa(PO3)4
_chemical_formula_sum   'Li4 La4 P16 O48'
_cell_volume   974.68205648
_cell_formula_units_Z   4
loop_
 _symmetry_equiv_pos_site_id
 _symmetry_equiv_pos_as_xyz
  1  'x, y, z'
loop_
 _atom_site_type_symbol
 _atom_site_label
 _atom_site_symmetry_multiplicity
 _atom_site_fract_x
 _atom_site_fract_y
 _atom_site_fract_z
 _atom_site_occupancy
  Li  Li0  1  0.00000000  0.20302900  0.75000000  1
  Li  Li1  1  0.00000000  0.79697100  0.25000000  1
  Li  Li2  1  0.50000000  0.70302900  0.75000000  1
  Li  Li3  1  0.50000000  0.29697100  0.25000000  1
  La  La4  1  0.00000000  0.70155100  0.75000000  1
  La  La5  1  0.00000000  0.29844900  0.25000000  1
  La  La6  1  0.50000000  0.20155100  0.75000000  1
  La  La7  1  0.50000000  0.79844900  0.25000000  1
  P  P8  1  0.86063600  0.94504600  0.33584500  1
  P  P9  1  0.63936400  0.44504600  0.16415500  1
  P  P10  1  0.13936400  0.05495400  0.66415500  1
  P  P11  1  0.36063600  0.55495400  0.83584500  1
  P  P12  1  0.64893100  0.84237200  0.09825100  1
  P  P13  1  0.85106900  0.34237200  0.40174900  1
  P  P14  1  0.35106900  0.15762800  0.90174900  1
  P  P15  1  0.14893100  0.65762800  0.59825100  1
  P  P16  1  0.36063600  0.44504600  0.33584500  1
  P  P17  1  0.13936400  0.94504600  0.16415500  1
  P  P18  1  0.63936400  0.55495400  0.66415500  1
  P  P19  1  0.86063600  0.05495400  0.83584500  1
  P  P20  1  0.14893100  0.34237200  0.09825100  1
  P  P21  1  0.35106900  0.84237200  0.40174900  1
  P  P22  1  0.85106900  0.65762800  0.90174900  1
  P  P23  1  0.64893100  0.15762800  0.59825100  1
  O  O24  1  0.88451100  0.78568900  0.45009700  1
  O  O25  1  0.61548900  0.28568900  0.04990300  1
  O  O26  1  0.11548900  0.21431100  0.54990300  1
  O  O27  1  0.38451100  0.71431100  0.95009700  1
  O  O28  1  0.75541250  0.91540850  0.15695100  1
  O  O29  1  0.74458750  0.41540850  0.34304900  1
  O  O30  1  0.24458750  0.08459150  0.84304900  1
  O  O31  1  0.25541250  0.58459150  0.65695100  1
  O  O32  1  0.06775100  0.00703600  0.70356900  1
  O  O33  1  0.93224900  0.00703600  0.79643100  1
  O  O34  1  0.93224900  0.99296400  0.29643100  1
  O  O35  1  0.06775100  0.99296400  0.20356900  1
  O  O36  1  0.84010100  0.12047600  0.41078700  1
  O  O37  1  0.65989900  0.62047600  0.08921300  1
  O  O38  1  0.15989900  0.87952400  0.58921300  1
  O  O39  1  0.34010100  0.37952400  0.91078700  1
  O  O40  1  0.07537550  0.40214450  0.91999100  1
  O  O41  1  0.92462450  0.40214450  0.58000900  1
  O  O42  1  0.92462450  0.59785550  0.08000900  1
  O  O43  1  0.07537550  0.59785550  0.41999100  1
  O  O44  1  0.13032800  0.61492700  0.72389700  1
  O  O45  1  0.36967200  0.11492700  0.77610300  1
  O  O46  1  0.86967200  0.38507300  0.27610300  1
  O  O47  1  0.63032800  0.88507300  0.22389700  1
  O  O48  1  0.38451100  0.28568900  0.45009700  1
  O  O49  1  0.11548900  0.78568900  0.04990300  1
  O  O50  1  0.61548900  0.71431100  0.54990300  1
  O  O51  1  0.88451100  0.21431100  0.95009700  1
  O  O52  1  0.25541250  0.41540850  0.15695100  1
  O  O53  1  0.24458750  0.91540850  0.34304900  1
  O  O54  1  0.74458750  0.58459150  0.84304900  1
  O  O55  1  0.75541250  0.08459150  0.65695100  1
  O  O56  1  0.56775100  0.50703600  0.70356900  1
  O  O57  1  0.43224900  0.50703600  0.79643100  1
  O  O58  1  0.43224900  0.49296400  0.29643100  1
  O  O59  1  0.56775100  0.49296400  0.20356900  1
  O  O60  1  0.34010100  0.62047600  0.41078700  1
  O  O61  1  0.15989900  0.12047600  0.08921300  1
  O  O62  1  0.65989900  0.37952400  0.58921300  1
  O  O63  1  0.84010100  0.87952400  0.91078700  1
  O  O64  1  0.57537550  0.90214450  0.91999100  1
  O  O65  1  0.42462450  0.90214450  0.58000900  1
  O  O66  1  0.42462450  0.09785550  0.08000900  1
  O  O67  1  0.57537550  0.09785550  0.41999100  1
  O  O68  1  0.63032800  0.11492700  0.72389700  1
  O  O69  1  0.86967200  0.61492700  0.77610300  1
  O  O70  1  0.36967200  0.88507300  0.27610300  1
  O  O71  1  0.13032800  0.38507300  0.22389700  1
