# generated using pymatgen
data_SnS
_symmetry_space_group_name_H-M   'P 1'
_cell_length_a   5.82493000
_cell_length_b   5.88606800
_cell_length_c   22.77400700
_cell_angle_alpha   90.00000000
_cell_angle_beta   90.00000000
_cell_angle_gamma   90.00000000
_symmetry_Int_Tables_number   1
_chemical_formula_structural   SnS
_chemical_formula_sum   'Sn4 S4'
_cell_volume   780.82810263
_cell_formula_units_Z   4
loop_
 _symmetry_equiv_pos_site_id
 _symmetry_equiv_pos_as_xyz
  1  'x, y, z'
loop_
 _atom_site_type_symbol
 _atom_site_label
 _atom_site_symmetry_multiplicity
 _atom_site_fract_x
 _atom_site_fract_y
 _atom_site_fract_z
 _atom_site_occupancy
  Sn  Sn0  1  0.25000000  0.99900000  0.56444500  1
  Sn  Sn1  1  0.75000000  0.99900000  0.43555500  1
  Sn  Sn2  1  0.75000000  0.49900000  0.56444500  1
  Sn  Sn3  1  0.25000000  0.49900000  0.43555500  1
  S  S4  1  0.75000000  0.03500000  0.54854000  1
  S  S5  1  0.25000000  0.03500000  0.45146000  1
  S  S6  1  0.25000000  0.53500000  0.54854000  1
  S  S7  1  0.75000000  0.53500000  0.45146000  1
