# generated using pymatgen
data_In2Ag2GeSe6
_symmetry_space_group_name_H-M   'P 1'
_cell_length_a   13.00829000
_cell_length_b   7.68468400
_cell_length_c   12.94660079
_cell_angle_alpha   90.00000000
_cell_angle_beta   109.41199036
_cell_angle_gamma   90.00000000
_symmetry_Int_Tables_number   1
_chemical_formula_structural   In2Ag2GeSe6
_chemical_formula_sum   'In8 Ag8 Ge4 Se24'
_cell_volume   1220.63041975
_cell_formula_units_Z   4
loop_
 _symmetry_equiv_pos_site_id
 _symmetry_equiv_pos_as_xyz
  1  'x, y, z'
loop_
 _atom_site_type_symbol
 _atom_site_label
 _atom_site_symmetry_multiplicity
 _atom_site_fract_x
 _atom_site_fract_y
 _atom_site_fract_z
 _atom_site_occupancy
  In  In0  1  0.90928050  0.59231050  0.06432600  1
  In  In1  1  0.90928050  0.40768950  0.56432600  1
  In  In2  1  0.73053350  0.56426650  0.26212200  1
  In  In3  1  0.73053350  0.43573350  0.76212200  1
  In  In4  1  0.40928050  0.09231050  0.06432600  1
  In  In5  1  0.40928050  0.90768950  0.56432600  1
  In  In6  1  0.23053350  0.06426650  0.26212200  1
  In  In7  1  0.23053350  0.93573350  0.76212200  1
  Ag  Ag8  1  0.39089750  0.59202950  0.25545400  1
  Ag  Ag9  1  0.39089750  0.40797050  0.75545400  1
  Ag  Ag10  1  0.09351150  0.70848350  0.41879900  1
  Ag  Ag11  1  0.09351150  0.29151650  0.91879900  1
  Ag  Ag12  1  0.89089750  0.09202950  0.25545400  1
  Ag  Ag13  1  0.89089750  0.90797050  0.75545400  1
  Ag  Ag14  1  0.59351150  0.20848350  0.41879900  1
  Ag  Ag15  1  0.59351150  0.79151650  0.91879900  1
  Ge  Ge16  1  0.16320950  0.76616150  0.00526000  1
  Ge  Ge17  1  0.16320950  0.23383850  0.50526000  1
  Ge  Ge18  1  0.66320950  0.26616150  0.00526000  1
  Ge  Ge19  1  0.66320950  0.73383850  0.50526000  1
  Se  Se20  1  0.85534350  0.25456150  0.05353600  1
  Se  Se21  1  0.85534350  0.74543850  0.55353600  1
  Se  Se22  1  0.90270650  0.74052250  0.24822500  1
  Se  Se23  1  0.90270650  0.25947750  0.74822500  1
  Se  Se24  1  0.58726750  0.51255150  0.06196500  1
  Se  Se25  1  0.58726750  0.48744850  0.56196500  1
  Se  Se26  1  0.08718150  0.26160150  0.31252100  1
  Se  Se27  1  0.08718150  0.73839850  0.81252100  1
  Se  Se28  1  0.78288050  0.73019550  0.87571700  1
  Se  Se29  1  0.78288050  0.26980450  0.37571700  1
  Se  Se30  1  0.11508700  0.51456400  0.08697600  1
  Se  Se31  1  0.11508700  0.48543600  0.58697600  1
  Se  Se32  1  0.35534350  0.75456150  0.05353600  1
  Se  Se33  1  0.35534350  0.24543850  0.55353600  1
  Se  Se34  1  0.40270650  0.24052250  0.24822500  1
  Se  Se35  1  0.40270650  0.75947750  0.74822500  1
  Se  Se36  1  0.08726750  0.01255150  0.06196500  1
  Se  Se37  1  0.08726750  0.98744850  0.56196500  1
  Se  Se38  1  0.58718150  0.76160150  0.31252100  1
  Se  Se39  1  0.58718150  0.23839850  0.81252100  1
  Se  Se40  1  0.28288050  0.23019550  0.87571700  1
  Se  Se41  1  0.28288050  0.76980450  0.37571700  1
  Se  Se42  1  0.61508700  0.01456400  0.08697600  1
  Se  Se43  1  0.61508700  0.98543600  0.58697600  1
