# generated using pymatgen
data_Ga2Te3(HO2)6
_symmetry_space_group_name_H-M   'P 1'
_cell_length_a   9.55265396
_cell_length_b   9.55265396
_cell_length_c   20.18646460
_cell_angle_alpha   90.00000000
_cell_angle_beta   90.00000000
_cell_angle_gamma   120.00000000
_symmetry_Int_Tables_number   1
_chemical_formula_structural   Ga2Te3(HO2)6
_chemical_formula_sum   'Ga12 Te18 H36 O72'
_cell_volume   1595.28759491
_cell_formula_units_Z   6
loop_
 _symmetry_equiv_pos_site_id
 _symmetry_equiv_pos_as_xyz
  1  'x, y, z'
loop_
 _atom_site_type_symbol
 _atom_site_label
 _atom_site_symmetry_multiplicity
 _atom_site_fract_x
 _atom_site_fract_y
 _atom_site_fract_z
 _atom_site_occupancy
  Ga  Ga0  1  0.33333333  0.66666667  0.75849067  1
  Ga  Ga1  1  0.33333333  0.66666667  0.25849067  1
  Ga  Ga2  1  0.33333333  0.66666667  0.00402467  1
  Ga  Ga3  1  0.33333333  0.66666667  0.50402467  1
  Ga  Ga4  1  0.00000000  0.00000000  0.09182400  1
  Ga  Ga5  1  0.00000000  0.00000000  0.59182400  1
  Ga  Ga6  1  0.00000000  0.00000000  0.33735800  1
  Ga  Ga7  1  0.00000000  0.00000000  0.83735800  1
  Ga  Ga8  1  0.66666667  0.33333333  0.42515733  1
  Ga  Ga9  1  0.66666667  0.33333333  0.92515733  1
  Ga  Ga10  1  0.66666667  0.33333333  0.67069133  1
  Ga  Ga11  1  0.66666667  0.33333333  0.17069133  1
  Te  Te12  1  0.51678867  0.57363033  0.38435533  1
  Te  Te13  1  0.05684167  0.48321133  0.38435533  1
  Te  Te14  1  0.42636967  0.94315833  0.38435533  1
  Te  Te15  1  0.72350833  0.90696367  0.21768867  1
  Te  Te16  1  0.18345533  0.27649167  0.21768867  1
  Te  Te17  1  0.09303633  0.81654467  0.21768867  1
  Te  Te18  1  0.18345533  0.90696367  0.71768867  1
  Te  Te19  1  0.72350833  0.81654467  0.71768867  1
  Te  Te20  1  0.09303633  0.27649167  0.71768867  1
  Te  Te21  1  0.39017500  0.24029700  0.55102200  1
  Te  Te22  1  0.85012200  0.60982500  0.55102200  1
  Te  Te23  1  0.75970300  0.14987800  0.55102200  1
  Te  Te24  1  0.85012200  0.24029700  0.05102200  1
  Te  Te25  1  0.39017500  0.14987800  0.05102200  1
  Te  Te26  1  0.75970300  0.60982500  0.05102200  1
  Te  Te27  1  0.05684167  0.57363033  0.88435533  1
  Te  Te28  1  0.51678867  0.94315833  0.88435533  1
  Te  Te29  1  0.42636967  0.48321133  0.88435533  1
  H  H30  1  0.23652600  0.48029800  0.11186600  1
  H  H31  1  0.24377200  0.76347400  0.11186600  1
  H  H32  1  0.51970200  0.75622800  0.11186600  1
  H  H33  1  0.57710533  0.14696467  0.27853267  1
  H  H34  1  0.56985933  0.42289467  0.27853267  1
  H  H35  1  0.85303533  0.43014067  0.27853267  1
  H  H36  1  0.25464333  0.37169467  0.05470567  1
  H  H37  1  0.11705133  0.74535667  0.05470567  1
  H  H38  1  0.62830533  0.88294867  0.05470567  1
  H  H39  1  0.45038467  0.03836133  0.22137233  1
  H  H40  1  0.58797667  0.54961533  0.22137233  1
  H  H41  1  0.96163867  0.41202333  0.22137233  1
  H  H42  1  0.90319267  0.81363133  0.44519933  1
  H  H43  1  0.91043867  0.09680733  0.44519933  1
  H  H44  1  0.18636867  0.08956133  0.44519933  1
  H  H45  1  0.24377200  0.48029800  0.61186600  1
  H  H46  1  0.23652600  0.75622800  0.61186600  1
  H  H47  1  0.51970200  0.76347400  0.61186600  1
  H  H48  1  0.92131000  0.70502800  0.38803900  1
  H  H49  1  0.78371800  0.07869000  0.38803900  1
  H  H50  1  0.29497200  0.21628200  0.38803900  1
  H  H51  1  0.11705133  0.37169467  0.55470567  1
  H  H52  1  0.25464333  0.88294867  0.55470567  1
  H  H53  1  0.62830533  0.74535667  0.55470567  1
  H  H54  1  0.56985933  0.14696467  0.77853267  1
  H  H55  1  0.57710533  0.43014067  0.77853267  1
  H  H56  1  0.85303533  0.42289467  0.77853267  1
  H  H57  1  0.91043867  0.81363133  0.94519933  1
  H  H58  1  0.90319267  0.08956133  0.94519933  1
  H  H59  1  0.18636867  0.09680733  0.94519933  1
  H  H60  1  0.58797667  0.03836133  0.72137233  1
  H  H61  1  0.45038467  0.41202333  0.72137233  1
  H  H62  1  0.96163867  0.54961533  0.72137233  1
  H  H63  1  0.78371800  0.70502800  0.88803900  1
  H  H64  1  0.92131000  0.21628200  0.88803900  1
  H  H65  1  0.29497200  0.07869000  0.88803900  1
  O  O66  1  0.51299133  0.37226167  0.37021167  1
  O  O67  1  0.85927033  0.48700867  0.37021167  1
  O  O68  1  0.62773833  0.14072967  0.37021167  1
  O  O69  1  0.52593700  0.70559500  0.20354500  1
  O  O70  1  0.17965800  0.47406300  0.20354500  1
  O  O71  1  0.29440500  0.82034200  0.20354500  1
  O  O72  1  0.02737167  0.18327433  0.14823333  1
  O  O73  1  0.15590267  0.97262833  0.14823333  1
  O  O74  1  0.81672567  0.84409733  0.14823333  1
  O  O75  1  0.48923600  0.84994100  0.31490000  1
  O  O76  1  0.36070500  0.51076400  0.31490000  1
  O  O77  1  0.15005900  0.63929500  0.31490000  1
  O  O78  1  0.36210133  0.50796067  0.45399967  1
  O  O79  1  0.14585933  0.63789867  0.45399967  1
  O  O80  1  0.49203933  0.85414067  0.45399967  1
  O  O81  1  0.14585933  0.50796067  0.95399967  1
  O  O82  1  0.36210133  0.85414067  0.95399967  1
  O  O83  1  0.49203933  0.63789867  0.95399967  1
  O  O84  1  0.29295133  0.48453067  0.06990367  1
  O  O85  1  0.19157933  0.70704867  0.06990367  1
  O  O86  1  0.51546933  0.80842067  0.06990367  1
  O  O87  1  0.52491267  0.15119733  0.23657033  1
  O  O88  1  0.62628467  0.47508733  0.23657033  1
  O  O89  1  0.84880267  0.37371533  0.23657033  1
  O  O90  1  0.17965800  0.70559500  0.70354500  1
  O  O91  1  0.52593700  0.82034200  0.70354500  1
  O  O92  1  0.29440500  0.47406300  0.70354500  1
  O  O93  1  0.19260367  0.03892833  0.53687833  1
  O  O94  1  0.84632467  0.80739633  0.53687833  1
  O  O95  1  0.96107167  0.15367533  0.53687833  1
  O  O96  1  0.69403833  0.51660767  0.48156667  1
  O  O97  1  0.82256933  0.30596167  0.48156667  1
  O  O98  1  0.48339233  0.17743067  0.48156667  1
  O  O99  1  0.15590267  0.18327433  0.64823333  1
  O  O100  1  0.02737167  0.84409733  0.64823333  1
  O  O101  1  0.81672567  0.97262833  0.64823333  1
  O  O102  1  0.02876800  0.84129400  0.78733300  1
  O  O103  1  0.81252600  0.97123200  0.78733300  1
  O  O104  1  0.15870600  0.18747400  0.78733300  1
  O  O105  1  0.81252600  0.84129400  0.28733300  1
  O  O106  1  0.02876800  0.18747400  0.28733300  1
  O  O107  1  0.15870600  0.97123200  0.28733300  1
  O  O108  1  0.95961800  0.81786400  0.40323700  1
  O  O109  1  0.85824600  0.04038200  0.40323700  1
  O  O110  1  0.18213600  0.14175400  0.40323700  1
  O  O111  1  0.19157933  0.48453067  0.56990367  1
  O  O112  1  0.29295133  0.80842067  0.56990367  1
  O  O113  1  0.51546933  0.70704867  0.56990367  1
  O  O114  1  0.84632467  0.03892833  0.03687833  1
  O  O115  1  0.19260367  0.15367533  0.03687833  1
  O  O116  1  0.96107167  0.80739633  0.03687833  1
  O  O117  1  0.85927033  0.37226167  0.87021167  1
  O  O118  1  0.51299133  0.14072967  0.87021167  1
  O  O119  1  0.62773833  0.48700867  0.87021167  1
  O  O120  1  0.36070500  0.84994100  0.81490000  1
  O  O121  1  0.48923600  0.63929500  0.81490000  1
  O  O122  1  0.15005900  0.51076400  0.81490000  1
  O  O123  1  0.82256933  0.51660767  0.98156667  1
  O  O124  1  0.69403833  0.17743067  0.98156667  1
  O  O125  1  0.48339233  0.30596167  0.98156667  1
  O  O126  1  0.69543467  0.17462733  0.12066633  1
  O  O127  1  0.47919267  0.30456533  0.12066633  1
  O  O128  1  0.82537267  0.52080733  0.12066633  1
  O  O129  1  0.47919267  0.17462733  0.62066633  1
  O  O130  1  0.69543467  0.52080733  0.62066633  1
  O  O131  1  0.82537267  0.30456533  0.62066633  1
  O  O132  1  0.62628467  0.15119733  0.73657033  1
  O  O133  1  0.52491267  0.37371533  0.73657033  1
  O  O134  1  0.84880267  0.47508733  0.73657033  1
  O  O135  1  0.85824600  0.81786400  0.90323700  1
  O  O136  1  0.95961800  0.14175400  0.90323700  1
  O  O137  1  0.18213600  0.04038200  0.90323700  1
