# generated using pymatgen
data_SiO2
_symmetry_space_group_name_H-M   'P 1'
_cell_length_a   5.06647700
_cell_length_b   5.08370200
_cell_length_c   7.04176700
_cell_angle_alpha   90.00000000
_cell_angle_beta   90.00000000
_cell_angle_gamma   90.00000000
_symmetry_Int_Tables_number   1
_chemical_formula_structural   SiO2
_chemical_formula_sum   'Si4 O8'
_cell_volume   181.37098484
_cell_formula_units_Z   4
loop_
 _symmetry_equiv_pos_site_id
 _symmetry_equiv_pos_as_xyz
  1  'x, y, z'
loop_
 _atom_site_type_symbol
 _atom_site_label
 _atom_site_symmetry_multiplicity
 _atom_site_fract_x
 _atom_site_fract_y
 _atom_site_fract_z
 _atom_site_occupancy
  Si  Si0  1  0.99956500  0.04535500  0.62482300  1
  Si  Si1  1  0.49956500  0.45464500  0.12482300  1
  Si  Si2  1  0.49956500  0.95464500  0.37517700  1
  Si  Si3  1  0.99956500  0.54535500  0.87517700  1
  O  O4  1  0.44751000  0.65606000  0.30078500  1
  O  O5  1  0.94751000  0.34394000  0.69921500  1
  O  O6  1  0.44751000  0.15606000  0.19921500  1
  O  O7  1  0.30293500  0.51578200  0.94795000  1
  O  O8  1  0.80293500  0.98421800  0.44795000  1
  O  O9  1  0.94751000  0.84394000  0.80078500  1
  O  O10  1  0.30293500  0.01578200  0.55205000  1
  O  O11  1  0.80293500  0.48421800  0.05205000  1
