# generated using pymatgen
data_BeSO4
_symmetry_space_group_name_H-M   'P 1'
_cell_length_a   4.59680000
_cell_length_b   4.59680000
_cell_length_c   6.96725800
_cell_angle_alpha   90.00000000
_cell_angle_beta   90.00000000
_cell_angle_gamma   90.00000000
_symmetry_Int_Tables_number   1
_chemical_formula_structural   BeSO4
_chemical_formula_sum   'Be2 S2 O8'
_cell_volume   147.22213455
_cell_formula_units_Z   2
loop_
 _symmetry_equiv_pos_site_id
 _symmetry_equiv_pos_as_xyz
  1  'x, y, z'
loop_
 _atom_site_type_symbol
 _atom_site_label
 _atom_site_symmetry_multiplicity
 _atom_site_fract_x
 _atom_site_fract_y
 _atom_site_fract_z
 _atom_site_occupancy
  Be  Be0  1  0.50000000  0.00000000  0.25000000  1
  Be  Be1  1  0.00000000  0.50000000  0.75000000  1
  S  S2  1  0.00000000  0.00000000  0.00000000  1
  S  S3  1  0.50000000  0.50000000  0.50000000  1
  O  O4  1  0.37308950  0.26602150  0.38018750  1
  O  O5  1  0.23397850  0.87308950  0.11981250  1
  O  O6  1  0.62691050  0.73397850  0.38018750  1
  O  O7  1  0.76602150  0.12691050  0.11981250  1
  O  O8  1  0.87308950  0.76602150  0.88018750  1
  O  O9  1  0.73397850  0.37308950  0.61981250  1
  O  O10  1  0.12691050  0.23397850  0.88018750  1
  O  O11  1  0.26602150  0.62691050  0.61981250  1
