# generated using pymatgen
data_Ba17Ho16Zn8Pt4O57
_symmetry_space_group_name_H-M   'P 1'
_cell_length_a   23.08374000
_cell_length_b   23.08374000
_cell_length_c   5.75533400
_cell_angle_alpha   90.00000000
_cell_angle_beta   90.00000000
_cell_angle_gamma   90.00000000
_symmetry_Int_Tables_number   1
_chemical_formula_structural   Ba17Ho16Zn8Pt4O57
_chemical_formula_sum   'Ba34 Ho32 Zn16 Pt8 O114'
_cell_volume   3066.78182141
_cell_formula_units_Z   2
loop_
 _symmetry_equiv_pos_site_id
 _symmetry_equiv_pos_as_xyz
  1  'x, y, z'
loop_
 _atom_site_type_symbol
 _atom_site_label
 _atom_site_symmetry_multiplicity
 _atom_site_fract_x
 _atom_site_fract_y
 _atom_site_fract_z
 _atom_site_occupancy
  Ba  Ba0  1  0.27639650  0.88810650  0.00000000  1
  Ba  Ba1  1  0.44177850  0.93228650  0.00000000  1
  Ba  Ba2  1  0.35053450  0.34212850  0.00000000  1
  Ba  Ba3  1  0.31091750  0.76775750  0.50000000  1
  Ba  Ba4  1  0.73224250  0.81091750  0.00000000  1
  Ba  Ba5  1  0.43228650  0.05822150  0.50000000  1
  Ba  Ba6  1  0.38810650  0.22360350  0.50000000  1
  Ba  Ba7  1  0.84212850  0.14946550  0.50000000  1
  Ba  Ba8  1  0.61189350  0.77639650  0.50000000  1
  Ba  Ba9  1  0.15787150  0.85053450  0.50000000  1
  Ba  Ba10  1  0.26775750  0.18908250  0.00000000  1
  Ba  Ba11  1  0.55822150  0.06771350  0.00000000  1
  Ba  Ba12  1  0.68908250  0.23224250  0.50000000  1
  Ba  Ba13  1  0.64946550  0.65787150  0.00000000  1
  Ba  Ba14  1  0.56771350  0.94177850  0.50000000  1
  Ba  Ba15  1  0.00000000  0.00000000  0.00000000  1
  Ba  Ba16  1  0.72360350  0.11189350  0.00000000  1
  Ba  Ba17  1  0.77639650  0.38810650  0.50000000  1
  Ba  Ba18  1  0.94177850  0.43228650  0.50000000  1
  Ba  Ba19  1  0.85053450  0.84212850  0.50000000  1
  Ba  Ba20  1  0.81091750  0.26775750  0.00000000  1
  Ba  Ba21  1  0.23224250  0.31091750  0.50000000  1
  Ba  Ba22  1  0.93228650  0.55822150  0.00000000  1
  Ba  Ba23  1  0.88810650  0.72360350  0.00000000  1
  Ba  Ba24  1  0.34212850  0.64946550  0.00000000  1
  Ba  Ba25  1  0.11189350  0.27639650  0.00000000  1
  Ba  Ba26  1  0.65787150  0.35053450  0.00000000  1
  Ba  Ba27  1  0.76775750  0.68908250  0.50000000  1
  Ba  Ba28  1  0.05822150  0.56771350  0.50000000  1
  Ba  Ba29  1  0.18908250  0.73224250  0.00000000  1
  Ba  Ba30  1  0.14946550  0.15787150  0.50000000  1
  Ba  Ba31  1  0.06771350  0.44177850  0.00000000  1
  Ba  Ba32  1  0.50000000  0.50000000  0.50000000  1
  Ba  Ba33  1  0.22360350  0.61189350  0.50000000  1
  Ho  Ho34  1  0.49375550  0.25072150  0.00000000  1
  Ho  Ho35  1  0.44777250  0.67184750  0.50000000  1
  Ho  Ho36  1  0.54960750  0.17409550  0.50000000  1
  Ho  Ho37  1  0.55222750  0.32815250  0.50000000  1
  Ho  Ho38  1  0.51145450  0.59954050  0.00000000  1
  Ho  Ho39  1  0.32590450  0.04960750  0.00000000  1
  Ho  Ho40  1  0.09954050  0.98854550  0.50000000  1
  Ho  Ho41  1  0.24927850  0.99375550  0.50000000  1
  Ho  Ho42  1  0.45039250  0.82590450  0.50000000  1
  Ho  Ho43  1  0.82815250  0.94777250  0.00000000  1
  Ho  Ho44  1  0.90045950  0.01145450  0.50000000  1
  Ho  Ho45  1  0.48854550  0.40045950  0.00000000  1
  Ho  Ho46  1  0.50624450  0.74927850  0.00000000  1
  Ho  Ho47  1  0.75072150  0.00624450  0.50000000  1
  Ho  Ho48  1  0.67409550  0.95039250  0.00000000  1
  Ho  Ho49  1  0.17184750  0.05222750  0.00000000  1
  Ho  Ho50  1  0.99375550  0.75072150  0.50000000  1
  Ho  Ho51  1  0.94777250  0.17184750  0.00000000  1
  Ho  Ho52  1  0.04960750  0.67409550  0.00000000  1
  Ho  Ho53  1  0.05222750  0.82815250  0.00000000  1
  Ho  Ho54  1  0.01145450  0.09954050  0.50000000  1
  Ho  Ho55  1  0.82590450  0.54960750  0.50000000  1
  Ho  Ho56  1  0.59954050  0.48854550  0.00000000  1
  Ho  Ho57  1  0.74927850  0.49375550  0.00000000  1
  Ho  Ho58  1  0.95039250  0.32590450  0.00000000  1
  Ho  Ho59  1  0.32815250  0.44777250  0.50000000  1
  Ho  Ho60  1  0.40045950  0.51145450  0.00000000  1
  Ho  Ho61  1  0.98854550  0.90045950  0.50000000  1
  Ho  Ho62  1  0.00624450  0.24927850  0.50000000  1
  Ho  Ho63  1  0.25072150  0.50624450  0.00000000  1
  Ho  Ho64  1  0.17409550  0.45039250  0.50000000  1
  Ho  Ho65  1  0.67184750  0.55222750  0.50000000  1
  Zn  Zn66  1  0.62058250  0.21224950  0.00000000  1
  Zn  Zn67  1  0.71224950  0.87941750  0.50000000  1
  Zn  Zn68  1  0.42439050  0.36667750  0.50000000  1
  Zn  Zn69  1  0.13332250  0.92439050  0.00000000  1
  Zn  Zn70  1  0.37941750  0.78775050  0.00000000  1
  Zn  Zn71  1  0.86667750  0.07560950  0.00000000  1
  Zn  Zn72  1  0.57560950  0.63332250  0.50000000  1
  Zn  Zn73  1  0.28775050  0.12058250  0.50000000  1
  Zn  Zn74  1  0.12058250  0.71224950  0.50000000  1
  Zn  Zn75  1  0.21224950  0.37941750  0.00000000  1
  Zn  Zn76  1  0.92439050  0.86667750  0.00000000  1
  Zn  Zn77  1  0.63332250  0.42439050  0.50000000  1
  Zn  Zn78  1  0.87941750  0.28775050  0.50000000  1
  Zn  Zn79  1  0.36667750  0.57560950  0.50000000  1
  Zn  Zn80  1  0.07560950  0.13332250  0.00000000  1
  Zn  Zn81  1  0.78775050  0.62058250  0.00000000  1
  Pt  Pt82  1  0.58273950  0.85567750  0.00000000  1
  Pt  Pt83  1  0.41726050  0.14432250  0.00000000  1
  Pt  Pt84  1  0.35567750  0.91726050  0.50000000  1
  Pt  Pt85  1  0.64432250  0.08273950  0.50000000  1
  Pt  Pt86  1  0.08273950  0.35567750  0.50000000  1
  Pt  Pt87  1  0.91726050  0.64432250  0.50000000  1
  Pt  Pt88  1  0.85567750  0.41726050  0.00000000  1
  Pt  Pt89  1  0.14432250  0.58273950  0.00000000  1
  O  O90  1  0.73941150  0.79899350  0.50000000  1
  O  O91  1  0.39238050  0.23137850  0.00000000  1
  O  O92  1  0.47814300  0.16752800  0.75830400  1
  O  O93  1  0.47814300  0.16752800  0.24169600  1
  O  O94  1  0.17558350  0.97264050  0.75059550  1
  O  O95  1  0.44521150  0.93521250  0.50000000  1
  O  O96  1  0.26862150  0.89238050  0.50000000  1
  O  O97  1  0.35573650  0.12309150  0.75618050  1
  O  O98  1  0.60761950  0.76862150  0.00000000  1
  O  O99  1  0.24739950  0.07134750  0.75199050  1
  O  O100  1  0.84072650  0.15753450  0.00000000  1
  O  O101  1  0.73137850  0.10761950  0.50000000  1
  O  O102  1  0.52185700  0.83247200  0.75830400  1
  O  O103  1  0.08970500  0.06517500  0.74895500  1
  O  O104  1  0.82441650  0.02735950  0.24940450  1
  O  O105  1  0.43482500  0.58970500  0.75104500  1
  O  O106  1  0.70100650  0.23941150  0.00000000  1
  O  O107  1  0.52735950  0.67558350  0.25059550  1
  O  O108  1  0.56517500  0.41029500  0.75104500  1
  O  O109  1  0.29899350  0.76058850  0.00000000  1
  O  O110  1  0.15927350  0.84246550  0.00000000  1
  O  O111  1  0.91029500  0.93482500  0.25104500  1
  O  O112  1  0.43521250  0.05478850  0.00000000  1
  O  O113  1  0.34246550  0.34072650  0.50000000  1
  O  O114  1  0.66752800  0.02185700  0.74169600  1
  O  O115  1  0.52185700  0.83247200  0.24169600  1
  O  O116  1  0.75260050  0.92865250  0.75199050  1
  O  O117  1  0.66752800  0.02185700  0.25830400  1
  O  O118  1  0.08970500  0.06517500  0.25104500  1
  O  O119  1  0.42865250  0.74739950  0.25199050  1
  O  O120  1  0.64426350  0.87690850  0.75618050  1
  O  O121  1  0.75260050  0.92865250  0.24800950  1
  O  O122  1  0.43482500  0.58970500  0.24895500  1
  O  O123  1  0.17558350  0.97264050  0.24940450  1
  O  O124  1  0.57134750  0.25260050  0.74800950  1
  O  O125  1  0.56478750  0.94521150  0.00000000  1
  O  O126  1  0.24739950  0.07134750  0.24800950  1
  O  O127  1  0.42865250  0.74739950  0.74800950  1
  O  O128  1  0.47264050  0.32441650  0.74940450  1
  O  O129  1  0.37690850  0.85573650  0.74381950  1
  O  O130  1  0.00000000  0.00000000  0.50000000  1
  O  O131  1  0.35573650  0.12309150  0.24381950  1
  O  O132  1  0.62309150  0.14426350  0.25618050  1
  O  O133  1  0.91029500  0.93482500  0.74895500  1
  O  O134  1  0.64426350  0.87690850  0.24381950  1
  O  O135  1  0.26058850  0.20100650  0.50000000  1
  O  O136  1  0.82441650  0.02735950  0.75059550  1
  O  O137  1  0.62309150  0.14426350  0.74381950  1
  O  O138  1  0.56517500  0.41029500  0.24895500  1
  O  O139  1  0.37690850  0.85573650  0.25618050  1
  O  O140  1  0.57134750  0.25260050  0.25199050  1
  O  O141  1  0.65753450  0.65927350  0.50000000  1
  O  O142  1  0.33247200  0.97814300  0.25830400  1
  O  O143  1  0.52735950  0.67558350  0.74940450  1
  O  O144  1  0.55478850  0.06478750  0.50000000  1
  O  O145  1  0.33247200  0.97814300  0.74169600  1
  O  O146  1  0.47264050  0.32441650  0.25059550  1
  O  O147  1  0.23941150  0.29899350  0.00000000  1
  O  O148  1  0.89238050  0.73137850  0.50000000  1
  O  O149  1  0.97814300  0.66752800  0.25830400  1
  O  O150  1  0.97814300  0.66752800  0.74169600  1
  O  O151  1  0.67558350  0.47264050  0.25059550  1
  O  O152  1  0.94521150  0.43521250  0.00000000  1
  O  O153  1  0.76862150  0.39238050  0.00000000  1
  O  O154  1  0.85573650  0.62309150  0.25618050  1
  O  O155  1  0.10761950  0.26862150  0.50000000  1
  O  O156  1  0.74739950  0.57134750  0.25199050  1
  O  O157  1  0.34072650  0.65753450  0.50000000  1
  O  O158  1  0.23137850  0.60761950  0.00000000  1
  O  O159  1  0.02185700  0.33247200  0.25830400  1
  O  O160  1  0.58970500  0.56517500  0.24895500  1
  O  O161  1  0.32441650  0.52735950  0.74940450  1
  O  O162  1  0.93482500  0.08970500  0.25104500  1
  O  O163  1  0.20100650  0.73941150  0.50000000  1
  O  O164  1  0.02735950  0.17558350  0.75059550  1
  O  O165  1  0.06517500  0.91029500  0.25104500  1
  O  O166  1  0.79899350  0.26058850  0.50000000  1
  O  O167  1  0.65927350  0.34246550  0.50000000  1
  O  O168  1  0.41029500  0.43482500  0.75104500  1
  O  O169  1  0.93521250  0.55478850  0.50000000  1
  O  O170  1  0.84246550  0.84072650  0.00000000  1
  O  O171  1  0.16752800  0.52185700  0.24169600  1
  O  O172  1  0.02185700  0.33247200  0.74169600  1
  O  O173  1  0.25260050  0.42865250  0.25199050  1
  O  O174  1  0.16752800  0.52185700  0.75830400  1
  O  O175  1  0.58970500  0.56517500  0.75104500  1
  O  O176  1  0.92865250  0.24739950  0.75199050  1
  O  O177  1  0.14426350  0.37690850  0.25618050  1
  O  O178  1  0.25260050  0.42865250  0.74800950  1
  O  O179  1  0.93482500  0.08970500  0.74895500  1
  O  O180  1  0.67558350  0.47264050  0.74940450  1
  O  O181  1  0.07134750  0.75260050  0.24800950  1
  O  O182  1  0.06478750  0.44521150  0.50000000  1
  O  O183  1  0.74739950  0.57134750  0.74800950  1
  O  O184  1  0.92865250  0.24739950  0.24800950  1
  O  O185  1  0.97264050  0.82441650  0.24940450  1
  O  O186  1  0.87690850  0.35573650  0.24381950  1
  O  O187  1  0.50000000  0.50000000  0.00000000  1
  O  O188  1  0.85573650  0.62309150  0.74381950  1
  O  O189  1  0.12309150  0.64426350  0.75618050  1
  O  O190  1  0.41029500  0.43482500  0.24895500  1
  O  O191  1  0.14426350  0.37690850  0.74381950  1
  O  O192  1  0.76058850  0.70100650  0.00000000  1
  O  O193  1  0.32441650  0.52735950  0.25059550  1
  O  O194  1  0.12309150  0.64426350  0.24381950  1
  O  O195  1  0.06517500  0.91029500  0.74895500  1
  O  O196  1  0.87690850  0.35573650  0.75618050  1
  O  O197  1  0.07134750  0.75260050  0.75199050  1
  O  O198  1  0.15753450  0.15927350  0.00000000  1
  O  O199  1  0.83247200  0.47814300  0.75830400  1
  O  O200  1  0.02735950  0.17558350  0.24940450  1
  O  O201  1  0.05478850  0.56478750  0.00000000  1
  O  O202  1  0.83247200  0.47814300  0.24169600  1
  O  O203  1  0.97264050  0.82441650  0.75059550  1
