# generated using pymatgen
data_PtCI2O
_symmetry_space_group_name_H-M   'P 1'
_cell_length_a   11.18257200
_cell_length_b   9.58831400
_cell_length_c   13.73510324
_cell_angle_alpha   90.00000000
_cell_angle_beta   113.18514726
_cell_angle_gamma   90.00000000
_symmetry_Int_Tables_number   1
_chemical_formula_structural   PtCI2O
_chemical_formula_sum   'Pt8 C8 I16 O8'
_cell_volume   1353.76592652
_cell_formula_units_Z   8
loop_
 _symmetry_equiv_pos_site_id
 _symmetry_equiv_pos_as_xyz
  1  'x, y, z'
loop_
 _atom_site_type_symbol
 _atom_site_label
 _atom_site_symmetry_multiplicity
 _atom_site_fract_x
 _atom_site_fract_y
 _atom_site_fract_z
 _atom_site_occupancy
  Pt  Pt0  1  0.17376600  0.08080800  0.07920400  1
  Pt  Pt1  1  0.32623400  0.41919200  0.92079600  1
  Pt  Pt2  1  0.82623400  0.08080800  0.42079600  1
  Pt  Pt3  1  0.67376600  0.41919200  0.57920400  1
  Pt  Pt4  1  0.67376600  0.58080800  0.07920400  1
  Pt  Pt5  1  0.82623400  0.91919200  0.92079600  1
  Pt  Pt6  1  0.32623400  0.58080800  0.42079600  1
  Pt  Pt7  1  0.17376600  0.91919200  0.57920400  1
  C  C8  1  0.65695350  0.06099950  0.41244600  1
  C  C9  1  0.34304650  0.06099950  0.08755400  1
  C  C10  1  0.15695350  0.43900050  0.91244600  1
  C  C11  1  0.84304650  0.43900050  0.58755400  1
  C  C12  1  0.15695350  0.56099950  0.41244600  1
  C  C13  1  0.84304650  0.56099950  0.08755400  1
  C  C14  1  0.65695350  0.93900050  0.91244600  1
  C  C15  1  0.34304650  0.93900050  0.58755400  1
  I  I16  1  0.24844700  0.78305200  0.27895900  1
  I  I17  1  0.56692150  0.61082950  0.42909100  1
  I  I18  1  0.75155300  0.78305200  0.22104100  1
  I  I19  1  0.43307850  0.61082950  0.07090900  1
  I  I20  1  0.25155300  0.71694800  0.72104100  1
  I  I21  1  0.74844700  0.71694800  0.77895900  1
  I  I22  1  0.06692150  0.88917050  0.92909100  1
  I  I23  1  0.93307850  0.88917050  0.57090900  1
  I  I24  1  0.74844700  0.28305200  0.27895900  1
  I  I25  1  0.06692150  0.11082950  0.42909100  1
  I  I26  1  0.25155300  0.28305200  0.22104100  1
  I  I27  1  0.93307850  0.11082950  0.07090900  1
  I  I28  1  0.75155300  0.21694800  0.72104100  1
  I  I29  1  0.24844700  0.21694800  0.77895900  1
  I  I30  1  0.56692150  0.38917050  0.92909100  1
  I  I31  1  0.43307850  0.38917050  0.57090900  1
  O  O32  1  0.05145550  0.45149750  0.90609200  1
  O  O33  1  0.94854450  0.45149750  0.59390800  1
  O  O34  1  0.44854450  0.04850250  0.09390800  1
  O  O35  1  0.55145550  0.04850250  0.40609200  1
  O  O36  1  0.55145550  0.95149750  0.90609200  1
  O  O37  1  0.44854450  0.95149750  0.59390800  1
  O  O38  1  0.94854450  0.54850250  0.09390800  1
  O  O39  1  0.05145550  0.54850250  0.40609200  1
