# generated using pymatgen
data_Na2Cu2TeO6
_symmetry_space_group_name_H-M   'P 1'
_cell_length_a   5.86327765
_cell_length_b   8.76367951
_cell_length_c   6.04133806
_cell_angle_alpha   90.00000000
_cell_angle_beta   114.92418573
_cell_angle_gamma   90.00000000
_symmetry_Int_Tables_number   1
_chemical_formula_structural   Na2Cu2TeO6
_chemical_formula_sum   'Na4 Cu4 Te2 O12'
_cell_volume   281.51614326
_cell_formula_units_Z   2
loop_
 _symmetry_equiv_pos_site_id
 _symmetry_equiv_pos_as_xyz
  1  'x, y, z'
loop_
 _atom_site_type_symbol
 _atom_site_label
 _atom_site_symmetry_multiplicity
 _atom_site_fract_x
 _atom_site_fract_y
 _atom_site_fract_z
 _atom_site_occupancy
  Na  Na0  1  0.50000000  0.31566650  0.50000000  1
  Na  Na1  1  0.50000000  0.68433350  0.50000000  1
  Na  Na2  1  0.00000000  0.81566650  0.50000000  1
  Na  Na3  1  0.00000000  0.18433350  0.50000000  1
  Cu  Cu4  1  0.50000000  0.83494850  0.00000000  1
  Cu  Cu5  1  0.50000000  0.16505150  0.00000000  1
  Cu  Cu6  1  0.00000000  0.33494850  0.00000000  1
  Cu  Cu7  1  0.00000000  0.66505150  0.00000000  1
  Te  Te8  1  0.50000000  0.50000000  0.00000000  1
  Te  Te9  1  0.00000000  0.00000000  0.00000000  1
  O  O10  1  0.24323850  0.00000000  0.84062300  1
  O  O11  1  0.81114050  0.83580950  0.78374900  1
  O  O12  1  0.75676150  0.00000000  0.15937700  1
  O  O13  1  0.81114050  0.16419050  0.78374900  1
  O  O14  1  0.18885950  0.16419050  0.21625100  1
  O  O15  1  0.18885950  0.83580950  0.21625100  1
  O  O16  1  0.74323850  0.50000000  0.84062300  1
  O  O17  1  0.31114050  0.33580950  0.78374900  1
  O  O18  1  0.25676150  0.50000000  0.15937700  1
  O  O19  1  0.31114050  0.66419050  0.78374900  1
  O  O20  1  0.68885950  0.66419050  0.21625100  1
  O  O21  1  0.68885950  0.33580950  0.21625100  1
