# generated using pymatgen
data_Nd2TeO2
_symmetry_space_group_name_H-M   'P 1'
_cell_length_a   4.07424400
_cell_length_b   4.07424400
_cell_length_c   13.00215200
_cell_angle_alpha   90.00000000
_cell_angle_beta   90.00000000
_cell_angle_gamma   90.00000000
_symmetry_Int_Tables_number   1
_chemical_formula_structural   Nd2TeO2
_chemical_formula_sum   'Nd4 Te2 O4'
_cell_volume   215.82875628
_cell_formula_units_Z   2
loop_
 _symmetry_equiv_pos_site_id
 _symmetry_equiv_pos_as_xyz
  1  'x, y, z'
loop_
 _atom_site_type_symbol
 _atom_site_label
 _atom_site_symmetry_multiplicity
 _atom_site_fract_x
 _atom_site_fract_y
 _atom_site_fract_z
 _atom_site_occupancy
  Nd  Nd0  1  0.50000000  0.50000000  0.16013300  1
  Nd  Nd1  1  0.00000000  0.00000000  0.33986700  1
  Nd  Nd2  1  0.00000000  0.00000000  0.66013300  1
  Nd  Nd3  1  0.50000000  0.50000000  0.83986700  1
  Te  Te4  1  0.00000000  0.00000000  0.00000000  1
  Te  Te5  1  0.50000000  0.50000000  0.50000000  1
  O  O6  1  0.00000000  0.50000000  0.25000000  1
  O  O7  1  0.50000000  0.00000000  0.25000000  1
  O  O8  1  0.50000000  0.00000000  0.75000000  1
  O  O9  1  0.00000000  0.50000000  0.75000000  1
