# generated using pymatgen
data_ZrTlCdF7
_symmetry_space_group_name_H-M   'P 1'
_cell_length_a   6.94365000
_cell_length_b   11.32818400
_cell_length_c   8.65134500
_cell_angle_alpha   90.00000000
_cell_angle_beta   90.00000000
_cell_angle_gamma   90.00000000
_symmetry_Int_Tables_number   1
_chemical_formula_structural   ZrTlCdF7
_chemical_formula_sum   'Zr4 Tl4 Cd4 F28'
_cell_volume   680.50566907
_cell_formula_units_Z   4
loop_
 _symmetry_equiv_pos_site_id
 _symmetry_equiv_pos_as_xyz
  1  'x, y, z'
loop_
 _atom_site_type_symbol
 _atom_site_label
 _atom_site_symmetry_multiplicity
 _atom_site_fract_x
 _atom_site_fract_y
 _atom_site_fract_z
 _atom_site_occupancy
  Zr  Zr0  1  0.50000000  0.30869100  0.75000000  1
  Zr  Zr1  1  0.50000000  0.69130900  0.25000000  1
  Zr  Zr2  1  0.00000000  0.80869100  0.75000000  1
  Zr  Zr3  1  0.00000000  0.19130900  0.25000000  1
  Tl  Tl4  1  0.50000000  0.00000000  0.50000000  1
  Tl  Tl5  1  0.50000000  0.00000000  0.00000000  1
  Tl  Tl6  1  0.00000000  0.50000000  0.50000000  1
  Tl  Tl7  1  0.00000000  0.50000000  0.00000000  1
  Cd  Cd8  1  0.50000000  0.69201200  0.75000000  1
  Cd  Cd9  1  0.50000000  0.30798800  0.25000000  1
  Cd  Cd10  1  0.00000000  0.19201200  0.75000000  1
  Cd  Cd11  1  0.00000000  0.80798800  0.25000000  1
  F  F12  1  0.50000000  0.70093600  0.48634800  1
  F  F13  1  0.70444850  0.85939150  0.75000000  1
  F  F14  1  0.29555150  0.85939150  0.75000000  1
  F  F15  1  0.29555150  0.14060850  0.25000000  1
  F  F16  1  0.50000000  0.70093600  0.01365200  1
  F  F17  1  0.50000000  0.29906400  0.51365200  1
  F  F18  1  0.67674100  0.84659300  0.25000000  1
  F  F19  1  0.32325900  0.84659300  0.25000000  1
  F  F20  1  0.70444850  0.14060850  0.25000000  1
  F  F21  1  0.67674100  0.15340700  0.75000000  1
  F  F22  1  0.50000000  0.29906400  0.98634800  1
  F  F23  1  0.32325900  0.15340700  0.75000000  1
  F  F24  1  0.50000000  0.49060500  0.75000000  1
  F  F25  1  0.50000000  0.50939500  0.25000000  1
  F  F26  1  0.00000000  0.20093600  0.48634800  1
  F  F27  1  0.20444850  0.35939150  0.75000000  1
  F  F28  1  0.79555150  0.35939150  0.75000000  1
  F  F29  1  0.79555150  0.64060850  0.25000000  1
  F  F30  1  0.00000000  0.20093600  0.01365200  1
  F  F31  1  0.00000000  0.79906400  0.51365200  1
  F  F32  1  0.17674100  0.34659300  0.25000000  1
  F  F33  1  0.82325900  0.34659300  0.25000000  1
  F  F34  1  0.20444850  0.64060850  0.25000000  1
  F  F35  1  0.17674100  0.65340700  0.75000000  1
  F  F36  1  0.00000000  0.79906400  0.98634800  1
  F  F37  1  0.82325900  0.65340700  0.75000000  1
  F  F38  1  0.00000000  0.99060500  0.75000000  1
  F  F39  1  0.00000000  0.00939500  0.25000000  1
