# generated using pymatgen
data_Na2Zr(CuS2)2
_symmetry_space_group_name_H-M   'P 1'
_cell_length_a   13.74455600
_cell_length_b   3.74046200
_cell_length_c   7.08947700
_cell_angle_alpha   90.00000000
_cell_angle_beta   112.32662963
_cell_angle_gamma   90.00000000
_symmetry_Int_Tables_number   1
_chemical_formula_structural   Na2Zr(CuS2)2
_chemical_formula_sum   'Na4 Zr2 Cu4 S8'
_cell_volume   337.15337147
_cell_formula_units_Z   2
loop_
 _symmetry_equiv_pos_site_id
 _symmetry_equiv_pos_as_xyz
  1  'x, y, z'
loop_
 _atom_site_type_symbol
 _atom_site_label
 _atom_site_symmetry_multiplicity
 _atom_site_fract_x
 _atom_site_fract_y
 _atom_site_fract_z
 _atom_site_occupancy
  Na  Na0  1  0.36147500  0.50000000  0.44040600  1
  Na  Na1  1  0.13852500  0.00000000  0.55959400  1
  Na  Na2  1  0.86147500  0.00000000  0.44040600  1
  Na  Na3  1  0.63852500  0.50000000  0.55959400  1
  Zr  Zr4  1  0.00000000  0.00000000  0.00000000  1
  Zr  Zr5  1  0.50000000  0.50000000  0.00000000  1
  Cu  Cu6  1  0.32125100  0.00000000  0.01361900  1
  Cu  Cu7  1  0.17874900  0.50000000  0.98638100  1
  Cu  Cu8  1  0.82125100  0.50000000  0.01361900  1
  Cu  Cu9  1  0.67874900  0.00000000  0.98638100  1
  S  S10  1  0.29580600  0.50000000  0.79884100  1
  S  S11  1  0.20419400  0.00000000  0.20115900  1
  S  S12  1  0.49012000  0.00000000  0.24878200  1
  S  S13  1  0.00988000  0.50000000  0.75121800  1
  S  S14  1  0.79580600  0.00000000  0.79884100  1
  S  S15  1  0.70419400  0.50000000  0.20115900  1
  S  S16  1  0.99012000  0.50000000  0.24878200  1
  S  S17  1  0.50988000  0.00000000  0.75121800  1
