# generated using pymatgen
data_BaNaFe2F9
_symmetry_space_group_name_H-M   'P 1'
_cell_length_a   5.58282200
_cell_length_b   17.76703500
_cell_length_c   9.12518202
_cell_angle_alpha   90.00000000
_cell_angle_beta   125.38997808
_cell_angle_gamma   90.00000000
_symmetry_Int_Tables_number   1
_chemical_formula_structural   BaNaFe2F9
_chemical_formula_sum   'Ba4 Na4 Fe8 F36'
_cell_volume   737.88715990
_cell_formula_units_Z   4
loop_
 _symmetry_equiv_pos_site_id
 _symmetry_equiv_pos_as_xyz
  1  'x, y, z'
loop_
 _atom_site_type_symbol
 _atom_site_label
 _atom_site_symmetry_multiplicity
 _atom_site_fract_x
 _atom_site_fract_y
 _atom_site_fract_z
 _atom_site_occupancy
  Ba  Ba0  1  0.34711800  0.28621000  0.06394000  1
  Ba  Ba1  1  0.65288200  0.78621000  0.43606000  1
  Ba  Ba2  1  0.65288200  0.71379000  0.93606000  1
  Ba  Ba3  1  0.34711800  0.21379000  0.56394000  1
  Na  Na4  1  0.53378400  0.03718900  0.29700900  1
  Na  Na5  1  0.46621600  0.53718900  0.20299100  1
  Na  Na6  1  0.53378400  0.46281100  0.79700900  1
  Na  Na7  1  0.46621600  0.96281100  0.70299100  1
  Fe  Fe8  1  0.01303100  0.41867500  0.27012400  1
  Fe  Fe9  1  0.18800600  0.87670600  0.91027300  1
  Fe  Fe10  1  0.81199400  0.12329400  0.08972700  1
  Fe  Fe11  1  0.18800600  0.62329400  0.41027300  1
  Fe  Fe12  1  0.01303100  0.08132500  0.77012400  1
  Fe  Fe13  1  0.98696900  0.58132500  0.72987600  1
  Fe  Fe14  1  0.81199400  0.37670600  0.58972700  1
  Fe  Fe15  1  0.98696900  0.91867500  0.22987600  1
  F  F16  1  0.82549800  0.06832900  0.90415400  1
  F  F17  1  0.17450200  0.56832900  0.59584600  1
  F  F18  1  0.17450200  0.93167100  0.09584600  1
  F  F19  1  0.82549800  0.43167100  0.40415400  1
  F  F20  1  0.60998900  0.20687100  0.93121000  1
  F  F21  1  0.39001100  0.70687100  0.56879000  1
  F  F22  1  0.39001100  0.79312900  0.06879000  1
  F  F23  1  0.60998900  0.29312900  0.43121000  1
  F  F24  1  0.99584500  0.46888000  0.73984300  1
  F  F25  1  0.00415500  0.96888000  0.76015700  1
  F  F26  1  0.00415500  0.53112000  0.26015700  1
  F  F27  1  0.99584500  0.03112000  0.23984300  1
  F  F28  1  0.19447100  0.33423700  0.69743500  1
  F  F29  1  0.80552900  0.83423700  0.80256500  1
  F  F30  1  0.80552900  0.66576300  0.30256500  1
  F  F31  1  0.19447100  0.16576300  0.19743500  1
  F  F32  1  0.18650700  0.41913000  0.14153500  1
  F  F33  1  0.81349300  0.91913000  0.35846500  1
  F  F34  1  0.81349300  0.58087000  0.85846500  1
  F  F35  1  0.18650700  0.08087000  0.64153500  1
  F  F36  1  0.58476000  0.92365000  0.99738900  1
  F  F37  1  0.41524000  0.42365000  0.50261100  1
  F  F38  1  0.41524000  0.07635000  0.00261100  1
  F  F39  1  0.58476000  0.57635000  0.49738900  1
  F  F40  1  0.99239000  0.31193700  0.28553200  1
  F  F41  1  0.00761000  0.81193700  0.21446800  1
  F  F42  1  0.00761000  0.68806300  0.71446800  1
  F  F43  1  0.99239000  0.18806300  0.78553200  1
  F  F44  1  0.38137900  0.91712100  0.44511900  1
  F  F45  1  0.61862100  0.41712100  0.05488100  1
  F  F46  1  0.61862100  0.08287900  0.55488100  1
  F  F47  1  0.38137900  0.58287900  0.94511900  1
  F  F48  1  0.79017200  0.16451600  0.27646400  1
  F  F49  1  0.20982800  0.66451600  0.22353600  1
  F  F50  1  0.20982800  0.83548400  0.72353600  1
  F  F51  1  0.79017200  0.33548400  0.77646400  1
