# generated using pymatgen
data_CsTmP4(H2O3)6
_symmetry_space_group_name_H-M   'P 1'
_cell_length_a   8.73505000
_cell_length_b   12.45738800
_cell_length_c   15.15911674
_cell_angle_alpha   90.00000000
_cell_angle_beta   91.29028790
_cell_angle_gamma   90.00000000
_symmetry_Int_Tables_number   1
_chemical_formula_structural   CsTmP4(H2O3)6
_chemical_formula_sum   'Cs4 Tm4 P16 H48 O72'
_cell_volume   1649.13477808
_cell_formula_units_Z   4
loop_
 _symmetry_equiv_pos_site_id
 _symmetry_equiv_pos_as_xyz
  1  'x, y, z'
loop_
 _atom_site_type_symbol
 _atom_site_label
 _atom_site_symmetry_multiplicity
 _atom_site_fract_x
 _atom_site_fract_y
 _atom_site_fract_z
 _atom_site_occupancy
  Cs  Cs0  1  0.50000000  0.96334200  0.25000000  1
  Cs  Cs1  1  0.50000000  0.03665800  0.75000000  1
  Cs  Cs2  1  0.00000000  0.46334200  0.25000000  1
  Cs  Cs3  1  0.00000000  0.53665800  0.75000000  1
  Tm  Tm4  1  0.50000000  0.60584400  0.25000000  1
  Tm  Tm5  1  0.50000000  0.39415600  0.75000000  1
  Tm  Tm6  1  0.00000000  0.10584400  0.25000000  1
  Tm  Tm7  1  0.00000000  0.89415600  0.75000000  1
  P  P8  1  0.12376250  0.91360850  0.08630500  1
  P  P9  1  0.87623750  0.91360850  0.41369500  1
  P  P10  1  0.87623750  0.08639150  0.91369500  1
  P  P11  1  0.12376250  0.08639150  0.58630500  1
  P  P12  1  0.20554250  0.96184950  0.42613500  1
  P  P13  1  0.79445750  0.96184950  0.07386500  1
  P  P14  1  0.79445750  0.03815050  0.57386500  1
  P  P15  1  0.20554250  0.03815050  0.92613500  1
  P  P16  1  0.62376250  0.41360850  0.08630500  1
  P  P17  1  0.37623750  0.41360850  0.41369500  1
  P  P18  1  0.37623750  0.58639150  0.91369500  1
  P  P19  1  0.62376250  0.58639150  0.58630500  1
  P  P20  1  0.70554250  0.46184950  0.42613500  1
  P  P21  1  0.29445750  0.46184950  0.07386500  1
  P  P22  1  0.29445750  0.53815050  0.57386500  1
  P  P23  1  0.70554250  0.53815050  0.92613500  1
  H  H24  1  0.36612500  0.75436900  0.11143300  1
  H  H25  1  0.63387500  0.75436900  0.38856700  1
  H  H26  1  0.63387500  0.24563100  0.88856700  1
  H  H27  1  0.36612500  0.24563100  0.61143300  1
  H  H28  1  0.45177150  0.77200250  0.39284500  1
  H  H29  1  0.54822850  0.77200250  0.10715500  1
  H  H30  1  0.54822850  0.22799750  0.60715500  1
  H  H31  1  0.45177150  0.22799750  0.89284500  1
  H  H32  1  0.59296150  0.13490950  0.44607100  1
  H  H33  1  0.40703850  0.13490950  0.05392900  1
  H  H34  1  0.40703850  0.86509050  0.55392900  1
  H  H35  1  0.59296150  0.86509050  0.94607100  1
  H  H36  1  0.52960700  0.19980900  0.10971800  1
  H  H37  1  0.47039300  0.19980900  0.39028200  1
  H  H38  1  0.47039300  0.80019100  0.89028200  1
  H  H39  1  0.52960700  0.80019100  0.60971800  1
  H  H40  1  0.69040000  0.18442900  0.31760400  1
  H  H41  1  0.30960000  0.18442900  0.18239600  1
  H  H42  1  0.30960000  0.81557100  0.68239600  1
  H  H43  1  0.69040000  0.81557100  0.81760400  1
  H  H44  1  0.72115500  0.24323200  0.22450700  1
  H  H45  1  0.27884500  0.24323200  0.27549300  1
  H  H46  1  0.27884500  0.75676800  0.77549300  1
  H  H47  1  0.72115500  0.75676800  0.72450700  1
  H  H48  1  0.86612500  0.25436900  0.11143300  1
  H  H49  1  0.13387500  0.25436900  0.38856700  1
  H  H50  1  0.13387500  0.74563100  0.88856700  1
  H  H51  1  0.86612500  0.74563100  0.61143300  1
  H  H52  1  0.95177150  0.27200250  0.39284500  1
  H  H53  1  0.04822850  0.27200250  0.10715500  1
  H  H54  1  0.04822850  0.72799750  0.60715500  1
  H  H55  1  0.95177150  0.72799750  0.89284500  1
  H  H56  1  0.09296150  0.63490950  0.44607100  1
  H  H57  1  0.90703850  0.63490950  0.05392900  1
  H  H58  1  0.90703850  0.36509050  0.55392900  1
  H  H59  1  0.09296150  0.36509050  0.94607100  1
  H  H60  1  0.02960700  0.69980900  0.10971800  1
  H  H61  1  0.97039300  0.69980900  0.39028200  1
  H  H62  1  0.97039300  0.30019100  0.89028200  1
  H  H63  1  0.02960700  0.30019100  0.60971800  1
  H  H64  1  0.19040000  0.68442900  0.31760400  1
  H  H65  1  0.80960000  0.68442900  0.18239600  1
  H  H66  1  0.80960000  0.31557100  0.68239600  1
  H  H67  1  0.19040000  0.31557100  0.81760400  1
  H  H68  1  0.22115500  0.74323200  0.22450700  1
  H  H69  1  0.77884500  0.74323200  0.27549300  1
  H  H70  1  0.77884500  0.25676800  0.77549300  1
  H  H71  1  0.22115500  0.25676800  0.72450700  1
  O  O72  1  0.54915400  0.40014900  0.45273800  1
  O  O73  1  0.45084600  0.40014900  0.04726200  1
  O  O74  1  0.45084600  0.59985100  0.54726200  1
  O  O75  1  0.54915400  0.59985100  0.95273800  1
  O  O76  1  0.21775100  0.94305500  0.99975500  1
  O  O77  1  0.78224900  0.94305500  0.50024500  1
  O  O78  1  0.78224900  0.05694500  0.00024500  1
  O  O79  1  0.21775100  0.05694500  0.49975500  1
  O  O80  1  0.13382650  0.00379050  0.15190000  1
  O  O81  1  0.86617350  0.00379050  0.34810000  1
  O  O82  1  0.86617350  0.99620950  0.84810000  1
  O  O83  1  0.13382650  0.99620950  0.65190000  1
  O  O84  1  0.67816300  0.30399800  0.11493800  1
  O  O85  1  0.32183700  0.30399800  0.38506200  1
  O  O86  1  0.32183700  0.69600200  0.88506200  1
  O  O87  1  0.67816300  0.69600200  0.61493800  1
  O  O88  1  0.81668300  0.01404800  0.16255800  1
  O  O89  1  0.18331700  0.01404800  0.33744200  1
  O  O90  1  0.18331700  0.98595200  0.83744200  1
  O  O91  1  0.81668300  0.98595200  0.66255800  1
  O  O92  1  0.33716500  0.88690300  0.44119300  1
  O  O93  1  0.66283500  0.88690300  0.05880700  1
  O  O94  1  0.66283500  0.11309700  0.55880700  1
  O  O95  1  0.33716500  0.11309700  0.94119300  1
  O  O96  1  0.46710850  0.72777550  0.13304200  1
  O  O97  1  0.53289150  0.72777550  0.36695800  1
  O  O98  1  0.53289150  0.27222450  0.86695800  1
  O  O99  1  0.46710850  0.27222450  0.63304200  1
  O  O100  1  0.55360500  0.14684600  0.38511500  1
  O  O101  1  0.44639500  0.14684600  0.11488500  1
  O  O102  1  0.44639500  0.85315400  0.61488500  1
  O  O103  1  0.55360500  0.85315400  0.88511500  1
  O  O104  1  0.77059950  0.20323050  0.27324300  1
  O  O105  1  0.22940050  0.20323050  0.22675700  1
  O  O106  1  0.22940050  0.79676950  0.72675700  1
  O  O107  1  0.77059950  0.79676950  0.77324300  1
  O  O108  1  0.04915400  0.90014900  0.45273800  1
  O  O109  1  0.95084600  0.90014900  0.04726200  1
  O  O110  1  0.95084600  0.09985100  0.54726200  1
  O  O111  1  0.04915400  0.09985100  0.95273800  1
  O  O112  1  0.71775100  0.44305500  0.99975500  1
  O  O113  1  0.28224900  0.44305500  0.50024500  1
  O  O114  1  0.28224900  0.55694500  0.00024500  1
  O  O115  1  0.71775100  0.55694500  0.49975500  1
  O  O116  1  0.63382650  0.50379050  0.15190000  1
  O  O117  1  0.36617350  0.50379050  0.34810000  1
  O  O118  1  0.36617350  0.49620950  0.84810000  1
  O  O119  1  0.63382650  0.49620950  0.65190000  1
  O  O120  1  0.17816300  0.80399800  0.11493800  1
  O  O121  1  0.82183700  0.80399800  0.38506200  1
  O  O122  1  0.82183700  0.19600200  0.88506200  1
  O  O123  1  0.17816300  0.19600200  0.61493800  1
  O  O124  1  0.31668300  0.51404800  0.16255800  1
  O  O125  1  0.68331700  0.51404800  0.33744200  1
  O  O126  1  0.68331700  0.48595200  0.83744200  1
  O  O127  1  0.31668300  0.48595200  0.66255800  1
  O  O128  1  0.83716500  0.38690300  0.44119300  1
  O  O129  1  0.16283500  0.38690300  0.05880700  1
  O  O130  1  0.16283500  0.61309700  0.55880700  1
  O  O131  1  0.83716500  0.61309700  0.94119300  1
  O  O132  1  0.96710850  0.22777550  0.13304200  1
  O  O133  1  0.03289150  0.22777550  0.36695800  1
  O  O134  1  0.03289150  0.77222450  0.86695800  1
  O  O135  1  0.96710850  0.77222450  0.63304200  1
  O  O136  1  0.05360500  0.64684600  0.38511500  1
  O  O137  1  0.94639500  0.64684600  0.11488500  1
  O  O138  1  0.94639500  0.35315400  0.61488500  1
  O  O139  1  0.05360500  0.35315400  0.88511500  1
  O  O140  1  0.27059950  0.70323050  0.27324300  1
  O  O141  1  0.72940050  0.70323050  0.22675700  1
  O  O142  1  0.72940050  0.29676950  0.72675700  1
  O  O143  1  0.27059950  0.29676950  0.77324300  1
