# generated using pymatgen
data_Ba3SiI2
_symmetry_space_group_name_H-M   'P 1'
_cell_length_a   10.22368000
_cell_length_b   14.25403000
_cell_length_c   29.85200600
_cell_angle_alpha   90.00000000
_cell_angle_beta   90.00000000
_cell_angle_gamma   90.00000000
_symmetry_Int_Tables_number   1
_chemical_formula_structural   Ba3SiI2
_chemical_formula_sum   'Ba48 Si16 I32'
_cell_volume   4350.29227835
_cell_formula_units_Z   16
loop_
 _symmetry_equiv_pos_site_id
 _symmetry_equiv_pos_as_xyz
  1  'x, y, z'
loop_
 _atom_site_type_symbol
 _atom_site_label
 _atom_site_symmetry_multiplicity
 _atom_site_fract_x
 _atom_site_fract_y
 _atom_site_fract_z
 _atom_site_occupancy
  Ba  Ba0  1  0.76662400  0.98017300  0.15860100  1
  Ba  Ba1  1  0.73337600  0.98017300  0.34139900  1
  Ba  Ba2  1  0.51662400  0.73017300  0.09139900  1
  Ba  Ba3  1  0.23337600  0.01982700  0.15860100  1
  Ba  Ba4  1  0.54305900  0.75000000  0.25000000  1
  Ba  Ba5  1  0.48337600  0.26982700  0.09139900  1
  Ba  Ba6  1  0.26662400  0.01982700  0.34139900  1
  Ba  Ba7  1  0.01662400  0.26982700  0.40860100  1
  Ba  Ba8  1  0.20694100  0.00000000  0.00000000  1
  Ba  Ba9  1  0.79305900  0.00000000  0.00000000  1
  Ba  Ba10  1  0.98337600  0.73017300  0.40860100  1
  Ba  Ba11  1  0.95694100  0.75000000  0.25000000  1
  Ba  Ba12  1  0.76662400  0.48017300  0.65860100  1
  Ba  Ba13  1  0.73337600  0.48017300  0.84139900  1
  Ba  Ba14  1  0.51662400  0.23017300  0.59139900  1
  Ba  Ba15  1  0.23337600  0.51982700  0.65860100  1
  Ba  Ba16  1  0.54305900  0.25000000  0.75000000  1
  Ba  Ba17  1  0.48337600  0.76982700  0.59139900  1
  Ba  Ba18  1  0.26662400  0.51982700  0.84139900  1
  Ba  Ba19  1  0.01662400  0.76982700  0.90860100  1
  Ba  Ba20  1  0.20694100  0.50000000  0.50000000  1
  Ba  Ba21  1  0.79305900  0.50000000  0.50000000  1
  Ba  Ba22  1  0.98337600  0.23017300  0.90860100  1
  Ba  Ba23  1  0.95694100  0.25000000  0.75000000  1
  Ba  Ba24  1  0.26662400  0.98017300  0.65860100  1
  Ba  Ba25  1  0.23337600  0.98017300  0.84139900  1
  Ba  Ba26  1  0.01662400  0.73017300  0.59139900  1
  Ba  Ba27  1  0.73337600  0.01982700  0.65860100  1
  Ba  Ba28  1  0.04305900  0.75000000  0.75000000  1
  Ba  Ba29  1  0.98337600  0.26982700  0.59139900  1
  Ba  Ba30  1  0.76662400  0.01982700  0.84139900  1
  Ba  Ba31  1  0.51662400  0.26982700  0.90860100  1
  Ba  Ba32  1  0.70694100  0.00000000  0.50000000  1
  Ba  Ba33  1  0.29305900  0.00000000  0.50000000  1
  Ba  Ba34  1  0.48337600  0.73017300  0.90860100  1
  Ba  Ba35  1  0.45694100  0.75000000  0.75000000  1
  Ba  Ba36  1  0.26662400  0.48017300  0.15860100  1
  Ba  Ba37  1  0.23337600  0.48017300  0.34139900  1
  Ba  Ba38  1  0.01662400  0.23017300  0.09139900  1
  Ba  Ba39  1  0.73337600  0.51982700  0.15860100  1
  Ba  Ba40  1  0.04305900  0.25000000  0.25000000  1
  Ba  Ba41  1  0.98337600  0.76982700  0.09139900  1
  Ba  Ba42  1  0.76662400  0.51982700  0.34139900  1
  Ba  Ba43  1  0.51662400  0.76982700  0.40860100  1
  Ba  Ba44  1  0.70694100  0.50000000  0.00000000  1
  Ba  Ba45  1  0.29305900  0.50000000  0.00000000  1
  Ba  Ba46  1  0.48337600  0.23017300  0.40860100  1
  Ba  Ba47  1  0.45694100  0.25000000  0.25000000  1
  Si  Si48  1  0.00000000  0.00000000  0.08417300  1
  Si  Si49  1  0.50000000  0.00000000  0.41582700  1
  Si  Si50  1  0.75000000  0.75000000  0.16582700  1
  Si  Si51  1  0.75000000  0.75000000  0.33417300  1
  Si  Si52  1  0.00000000  0.50000000  0.58417300  1
  Si  Si53  1  0.50000000  0.50000000  0.91582700  1
  Si  Si54  1  0.75000000  0.25000000  0.66582700  1
  Si  Si55  1  0.75000000  0.25000000  0.83417300  1
  Si  Si56  1  0.50000000  0.00000000  0.58417300  1
  Si  Si57  1  0.00000000  0.00000000  0.91582700  1
  Si  Si58  1  0.25000000  0.75000000  0.66582700  1
  Si  Si59  1  0.25000000  0.75000000  0.83417300  1
  Si  Si60  1  0.50000000  0.50000000  0.08417300  1
  Si  Si61  1  0.00000000  0.50000000  0.41582700  1
  Si  Si62  1  0.25000000  0.25000000  0.16582700  1
  Si  Si63  1  0.25000000  0.25000000  0.33417300  1
  I  I64  1  0.75000000  0.25000000  0.17264900  1
  I  I65  1  0.50000000  0.00000000  0.24600700  1
  I  I66  1  0.00000000  0.00000000  0.25399300  1
  I  I67  1  0.50000000  0.00000000  0.07735100  1
  I  I68  1  0.75000000  0.25000000  0.49600700  1
  I  I69  1  0.75000000  0.25000000  0.32735100  1
  I  I70  1  0.00000000  0.00000000  0.42264900  1
  I  I71  1  0.75000000  0.25000000  0.00399300  1
  I  I72  1  0.75000000  0.75000000  0.67264900  1
  I  I73  1  0.50000000  0.50000000  0.74600700  1
  I  I74  1  0.00000000  0.50000000  0.75399300  1
  I  I75  1  0.50000000  0.50000000  0.57735100  1
  I  I76  1  0.75000000  0.75000000  0.99600700  1
  I  I77  1  0.75000000  0.75000000  0.82735100  1
  I  I78  1  0.00000000  0.50000000  0.92264900  1
  I  I79  1  0.75000000  0.75000000  0.50399300  1
  I  I80  1  0.25000000  0.25000000  0.67264900  1
  I  I81  1  0.00000000  0.00000000  0.74600700  1
  I  I82  1  0.50000000  0.00000000  0.75399300  1
  I  I83  1  0.00000000  0.00000000  0.57735100  1
  I  I84  1  0.25000000  0.25000000  0.99600700  1
  I  I85  1  0.25000000  0.25000000  0.82735100  1
  I  I86  1  0.50000000  0.00000000  0.92264900  1
  I  I87  1  0.25000000  0.25000000  0.50399300  1
  I  I88  1  0.25000000  0.75000000  0.17264900  1
  I  I89  1  0.00000000  0.50000000  0.24600700  1
  I  I90  1  0.50000000  0.50000000  0.25399300  1
  I  I91  1  0.00000000  0.50000000  0.07735100  1
  I  I92  1  0.25000000  0.75000000  0.49600700  1
  I  I93  1  0.25000000  0.75000000  0.32735100  1
  I  I94  1  0.50000000  0.50000000  0.42264900  1
  I  I95  1  0.25000000  0.75000000  0.00399300  1
