# generated using pymatgen
data_LiCoP2O7
_symmetry_space_group_name_H-M   'P 1'
_cell_length_a   15.27320240
_cell_length_b   5.07374201
_cell_length_c   8.86064554
_cell_angle_alpha   90.00000000
_cell_angle_beta   111.37226509
_cell_angle_gamma   90.00000000
_symmetry_Int_Tables_number   1
_chemical_formula_structural   LiCoP2O7
_chemical_formula_sum   'Li4 Co4 P8 O28'
_cell_volume   639.41364017
_cell_formula_units_Z   4
loop_
 _symmetry_equiv_pos_site_id
 _symmetry_equiv_pos_as_xyz
  1  'x, y, z'
loop_
 _atom_site_type_symbol
 _atom_site_label
 _atom_site_symmetry_multiplicity
 _atom_site_fract_x
 _atom_site_fract_y
 _atom_site_fract_z
 _atom_site_occupancy
  Li  Li0  1  0.80159850  0.67698650  0.96025700  1
  Li  Li1  1  0.80159850  0.32301350  0.46025700  1
  Li  Li2  1  0.30159850  0.17698650  0.96025700  1
  Li  Li3  1  0.30159850  0.82301350  0.46025700  1
  Co  Co4  1  0.00558450  0.51933150  0.00853400  1
  Co  Co5  1  0.00558450  0.48066850  0.50853400  1
  Co  Co6  1  0.50558450  0.01933150  0.00853400  1
  Co  Co7  1  0.50558450  0.98066850  0.50853400  1
  P  P8  1  0.90060600  0.84980300  0.68925000  1
  P  P9  1  0.90060600  0.15019700  0.18925000  1
  P  P10  1  0.10074200  0.14105600  0.30471900  1
  P  P11  1  0.10074200  0.85894400  0.80471900  1
  P  P12  1  0.40060600  0.34980300  0.68925000  1
  P  P13  1  0.40060600  0.65019700  0.18925000  1
  P  P14  1  0.60074200  0.64105600  0.30471900  1
  P  P15  1  0.60074200  0.35894400  0.80471900  1
  O  O16  1  0.90274400  0.28335000  0.34969000  1
  O  O17  1  0.90274400  0.71665000  0.84969000  1
  O  O18  1  0.09643800  0.31456300  0.15774400  1
  O  O19  1  0.09643800  0.68543700  0.65774400  1
  O  O20  1  0.00005700  0.01615000  0.74011700  1
  O  O21  1  0.00005700  0.98385000  0.24011700  1
  O  O22  1  0.90799250  0.62569350  0.57275400  1
  O  O23  1  0.90799250  0.37430650  0.07275400  1
  O  O24  1  0.09303250  0.32519250  0.43958200  1
  O  O25  1  0.09303250  0.67480750  0.93958200  1
  O  O26  1  0.82342600  0.04146600  0.61613700  1
  O  O27  1  0.82342600  0.95853400  0.11613700  1
  O  O28  1  0.17865000  0.05136100  0.85740700  1
  O  O29  1  0.17865000  0.94863900  0.35740700  1
  O  O30  1  0.40274400  0.78335000  0.34969000  1
  O  O31  1  0.40274400  0.21665000  0.84969000  1
  O  O32  1  0.59643800  0.81456300  0.15774400  1
  O  O33  1  0.59643800  0.18543700  0.65774400  1
  O  O34  1  0.50005700  0.51615000  0.74011700  1
  O  O35  1  0.50005700  0.48385000  0.24011700  1
  O  O36  1  0.40799250  0.12569350  0.57275400  1
  O  O37  1  0.40799250  0.87430650  0.07275400  1
  O  O38  1  0.59303250  0.82519250  0.43958200  1
  O  O39  1  0.59303250  0.17480750  0.93958200  1
  O  O40  1  0.32342600  0.54146600  0.61613700  1
  O  O41  1  0.32342600  0.45853400  0.11613700  1
  O  O42  1  0.67865000  0.55136100  0.85740700  1
  O  O43  1  0.67865000  0.44863900  0.35740700  1
