# generated using pymatgen
data_Na2USiO6
_symmetry_space_group_name_H-M   'P 1'
_cell_length_a   12.87173200
_cell_length_b   12.87173200
_cell_length_c   14.01626600
_cell_angle_alpha   90.00000000
_cell_angle_beta   90.00000000
_cell_angle_gamma   90.00000000
_symmetry_Int_Tables_number   1
_chemical_formula_structural   Na2USiO6
_chemical_formula_sum   'Na32 U16 Si16 O96'
_cell_volume   2322.23576055
_cell_formula_units_Z   16
loop_
 _symmetry_equiv_pos_site_id
 _symmetry_equiv_pos_as_xyz
  1  'x, y, z'
loop_
 _atom_site_type_symbol
 _atom_site_label
 _atom_site_symmetry_multiplicity
 _atom_site_fract_x
 _atom_site_fract_y
 _atom_site_fract_z
 _atom_site_occupancy
  Na  Na0  1  0.19521300  0.19521300  0.75000000  1
  Na  Na1  1  0.00000000  0.50000000  0.00000000  1
  Na  Na2  1  0.80478700  0.30478700  0.50000000  1
  Na  Na3  1  0.30478700  0.30478700  0.25000000  1
  Na  Na4  1  0.19521300  0.80478700  0.25000000  1
  Na  Na5  1  0.80478700  0.19521300  0.25000000  1
  Na  Na6  1  0.00000000  0.00000000  0.50000000  1
  Na  Na7  1  0.00000000  0.00000000  0.25000000  1
  Na  Na8  1  0.00000000  0.00000000  0.00000000  1
  Na  Na9  1  0.69521300  0.19521300  0.00000000  1
  Na  Na10  1  0.19521300  0.30478700  0.00000000  1
  Na  Na11  1  0.00000000  0.00000000  0.75000000  1
  Na  Na12  1  0.30478700  0.19521300  0.50000000  1
  Na  Na13  1  0.50000000  0.00000000  0.25000000  1
  Na  Na14  1  0.00000000  0.50000000  0.25000000  1
  Na  Na15  1  0.50000000  0.00000000  0.00000000  1
  Na  Na16  1  0.69521300  0.69521300  0.25000000  1
  Na  Na17  1  0.50000000  0.00000000  0.50000000  1
  Na  Na18  1  0.30478700  0.80478700  0.00000000  1
  Na  Na19  1  0.80478700  0.80478700  0.75000000  1
  Na  Na20  1  0.69521300  0.30478700  0.75000000  1
  Na  Na21  1  0.30478700  0.69521300  0.75000000  1
  Na  Na22  1  0.50000000  0.50000000  0.00000000  1
  Na  Na23  1  0.50000000  0.50000000  0.75000000  1
  Na  Na24  1  0.50000000  0.50000000  0.50000000  1
  Na  Na25  1  0.19521300  0.69521300  0.50000000  1
  Na  Na26  1  0.69521300  0.80478700  0.50000000  1
  Na  Na27  1  0.50000000  0.50000000  0.25000000  1
  Na  Na28  1  0.80478700  0.69521300  0.00000000  1
  Na  Na29  1  0.00000000  0.50000000  0.75000000  1
  Na  Na30  1  0.50000000  0.00000000  0.75000000  1
  Na  Na31  1  0.00000000  0.50000000  0.50000000  1
  U  U32  1  0.00000000  0.25000000  0.62500000  1
  U  U33  1  0.25000000  0.50000000  0.37500000  1
  U  U34  1  0.25000000  0.00000000  0.37500000  1
  U  U35  1  0.00000000  0.75000000  0.12500000  1
  U  U36  1  0.25000000  0.50000000  0.87500000  1
  U  U37  1  0.50000000  0.25000000  0.12500000  1
  U  U38  1  0.00000000  0.25000000  0.12500000  1
  U  U39  1  0.75000000  0.50000000  0.37500000  1
  U  U40  1  0.50000000  0.75000000  0.12500000  1
  U  U41  1  0.75000000  0.00000000  0.87500000  1
  U  U42  1  0.75000000  0.50000000  0.87500000  1
  U  U43  1  0.50000000  0.25000000  0.62500000  1
  U  U44  1  0.75000000  0.00000000  0.37500000  1
  U  U45  1  0.00000000  0.75000000  0.62500000  1
  U  U46  1  0.50000000  0.75000000  0.62500000  1
  U  U47  1  0.25000000  0.00000000  0.87500000  1
  Si  Si48  1  0.40942100  0.25000000  0.87500000  1
  Si  Si49  1  0.40942100  0.75000000  0.37500000  1
  Si  Si50  1  0.59057900  0.25000000  0.37500000  1
  Si  Si51  1  0.75000000  0.90942100  0.12500000  1
  Si  Si52  1  0.25000000  0.59057900  0.12500000  1
  Si  Si53  1  0.25000000  0.09057900  0.12500000  1
  Si  Si54  1  0.25000000  0.90942100  0.62500000  1
  Si  Si55  1  0.09057900  0.25000000  0.37500000  1
  Si  Si56  1  0.90942100  0.75000000  0.37500000  1
  Si  Si57  1  0.90942100  0.25000000  0.87500000  1
  Si  Si58  1  0.09057900  0.75000000  0.87500000  1
  Si  Si59  1  0.25000000  0.40942100  0.62500000  1
  Si  Si60  1  0.75000000  0.09057900  0.62500000  1
  Si  Si61  1  0.75000000  0.59057900  0.62500000  1
  Si  Si62  1  0.75000000  0.40942100  0.12500000  1
  Si  Si63  1  0.59057900  0.75000000  0.87500000  1
  O  O64  1  0.48185900  0.22755600  0.96953900  1
  O  O65  1  0.06657300  0.11914900  0.62342200  1
  O  O66  1  0.22755600  0.01814100  0.21953900  1
  O  O67  1  0.48185900  0.77244400  0.46953900  1
  O  O68  1  0.34880600  0.16916700  0.14758800  1
  O  O69  1  0.22755600  0.51814100  0.03046100  1
  O  O70  1  0.27244400  0.01814100  0.03046100  1
  O  O71  1  0.01814100  0.27244400  0.46953900  1
  O  O72  1  0.84880600  0.16916700  0.60241200  1
  O  O73  1  0.33083300  0.34880600  0.89758800  1
  O  O74  1  0.51814100  0.27244400  0.28046100  1
  O  O75  1  0.56657300  0.11914900  0.12657800  1
  O  O76  1  0.83083300  0.15119400  0.89758800  1
  O  O77  1  0.43342700  0.38085100  0.12342200  1
  O  O78  1  0.15119400  0.33083300  0.64758800  1
  O  O79  1  0.38085100  0.06657300  0.37342200  1
  O  O80  1  0.33083300  0.15119400  0.85241200  1
  O  O81  1  0.65119400  0.33083300  0.10241200  1
  O  O82  1  0.34880600  0.83083300  0.64758800  1
  O  O83  1  0.01814100  0.22755600  0.28046100  1
  O  O84  1  0.38085100  0.43342700  0.37657800  1
  O  O85  1  0.22755600  0.98185900  0.71953900  1
  O  O86  1  0.16916700  0.34880600  0.35241200  1
  O  O87  1  0.48185900  0.72755600  0.28046100  1
  O  O88  1  0.93342700  0.11914900  0.12342200  1
  O  O89  1  0.93342700  0.61914900  0.12657800  1
  O  O90  1  0.77244400  0.98185900  0.21953900  1
  O  O91  1  0.27244400  0.51814100  0.21953900  1
  O  O92  1  0.61914900  0.93342700  0.37342200  1
  O  O93  1  0.11914900  0.06657300  0.87657800  1
  O  O94  1  0.72755600  0.98185900  0.03046100  1
  O  O95  1  0.56657300  0.38085100  0.62342200  1
  O  O96  1  0.33083300  0.84880600  0.35241200  1
  O  O97  1  0.27244400  0.98185900  0.53046100  1
  O  O98  1  0.38085100  0.56657300  0.87657800  1
  O  O99  1  0.06657300  0.38085100  0.12657800  1
  O  O100  1  0.15119400  0.16916700  0.10241200  1
  O  O101  1  0.48185900  0.27244400  0.78046100  1
  O  O102  1  0.88085100  0.43342700  0.37342200  1
  O  O103  1  0.43342700  0.88085100  0.12657800  1
  O  O104  1  0.51814100  0.22755600  0.46953900  1
  O  O105  1  0.34880600  0.33083300  0.60241200  1
  O  O106  1  0.16916700  0.15119400  0.39758800  1
  O  O107  1  0.66916700  0.34880600  0.39758800  1
  O  O108  1  0.11914900  0.93342700  0.37657800  1
  O  O109  1  0.15119400  0.66916700  0.14758800  1
  O  O110  1  0.11914900  0.56657300  0.37342200  1
  O  O111  1  0.16916700  0.65119400  0.85241200  1
  O  O112  1  0.98185900  0.72755600  0.46953900  1
  O  O113  1  0.56657300  0.61914900  0.12342200  1
  O  O114  1  0.72755600  0.51814100  0.71953900  1
  O  O115  1  0.98185900  0.27244400  0.96953900  1
  O  O116  1  0.84880600  0.66916700  0.64758800  1
  O  O117  1  0.72755600  0.01814100  0.53046100  1
  O  O118  1  0.77244400  0.51814100  0.53046100  1
  O  O119  1  0.51814100  0.77244400  0.96953900  1
  O  O120  1  0.34880600  0.66916700  0.10241200  1
  O  O121  1  0.83083300  0.84880600  0.39758800  1
  O  O122  1  0.01814100  0.77244400  0.78046100  1
  O  O123  1  0.06657300  0.61914900  0.62657800  1
  O  O124  1  0.33083300  0.65119400  0.39758800  1
  O  O125  1  0.93342700  0.88085100  0.62342200  1
  O  O126  1  0.65119400  0.83083300  0.14758800  1
  O  O127  1  0.88085100  0.56657300  0.87342200  1
  O  O128  1  0.83083300  0.65119400  0.35241200  1
  O  O129  1  0.15119400  0.83083300  0.60241200  1
  O  O130  1  0.84880600  0.33083300  0.14758800  1
  O  O131  1  0.51814100  0.72755600  0.78046100  1
  O  O132  1  0.88085100  0.93342700  0.87657800  1
  O  O133  1  0.72755600  0.48185900  0.21953900  1
  O  O134  1  0.66916700  0.84880600  0.85241200  1
  O  O135  1  0.98185900  0.22755600  0.78046100  1
  O  O136  1  0.43342700  0.61914900  0.62342200  1
  O  O137  1  0.43342700  0.11914900  0.62657800  1
  O  O138  1  0.27244400  0.48185900  0.71953900  1
  O  O139  1  0.77244400  0.01814100  0.71953900  1
  O  O140  1  0.11914900  0.43342700  0.87342200  1
  O  O141  1  0.61914900  0.56657300  0.37657800  1
  O  O142  1  0.22755600  0.48185900  0.53046100  1
  O  O143  1  0.06657300  0.88085100  0.12342200  1
  O  O144  1  0.83083300  0.34880600  0.85241200  1
  O  O145  1  0.77244400  0.48185900  0.03046100  1
  O  O146  1  0.88085100  0.06657300  0.37657800  1
  O  O147  1  0.56657300  0.88085100  0.62657800  1
  O  O148  1  0.65119400  0.66916700  0.60241200  1
  O  O149  1  0.98185900  0.77244400  0.28046100  1
  O  O150  1  0.38085100  0.93342700  0.87342200  1
  O  O151  1  0.93342700  0.38085100  0.62657800  1
  O  O152  1  0.01814100  0.72755600  0.96953900  1
  O  O153  1  0.84880600  0.83083300  0.10241200  1
  O  O154  1  0.66916700  0.65119400  0.89758800  1
  O  O155  1  0.16916700  0.84880600  0.89758800  1
  O  O156  1  0.61914900  0.43342700  0.87657800  1
  O  O157  1  0.65119400  0.16916700  0.64758800  1
  O  O158  1  0.61914900  0.06657300  0.87342200  1
  O  O159  1  0.66916700  0.15119400  0.35241200  1
