# generated using pymatgen
data_KBiF6
_symmetry_space_group_name_H-M   'P 1'
_cell_length_a   10.61408000
_cell_length_b   10.61408000
_cell_length_c   10.61408000
_cell_angle_alpha   90.00000000
_cell_angle_beta   90.00000000
_cell_angle_gamma   90.00000000
_symmetry_Int_Tables_number   1
_chemical_formula_structural   KBiF6
_chemical_formula_sum   'K8 Bi8 F48'
_cell_volume   1195.76839343
_cell_formula_units_Z   8
loop_
 _symmetry_equiv_pos_site_id
 _symmetry_equiv_pos_as_xyz
  1  'x, y, z'
loop_
 _atom_site_type_symbol
 _atom_site_label
 _atom_site_symmetry_multiplicity
 _atom_site_fract_x
 _atom_site_fract_y
 _atom_site_fract_z
 _atom_site_occupancy
  K  K0  1  0.25000000  0.25000000  0.25000000  1
  K  K1  1  0.25000000  0.75000000  0.25000000  1
  K  K2  1  0.25000000  0.25000000  0.75000000  1
  K  K3  1  0.75000000  0.25000000  0.25000000  1
  K  K4  1  0.75000000  0.75000000  0.75000000  1
  K  K5  1  0.75000000  0.25000000  0.75000000  1
  K  K6  1  0.75000000  0.75000000  0.25000000  1
  K  K7  1  0.25000000  0.75000000  0.75000000  1
  Bi  Bi8  1  0.00000000  0.00000000  0.00000000  1
  Bi  Bi9  1  0.00000000  0.00000000  0.50000000  1
  Bi  Bi10  1  0.50000000  0.00000000  0.00000000  1
  Bi  Bi11  1  0.00000000  0.50000000  0.00000000  1
  Bi  Bi12  1  0.50000000  0.50000000  0.50000000  1
  Bi  Bi13  1  0.50000000  0.50000000  0.00000000  1
  Bi  Bi14  1  0.00000000  0.50000000  0.50000000  1
  Bi  Bi15  1  0.50000000  0.00000000  0.50000000  1
  F  F16  1  0.14738300  0.94048200  0.10958500  1
  F  F17  1  0.44048200  0.39041500  0.85261700  1
  F  F18  1  0.39041500  0.14738300  0.05951800  1
  F  F19  1  0.05951800  0.60958500  0.35261700  1
  F  F20  1  0.39041500  0.85261700  0.44048200  1
  F  F21  1  0.05951800  0.39041500  0.14738300  1
  F  F22  1  0.60958500  0.35261700  0.05951800  1
  F  F23  1  0.10958500  0.14738300  0.94048200  1
  F  F24  1  0.94048200  0.10958500  0.14738300  1
  F  F25  1  0.85261700  0.44048200  0.39041500  1
  F  F26  1  0.14738300  0.05951800  0.39041500  1
  F  F27  1  0.35261700  0.05951800  0.60958500  1
  F  F28  1  0.35261700  0.55951800  0.39041500  1
  F  F29  1  0.05951800  0.10958500  0.64738300  1
  F  F30  1  0.10958500  0.35261700  0.44048200  1
  F  F31  1  0.44048200  0.89041500  0.14738300  1
  F  F32  1  0.10958500  0.64738300  0.05951800  1
  F  F33  1  0.44048200  0.10958500  0.35261700  1
  F  F34  1  0.89041500  0.14738300  0.44048200  1
  F  F35  1  0.39041500  0.35261700  0.55951800  1
  F  F36  1  0.55951800  0.39041500  0.35261700  1
  F  F37  1  0.64738300  0.05951800  0.10958500  1
  F  F38  1  0.35261700  0.44048200  0.10958500  1
  F  F39  1  0.14738300  0.44048200  0.89041500  1
  F  F40  1  0.64738300  0.44048200  0.60958500  1
  F  F41  1  0.94048200  0.89041500  0.35261700  1
  F  F42  1  0.89041500  0.64738300  0.55951800  1
  F  F43  1  0.55951800  0.10958500  0.85261700  1
  F  F44  1  0.89041500  0.35261700  0.94048200  1
  F  F45  1  0.55951800  0.89041500  0.64738300  1
  F  F46  1  0.10958500  0.85261700  0.55951800  1
  F  F47  1  0.60958500  0.64738300  0.44048200  1
  F  F48  1  0.44048200  0.60958500  0.64738300  1
  F  F49  1  0.35261700  0.94048200  0.89041500  1
  F  F50  1  0.64738300  0.55951800  0.89041500  1
  F  F51  1  0.85261700  0.55951800  0.10958500  1
  F  F52  1  0.85261700  0.05951800  0.89041500  1
  F  F53  1  0.55951800  0.60958500  0.14738300  1
  F  F54  1  0.60958500  0.85261700  0.94048200  1
  F  F55  1  0.94048200  0.39041500  0.64738300  1
  F  F56  1  0.60958500  0.14738300  0.55951800  1
  F  F57  1  0.94048200  0.60958500  0.85261700  1
  F  F58  1  0.39041500  0.64738300  0.94048200  1
  F  F59  1  0.89041500  0.85261700  0.05951800  1
  F  F60  1  0.05951800  0.89041500  0.85261700  1
  F  F61  1  0.14738300  0.55951800  0.60958500  1
  F  F62  1  0.85261700  0.94048200  0.60958500  1
  F  F63  1  0.64738300  0.94048200  0.39041500  1
