# generated using pymatgen
data_Rb3Sc(HO)6
_symmetry_space_group_name_H-M   'P 1'
_cell_length_a   11.56186587
_cell_length_b   11.56186587
_cell_length_c   11.69828011
_cell_angle_alpha   90.00000000
_cell_angle_beta   90.00000000
_cell_angle_gamma   120.00000000
_symmetry_Int_Tables_number   1
_chemical_formula_structural   Rb3Sc(HO)6
_chemical_formula_sum   'Rb18 Sc6 H36 O36'
_cell_volume   1354.28011439
_cell_formula_units_Z   6
loop_
 _symmetry_equiv_pos_site_id
 _symmetry_equiv_pos_as_xyz
  1  'x, y, z'
loop_
 _atom_site_type_symbol
 _atom_site_label
 _atom_site_symmetry_multiplicity
 _atom_site_fract_x
 _atom_site_fract_y
 _atom_site_fract_z
 _atom_site_occupancy
  Rb  Rb0  1  0.04951067  0.71617733  0.58333333  1
  Rb  Rb1  1  0.66666667  0.95048933  0.58333333  1
  Rb  Rb2  1  0.28382267  0.33333333  0.58333333  1
  Rb  Rb3  1  0.95048933  0.28382267  0.41666667  1
  Rb  Rb4  1  0.33333333  0.04951067  0.41666667  1
  Rb  Rb5  1  0.71617733  0.66666667  0.41666667  1
  Rb  Rb6  1  0.71617733  0.04951067  0.91666667  1
  Rb  Rb7  1  0.33333333  0.28382267  0.91666667  1
  Rb  Rb8  1  0.95048933  0.66666667  0.91666667  1
  Rb  Rb9  1  0.61715600  0.61715600  0.75000000  1
  Rb  Rb10  1  1.00000000  0.38284400  0.75000000  1
  Rb  Rb11  1  0.38284400  0.00000000  0.75000000  1
  Rb  Rb12  1  0.38284400  0.38284400  0.25000000  1
  Rb  Rb13  1  0.00000000  0.61715600  0.25000000  1
  Rb  Rb14  1  0.61715600  1.00000000  0.25000000  1
  Rb  Rb15  1  0.28382267  0.95048933  0.08333333  1
  Rb  Rb16  1  0.66666667  0.71617733  0.08333333  1
  Rb  Rb17  1  0.04951067  0.33333333  0.08333333  1
  Sc  Sc18  1  0.00000000  0.00000000  0.00000000  1
  Sc  Sc19  1  0.00000000  0.00000000  0.50000000  1
  Sc  Sc20  1  0.66666667  0.33333333  0.33333333  1
  Sc  Sc21  1  0.66666667  0.33333333  0.83333333  1
  Sc  Sc22  1  0.33333333  0.66666667  0.66666667  1
  Sc  Sc23  1  0.33333333  0.66666667  0.16666667  1
  H  H24  1  0.05579367  0.89680733  0.32082733  1
  H  H25  1  0.84101367  0.94420633  0.32082733  1
  H  H26  1  0.10319267  0.15898633  0.32082733  1
  H  H27  1  0.89680733  0.05579367  0.17917267  1
  H  H28  1  0.15898633  0.10319267  0.17917267  1
  H  H29  1  0.94420633  0.84101367  0.17917267  1
  H  H30  1  0.94420633  0.10319267  0.67917267  1
  H  H31  1  0.15898633  0.05579367  0.67917267  1
  H  H32  1  0.89680733  0.84101367  0.67917267  1
  H  H33  1  0.10319267  0.94420633  0.82082733  1
  H  H34  1  0.84101367  0.89680733  0.82082733  1
  H  H35  1  0.05579367  0.15898633  0.82082733  1
  H  H36  1  0.72246033  0.23014067  0.65416067  1
  H  H37  1  0.50768033  0.27753967  0.65416067  1
  H  H38  1  0.76985933  0.49231967  0.65416067  1
  H  H39  1  0.56347400  0.38912700  0.51250600  1
  H  H40  1  0.82565300  0.43652600  0.51250600  1
  H  H41  1  0.61087300  0.17434700  0.51250600  1
  H  H42  1  0.61087300  0.43652600  0.01250600  1
  H  H43  1  0.82565300  0.38912700  0.01250600  1
  H  H44  1  0.56347400  0.17434700  0.01250600  1
  H  H45  1  0.76985933  0.27753967  0.15416067  1
  H  H46  1  0.50768033  0.23014067  0.15416067  1
  H  H47  1  0.72246033  0.49231967  0.15416067  1
  H  H48  1  0.38912700  0.56347400  0.98749400  1
  H  H49  1  0.17434700  0.61087300  0.98749400  1
  H  H50  1  0.43652600  0.82565300  0.98749400  1
  H  H51  1  0.23014067  0.72246033  0.84583933  1
  H  H52  1  0.49231967  0.76985933  0.84583933  1
  H  H53  1  0.27753967  0.50768033  0.84583933  1
  H  H54  1  0.27753967  0.76985933  0.34583933  1
  H  H55  1  0.49231967  0.72246033  0.34583933  1
  H  H56  1  0.23014067  0.50768033  0.34583933  1
  H  H57  1  0.43652600  0.61087300  0.48749400  1
  H  H58  1  0.17434700  0.56347400  0.48749400  1
  H  H59  1  0.38912700  0.82565300  0.48749400  1
  O  O60  1  0.01579333  0.85591967  0.39373667  1
  O  O61  1  0.84012633  0.98420667  0.39373667  1
  O  O62  1  0.14408033  0.15987367  0.39373667  1
  O  O63  1  0.52258633  0.34912667  0.43959667  1
  O  O64  1  0.82654033  0.47741367  0.43959667  1
  O  O65  1  0.65087333  0.17345967  0.43959667  1
  O  O66  1  0.98420667  0.14408033  0.60626333  1
  O  O67  1  0.15987367  0.01579333  0.60626333  1
  O  O68  1  0.85591967  0.84012633  0.60626333  1
  O  O69  1  0.47741367  0.65087333  0.56040333  1
  O  O70  1  0.17345967  0.52258633  0.56040333  1
  O  O71  1  0.34912667  0.82654033  0.56040333  1
  O  O72  1  0.68246000  0.18925300  0.72707000  1
  O  O73  1  0.50679300  0.31754000  0.72707000  1
  O  O74  1  0.81074700  0.49320700  0.72707000  1
  O  O75  1  0.18925300  0.68246000  0.77293000  1
  O  O76  1  0.49320700  0.81074700  0.77293000  1
  O  O77  1  0.31754000  0.50679300  0.77293000  1
  O  O78  1  0.65087333  0.47741367  0.93959667  1
  O  O79  1  0.82654033  0.34912667  0.93959667  1
  O  O80  1  0.52258633  0.17345967  0.93959667  1
  O  O81  1  0.14408033  0.98420667  0.89373667  1
  O  O82  1  0.84012633  0.85591967  0.89373667  1
  O  O83  1  0.01579333  0.15987367  0.89373667  1
  O  O84  1  0.34912667  0.52258633  0.06040333  1
  O  O85  1  0.17345967  0.65087333  0.06040333  1
  O  O86  1  0.47741367  0.82654033  0.06040333  1
  O  O87  1  0.85591967  0.01579333  0.10626333  1
  O  O88  1  0.15987367  0.14408033  0.10626333  1
  O  O89  1  0.98420667  0.84012633  0.10626333  1
  O  O90  1  0.31754000  0.81074700  0.27293000  1
  O  O91  1  0.49320700  0.68246000  0.27293000  1
  O  O92  1  0.18925300  0.50679300  0.27293000  1
  O  O93  1  0.81074700  0.31754000  0.22707000  1
  O  O94  1  0.50679300  0.18925300  0.22707000  1
  O  O95  1  0.68246000  0.49320700  0.22707000  1
