# generated using pymatgen
data_Nd2Ta2Cl2O7
_symmetry_space_group_name_H-M   'P 1'
_cell_length_a   15.56062000
_cell_length_b   3.95485200
_cell_length_c   6.95337202
_cell_angle_alpha   90.00000000
_cell_angle_beta   113.81198219
_cell_angle_gamma   90.00000000
_symmetry_Int_Tables_number   1
_chemical_formula_structural   Nd2Ta2Cl2O7
_chemical_formula_sum   'Nd4 Ta4 Cl4 O14'
_cell_volume   391.48441710
_cell_formula_units_Z   2
loop_
 _symmetry_equiv_pos_site_id
 _symmetry_equiv_pos_as_xyz
  1  'x, y, z'
loop_
 _atom_site_type_symbol
 _atom_site_label
 _atom_site_symmetry_multiplicity
 _atom_site_fract_x
 _atom_site_fract_y
 _atom_site_fract_z
 _atom_site_occupancy
  Nd  Nd0  1  0.30743700  0.00000000  0.83555400  1
  Nd  Nd1  1  0.19256300  0.50000000  0.16444600  1
  Nd  Nd2  1  0.80743700  0.50000000  0.83555400  1
  Nd  Nd3  1  0.69256300  0.00000000  0.16444600  1
  Ta  Ta4  1  0.46524400  0.50000000  0.20083300  1
  Ta  Ta5  1  0.03475600  0.00000000  0.79916700  1
  Ta  Ta6  1  0.96524400  0.00000000  0.20083300  1
  Ta  Ta7  1  0.53475600  0.50000000  0.79916700  1
  Cl  Cl8  1  0.17879000  0.50000000  0.56554000  1
  Cl  Cl9  1  0.32121000  0.00000000  0.43446000  1
  Cl  Cl10  1  0.67879000  0.00000000  0.56554000  1
  Cl  Cl11  1  0.82121000  0.50000000  0.43446000  1
  O  O12  1  0.45445100  0.00000000  0.16312500  1
  O  O13  1  0.04554900  0.50000000  0.83687500  1
  O  O14  1  0.41876800  0.50000000  0.84686100  1
  O  O15  1  0.00000000  0.00000000  0.50000000  1
  O  O16  1  0.32516900  0.50000000  0.06901800  1
  O  O17  1  0.08123200  0.00000000  0.15313900  1
  O  O18  1  0.17483100  0.00000000  0.93098200  1
  O  O19  1  0.95445100  0.50000000  0.16312500  1
  O  O20  1  0.54554900  0.00000000  0.83687500  1
  O  O21  1  0.91876800  0.00000000  0.84686100  1
  O  O22  1  0.50000000  0.50000000  0.50000000  1
  O  O23  1  0.82516900  0.00000000  0.06901800  1
  O  O24  1  0.58123200  0.50000000  0.15313900  1
  O  O25  1  0.67483100  0.50000000  0.93098200  1
