# generated using pymatgen
data_HgI2
_symmetry_space_group_name_H-M   'P 1'
_cell_length_a   13.26141600
_cell_length_b   13.26141600
_cell_length_c   25.86528200
_cell_angle_alpha   90.00000000
_cell_angle_beta   90.00000000
_cell_angle_gamma   90.00000000
_symmetry_Int_Tables_number   1
_chemical_formula_structural   HgI2
_chemical_formula_sum   'Hg32 I64'
_cell_volume   4548.80181059
_cell_formula_units_Z   32
loop_
 _symmetry_equiv_pos_site_id
 _symmetry_equiv_pos_as_xyz
  1  'x, y, z'
loop_
 _atom_site_type_symbol
 _atom_site_label
 _atom_site_symmetry_multiplicity
 _atom_site_fract_x
 _atom_site_fract_y
 _atom_site_fract_z
 _atom_site_occupancy
  Hg  Hg0  1  0.12464400  0.88228300  0.06165500  1
  Hg  Hg1  1  0.38228300  0.12464400  0.31165500  1
  Hg  Hg2  1  0.61771700  0.62464400  0.43834500  1
  Hg  Hg3  1  0.11771700  0.87535600  0.43834500  1
  Hg  Hg4  1  0.87535600  0.61771700  0.18834500  1
  Hg  Hg5  1  0.11771700  0.62464400  0.31165500  1
  Hg  Hg6  1  0.12464400  0.38228300  0.18834500  1
  Hg  Hg7  1  0.88228300  0.37535600  0.31165500  1
  Hg  Hg8  1  0.87535600  0.11771700  0.06165500  1
  Hg  Hg9  1  0.62464400  0.61771700  0.06165500  1
  Hg  Hg10  1  0.61771700  0.87535600  0.31165500  1
  Hg  Hg11  1  0.37535600  0.38228300  0.06165500  1
  Hg  Hg12  1  0.37535600  0.88228300  0.18834500  1
  Hg  Hg13  1  0.88228300  0.12464400  0.43834500  1
  Hg  Hg14  1  0.62464400  0.11771700  0.18834500  1
  Hg  Hg15  1  0.38228300  0.37535600  0.43834500  1
  Hg  Hg16  1  0.62464400  0.38228300  0.56165500  1
  Hg  Hg17  1  0.88228300  0.62464400  0.81165500  1
  Hg  Hg18  1  0.11771700  0.12464400  0.93834500  1
  Hg  Hg19  1  0.61771700  0.37535600  0.93834500  1
  Hg  Hg20  1  0.37535600  0.11771700  0.68834500  1
  Hg  Hg21  1  0.61771700  0.12464400  0.81165500  1
  Hg  Hg22  1  0.62464400  0.88228300  0.68834500  1
  Hg  Hg23  1  0.38228300  0.87535600  0.81165500  1
  Hg  Hg24  1  0.37535600  0.61771700  0.56165500  1
  Hg  Hg25  1  0.12464400  0.11771700  0.56165500  1
  Hg  Hg26  1  0.11771700  0.37535600  0.81165500  1
  Hg  Hg27  1  0.87535600  0.88228300  0.56165500  1
  Hg  Hg28  1  0.87535600  0.38228300  0.68834500  1
  Hg  Hg29  1  0.38228300  0.62464400  0.93834500  1
  Hg  Hg30  1  0.12464400  0.61771700  0.68834500  1
  Hg  Hg31  1  0.88228300  0.87535600  0.93834500  1
  I  I32  1  0.25493800  0.25000000  0.37500000  1
  I  I33  1  0.75000000  0.74506200  0.12500000  1
  I  I34  1  0.00572700  0.24653300  0.24962400  1
  I  I35  1  0.50000000  0.50000000  0.37106500  1
  I  I36  1  0.75493800  0.25000000  0.37500000  1
  I  I37  1  0.25000000  0.25493800  0.12500000  1
  I  I38  1  0.50572700  0.25346700  0.24962400  1
  I  I39  1  0.00572700  0.74653300  0.00037600  1
  I  I40  1  0.50000000  0.00000000  0.37893500  1
  I  I41  1  0.50572700  0.75346700  0.00037600  1
  I  I42  1  0.75346700  0.99427300  0.25037600  1
  I  I43  1  0.00000000  0.50000000  0.37893500  1
  I  I44  1  0.24506200  0.75000000  0.37500000  1
  I  I45  1  0.75000000  0.24506200  0.12500000  1
  I  I46  1  0.99427300  0.75346700  0.24962400  1
  I  I47  1  0.25346700  0.50572700  0.25037600  1
  I  I48  1  0.00000000  0.50000000  0.12106500  1
  I  I49  1  0.99427300  0.25346700  0.00037600  1
  I  I50  1  0.74506200  0.75000000  0.37500000  1
  I  I51  1  0.49427300  0.24653300  0.00037600  1
  I  I52  1  0.24653300  0.00572700  0.25037600  1
  I  I53  1  0.50000000  0.00000000  0.12106500  1
  I  I54  1  0.75346700  0.50572700  0.49962400  1
  I  I55  1  0.00000000  0.00000000  0.12893500  1
  I  I56  1  0.74653300  0.00572700  0.49962400  1
  I  I57  1  0.74653300  0.49427300  0.25037600  1
  I  I58  1  0.00000000  0.00000000  0.37106500  1
  I  I59  1  0.25346700  0.99427300  0.49962400  1
  I  I60  1  0.24653300  0.49427300  0.49962400  1
  I  I61  1  0.25000000  0.75493800  0.12500000  1
  I  I62  1  0.50000000  0.50000000  0.12893500  1
  I  I63  1  0.49427300  0.74653300  0.24962400  1
  I  I64  1  0.75493800  0.75000000  0.87500000  1
  I  I65  1  0.25000000  0.24506200  0.62500000  1
  I  I66  1  0.50572700  0.74653300  0.74962400  1
  I  I67  1  0.00000000  0.00000000  0.87106500  1
  I  I68  1  0.25493800  0.75000000  0.87500000  1
  I  I69  1  0.75000000  0.75493800  0.62500000  1
  I  I70  1  0.00572700  0.75346700  0.74962400  1
  I  I71  1  0.50572700  0.24653300  0.50037600  1
  I  I72  1  0.00000000  0.50000000  0.87893500  1
  I  I73  1  0.00572700  0.25346700  0.50037600  1
  I  I74  1  0.25346700  0.49427300  0.75037600  1
  I  I75  1  0.50000000  0.00000000  0.87893500  1
  I  I76  1  0.74506200  0.25000000  0.87500000  1
  I  I77  1  0.25000000  0.74506200  0.62500000  1
  I  I78  1  0.49427300  0.25346700  0.74962400  1
  I  I79  1  0.75346700  0.00572700  0.75037600  1
  I  I80  1  0.50000000  0.00000000  0.62106500  1
  I  I81  1  0.49427300  0.75346700  0.50037600  1
  I  I82  1  0.24506200  0.25000000  0.87500000  1
  I  I83  1  0.99427300  0.74653300  0.50037600  1
  I  I84  1  0.74653300  0.50572700  0.75037600  1
  I  I85  1  0.00000000  0.50000000  0.62106500  1
  I  I86  1  0.25346700  0.00572700  0.99962400  1
  I  I87  1  0.50000000  0.50000000  0.62893500  1
  I  I88  1  0.24653300  0.50572700  0.99962400  1
  I  I89  1  0.24653300  0.99427300  0.75037600  1
  I  I90  1  0.50000000  0.50000000  0.87106500  1
  I  I91  1  0.75346700  0.49427300  0.99962400  1
  I  I92  1  0.74653300  0.99427300  0.99962400  1
  I  I93  1  0.75000000  0.25493800  0.62500000  1
  I  I94  1  0.00000000  0.00000000  0.62893500  1
  I  I95  1  0.99427300  0.24653300  0.74962400  1
