# generated using pymatgen
data_SiO2
_symmetry_space_group_name_H-M   'P 1'
_cell_length_a   5.06443200
_cell_length_b   8.91893000
_cell_length_c   8.37876700
_cell_angle_alpha   90.00000000
_cell_angle_beta   90.00000000
_cell_angle_gamma   90.00000000
_symmetry_Int_Tables_number   1
_chemical_formula_structural   SiO2
_chemical_formula_sum   'Si8 O16'
_cell_volume   378.46316173
_cell_formula_units_Z   8
loop_
 _symmetry_equiv_pos_site_id
 _symmetry_equiv_pos_as_xyz
  1  'x, y, z'
loop_
 _atom_site_type_symbol
 _atom_site_label
 _atom_site_symmetry_multiplicity
 _atom_site_fract_x
 _atom_site_fract_y
 _atom_site_fract_z
 _atom_site_occupancy
  Si  Si0  1  0.50450250  0.16512950  0.06260400  1
  Si  Si1  1  0.00450250  0.33487050  0.56260400  1
  Si  Si2  1  0.50450250  0.16512950  0.43739600  1
  Si  Si3  1  0.00450250  0.33487050  0.93739600  1
  Si  Si4  1  0.00450250  0.66512950  0.06260400  1
  Si  Si5  1  0.50450250  0.83487050  0.56260400  1
  Si  Si6  1  0.00450250  0.66512950  0.43739600  1
  Si  Si7  1  0.50450250  0.83487050  0.93739600  1
  O  O8  1  0.59313300  0.00000000  0.00000000  1
  O  O9  1  0.75104450  0.27970350  0.45935600  1
  O  O10  1  0.92277450  0.33978750  0.75000000  1
  O  O11  1  0.25104450  0.22029650  0.54064400  1
  O  O12  1  0.42277450  0.16021250  0.25000000  1
  O  O13  1  0.25104450  0.22029650  0.95935600  1
  O  O14  1  0.59313300  0.00000000  0.50000000  1
  O  O15  1  0.75104450  0.27970350  0.04064400  1
  O  O16  1  0.09313300  0.50000000  0.00000000  1
  O  O17  1  0.25104450  0.77970350  0.45935600  1
  O  O18  1  0.42277450  0.83978750  0.75000000  1
  O  O19  1  0.75104450  0.72029650  0.54064400  1
  O  O20  1  0.92277450  0.66021250  0.25000000  1
  O  O21  1  0.75104450  0.72029650  0.95935600  1
  O  O22  1  0.09313300  0.50000000  0.50000000  1
  O  O23  1  0.25104450  0.77970350  0.04064400  1
