# generated using pymatgen
data_Ba3Sc(BO2)9
_symmetry_space_group_name_H-M   'P 1'
_cell_length_a   7.24018768
_cell_length_b   7.24018768
_cell_length_c   16.91403400
_cell_angle_alpha   90.00000000
_cell_angle_beta   90.00000000
_cell_angle_gamma   120.00000000
_symmetry_Int_Tables_number   1
_chemical_formula_structural   Ba3Sc(BO2)9
_chemical_formula_sum   'Ba6 Sc2 B18 O36'
_cell_volume   767.85192845
_cell_formula_units_Z   2
loop_
 _symmetry_equiv_pos_site_id
 _symmetry_equiv_pos_as_xyz
  1  'x, y, z'
loop_
 _atom_site_type_symbol
 _atom_site_label
 _atom_site_symmetry_multiplicity
 _atom_site_fract_x
 _atom_site_fract_y
 _atom_site_fract_z
 _atom_site_occupancy
  Ba  Ba0  1  0.33333333  0.66666667  0.12860500  1
  Ba  Ba1  1  0.66666667  0.33333333  0.62860500  1
  Ba  Ba2  1  0.00000000  0.00000000  0.75000000  1
  Ba  Ba3  1  0.33333333  0.66666667  0.37139500  1
  Ba  Ba4  1  0.66666667  0.33333333  0.87139500  1
  Ba  Ba5  1  0.00000000  0.00000000  0.25000000  1
  Sc  Sc6  1  0.00000000  0.00000000  0.00000000  1
  Sc  Sc7  1  0.00000000  0.00000000  0.50000000  1
  B  B8  1  0.88421800  0.38005400  0.25000000  1
  B  B9  1  0.27395600  0.82890900  0.57854100  1
  B  B10  1  0.44504700  0.27395600  0.42145900  1
  B  B11  1  0.49583600  0.11578200  0.25000000  1
  B  B12  1  0.55495300  0.72604400  0.57854100  1
  B  B13  1  0.61994600  0.50416400  0.25000000  1
  B  B14  1  0.72604400  0.17109100  0.07854100  1
  B  B15  1  0.72604400  0.17109100  0.42145900  1
  B  B16  1  0.55495300  0.72604400  0.92145900  1
  B  B17  1  0.38005400  0.49583600  0.75000000  1
  B  B18  1  0.50416400  0.88421800  0.75000000  1
  B  B19  1  0.27395600  0.82890900  0.92145900  1
  B  B20  1  0.17109100  0.44504700  0.57854100  1
  B  B21  1  0.44504700  0.27395600  0.07854100  1
  B  B22  1  0.17109100  0.44504700  0.92145900  1
  B  B23  1  0.82890900  0.55495300  0.07854100  1
  B  B24  1  0.11578200  0.61994600  0.75000000  1
  B  B25  1  0.82890900  0.55495300  0.42145900  1
  O  O26  1  0.49018300  0.88023500  0.57906200  1
  O  O27  1  0.98459400  0.75792400  0.42309200  1
  O  O28  1  0.60994800  0.49018300  0.42093800  1
  O  O29  1  0.54330500  0.71096400  0.75000000  1
  O  O30  1  0.71096400  0.16765900  0.25000000  1
  O  O31  1  0.88023500  0.39005200  0.07906200  1
  O  O32  1  0.39005200  0.50981700  0.92093800  1
  O  O33  1  0.58346000  0.66660100  0.25000000  1
  O  O34  1  0.24207600  0.22667000  0.07690800  1
  O  O35  1  0.66660100  0.08314100  0.75000000  1
  O  O36  1  0.33339900  0.91685900  0.25000000  1
  O  O37  1  0.75792400  0.77333000  0.92309200  1
  O  O38  1  0.11976500  0.60994800  0.57906200  1
  O  O39  1  0.91685900  0.58346000  0.75000000  1
  O  O40  1  0.39005200  0.50981700  0.57906200  1
  O  O41  1  0.77333000  0.01540600  0.42309200  1
  O  O42  1  0.16765900  0.45669500  0.75000000  1
  O  O43  1  0.49018300  0.88023500  0.92093800  1
  O  O44  1  0.41654000  0.33339900  0.75000000  1
  O  O45  1  0.28903600  0.83234100  0.75000000  1
  O  O46  1  0.11976500  0.60994800  0.92093800  1
  O  O47  1  0.75792400  0.77333000  0.57690800  1
  O  O48  1  0.01540600  0.24207600  0.92309200  1
  O  O49  1  0.50981700  0.11976500  0.42093800  1
  O  O50  1  0.24207600  0.22667000  0.42309200  1
  O  O51  1  0.77333000  0.01540600  0.07690800  1
  O  O52  1  0.22667000  0.98459400  0.92309200  1
  O  O53  1  0.01540600  0.24207600  0.57690800  1
  O  O54  1  0.83234100  0.54330500  0.25000000  1
  O  O55  1  0.88023500  0.39005200  0.42093800  1
  O  O56  1  0.45669500  0.28903600  0.25000000  1
  O  O57  1  0.50981700  0.11976500  0.07906200  1
  O  O58  1  0.22667000  0.98459400  0.57690800  1
  O  O59  1  0.60994800  0.49018300  0.07906200  1
  O  O60  1  0.08314100  0.41654000  0.25000000  1
  O  O61  1  0.98459400  0.75792400  0.07690800  1
