# generated using pymatgen
data_Na3TmSi2O7
_symmetry_space_group_name_H-M   'P 1'
_cell_length_a   9.45910764
_cell_length_b   9.45910764
_cell_length_c   13.83395300
_cell_angle_alpha   90.00000000
_cell_angle_beta   90.00000000
_cell_angle_gamma   120.00000000
_symmetry_Int_Tables_number   1
_chemical_formula_structural   Na3TmSi2O7
_chemical_formula_sum   'Na18 Tm6 Si12 O42'
_cell_volume   1071.95674896
_cell_formula_units_Z   6
loop_
 _symmetry_equiv_pos_site_id
 _symmetry_equiv_pos_as_xyz
  1  'x, y, z'
loop_
 _atom_site_type_symbol
 _atom_site_label
 _atom_site_symmetry_multiplicity
 _atom_site_fract_x
 _atom_site_fract_y
 _atom_site_fract_z
 _atom_site_occupancy
  Na  Na0  1  0.01558600  0.68364300  0.89279000  1
  Na  Na1  1  0.98441400  0.31635700  0.39279000  1
  Na  Na2  1  0.00000000  0.00000000  0.98139200  1
  Na  Na3  1  0.33100300  0.01532100  0.06986700  1
  Na  Na4  1  0.66805700  0.98441400  0.89279000  1
  Na  Na5  1  0.31635700  0.33194300  0.89279000  1
  Na  Na6  1  0.98467900  0.31568200  0.06986700  1
  Na  Na7  1  0.33333333  0.66666667  0.73158400  1
  Na  Na8  1  0.33194300  0.01558600  0.39279000  1
  Na  Na9  1  0.31568200  0.33100300  0.56986700  1
  Na  Na10  1  0.68431800  0.66899700  0.06986700  1
  Na  Na11  1  0.68364300  0.66805700  0.39279000  1
  Na  Na12  1  0.66899700  0.98467900  0.56986700  1
  Na  Na13  1  0.00000000  0.00000000  0.48139200  1
  Na  Na14  1  0.66666667  0.33333333  0.23158400  1
  Na  Na15  1  0.33333333  0.66666667  0.21455900  1
  Na  Na16  1  0.01532100  0.68431800  0.56986700  1
  Na  Na17  1  0.66666667  0.33333333  0.71455900  1
  Tm  Tm18  1  0.33333333  0.66666667  0.96289800  1
  Tm  Tm19  1  0.00000000  0.00000000  0.73184500  1
  Tm  Tm20  1  0.00000000  0.00000000  0.23184500  1
  Tm  Tm21  1  0.33333333  0.66666667  0.49992000  1
  Tm  Tm22  1  0.66666667  0.33333333  0.46289800  1
  Tm  Tm23  1  0.66666667  0.33333333  0.99992000  1
  Si  Si24  1  0.67205100  0.65322400  0.84200300  1
  Si  Si25  1  0.98197700  0.32918500  0.62313800  1
  Si  Si26  1  0.65279200  0.98197700  0.12313800  1
  Si  Si27  1  0.01882700  0.67205100  0.34200300  1
  Si  Si28  1  0.34720800  0.01802300  0.62313800  1
  Si  Si29  1  0.32918500  0.34720800  0.12313800  1
  Si  Si30  1  0.34677600  0.01882700  0.84200300  1
  Si  Si31  1  0.32794900  0.34677600  0.34200300  1
  Si  Si32  1  0.67081500  0.65279200  0.62313800  1
  Si  Si33  1  0.65322400  0.98117300  0.34200300  1
  Si  Si34  1  0.01802300  0.67081500  0.12313800  1
  Si  Si35  1  0.98117300  0.32794900  0.84200300  1
  O  O36  1  0.95426200  0.80299300  0.12293300  1
  O  O37  1  0.82719300  0.27234100  0.54881400  1
  O  O38  1  0.44514800  0.17280700  0.54881400  1
  O  O39  1  0.55485200  0.82719300  0.04881400  1
  O  O40  1  0.32355400  0.42275800  0.23266600  1
  O  O41  1  0.26963800  0.44053700  0.41829500  1
  O  O42  1  0.84873100  0.04573800  0.12293300  1
  O  O43  1  0.19700700  0.15126900  0.12293300  1
  O  O44  1  0.61234700  0.12759100  0.10147000  1
  O  O45  1  0.67644600  0.57724200  0.73266600  1
  O  O46  1  0.48475600  0.61234700  0.60147000  1
  O  O47  1  0.48584900  0.61294700  0.86362500  1
  O  O48  1  0.84970600  0.04695600  0.34066700  1
  O  O49  1  0.38705300  0.87290200  0.86362500  1
  O  O50  1  0.04573800  0.19700700  0.62293300  1
  O  O51  1  0.55946300  0.82910100  0.41829500  1
  O  O52  1  0.12759100  0.51524400  0.60147000  1
  O  O53  1  0.09920400  0.67644600  0.23266600  1
  O  O54  1  0.12709800  0.51415100  0.86362500  1
  O  O55  1  0.17089900  0.73036200  0.41829500  1
  O  O56  1  0.19725000  0.15029400  0.34066700  1
  O  O57  1  0.57724200  0.90079600  0.23266600  1
  O  O58  1  0.87240900  0.48475600  0.10147000  1
  O  O59  1  0.04695600  0.19725000  0.84066700  1
  O  O60  1  0.73036200  0.55946300  0.91829500  1
  O  O61  1  0.27234100  0.44514800  0.04881400  1
  O  O62  1  0.87290200  0.48584900  0.36362500  1
  O  O63  1  0.51524400  0.38765300  0.10147000  1
  O  O64  1  0.15126900  0.95426200  0.62293300  1
  O  O65  1  0.72765900  0.55485200  0.54881400  1
  O  O66  1  0.38765300  0.87240900  0.60147000  1
  O  O67  1  0.44053700  0.17089900  0.91829500  1
  O  O68  1  0.82910100  0.26963800  0.91829500  1
  O  O69  1  0.80275000  0.84970600  0.84066700  1
  O  O70  1  0.90079600  0.32355400  0.73266600  1
  O  O71  1  0.17280700  0.72765900  0.04881400  1
  O  O72  1  0.61294700  0.12709800  0.36362500  1
  O  O73  1  0.15029400  0.95304400  0.84066700  1
  O  O74  1  0.51415100  0.38705300  0.36362500  1
  O  O75  1  0.42275800  0.09920400  0.73266600  1
  O  O76  1  0.80299300  0.84873100  0.62293300  1
  O  O77  1  0.95304400  0.80275000  0.34066700  1
