# generated using pymatgen
data_SiO2
_symmetry_space_group_name_H-M   'P 1'
_cell_length_a   8.54470400
_cell_length_b   10.41905800
_cell_length_c   8.89197800
_cell_angle_alpha   90.00000000
_cell_angle_beta   90.00000000
_cell_angle_gamma   90.00000000
_symmetry_Int_Tables_number   1
_chemical_formula_structural   SiO2
_chemical_formula_sum   'Si16 O32'
_cell_volume   791.63294172
_cell_formula_units_Z   16
loop_
 _symmetry_equiv_pos_site_id
 _symmetry_equiv_pos_as_xyz
  1  'x, y, z'
loop_
 _atom_site_type_symbol
 _atom_site_label
 _atom_site_symmetry_multiplicity
 _atom_site_fract_x
 _atom_site_fract_y
 _atom_site_fract_z
 _atom_site_occupancy
  Si  Si0  1  0.31659550  0.13681750  0.58136500  1
  Si  Si1  1  0.68340450  0.13681750  0.58136500  1
  Si  Si2  1  0.31659550  0.86318250  0.08136500  1
  Si  Si3  1  0.18333250  0.10147550  0.90915400  1
  Si  Si4  1  0.81666750  0.89852450  0.40915400  1
  Si  Si5  1  0.68340450  0.86318250  0.08136500  1
  Si  Si6  1  0.18333250  0.89852450  0.40915400  1
  Si  Si7  1  0.81666750  0.10147550  0.90915400  1
  Si  Si8  1  0.81659550  0.63681750  0.58136500  1
  Si  Si9  1  0.18340450  0.63681750  0.58136500  1
  Si  Si10  1  0.81659550  0.36318250  0.08136500  1
  Si  Si11  1  0.68333250  0.60147550  0.90915400  1
  Si  Si12  1  0.31666750  0.39852450  0.40915400  1
  Si  Si13  1  0.18340450  0.36318250  0.08136500  1
  Si  Si14  1  0.68333250  0.39852450  0.40915400  1
  Si  Si15  1  0.31666750  0.60147550  0.90915400  1
  O  O16  1  0.50000000  0.43057800  0.44093900  1
  O  O17  1  0.20891100  0.87989200  0.22992400  1
  O  O18  1  0.20891100  0.12010800  0.72992400  1
  O  O19  1  0.23491350  0.76884850  0.49765300  1
  O  O20  1  0.23491350  0.23115150  0.99765300  1
  O  O21  1  0.79108900  0.12010800  0.72992400  1
  O  O22  1  0.76508650  0.23115150  0.99765300  1
  O  O23  1  0.70954700  0.98340600  0.96807500  1
  O  O24  1  0.76508650  0.76884850  0.49765300  1
  O  O25  1  0.50000000  0.85667400  0.13013300  1
  O  O26  1  0.70954700  0.01659400  0.46807500  1
  O  O27  1  0.79108900  0.87989200  0.22992400  1
  O  O28  1  0.50000000  0.56942200  0.94093900  1
  O  O29  1  0.50000000  0.14332600  0.63013300  1
  O  O30  1  0.29045300  0.01659400  0.46807500  1
  O  O31  1  0.29045300  0.98340600  0.96807500  1
  O  O32  1  0.00000000  0.93057800  0.44093900  1
  O  O33  1  0.70891100  0.37989200  0.22992400  1
  O  O34  1  0.70891100  0.62010800  0.72992400  1
  O  O35  1  0.73491350  0.26884850  0.49765300  1
  O  O36  1  0.73491350  0.73115150  0.99765300  1
  O  O37  1  0.29108900  0.62010800  0.72992400  1
  O  O38  1  0.26508650  0.73115150  0.99765300  1
  O  O39  1  0.20954700  0.48340600  0.96807500  1
  O  O40  1  0.26508650  0.26884850  0.49765300  1
  O  O41  1  0.00000000  0.35667400  0.13013300  1
  O  O42  1  0.20954700  0.51659400  0.46807500  1
  O  O43  1  0.29108900  0.37989200  0.22992400  1
  O  O44  1  0.00000000  0.06942200  0.94093900  1
  O  O45  1  0.00000000  0.64332600  0.63013300  1
  O  O46  1  0.79045300  0.51659400  0.46807500  1
  O  O47  1  0.79045300  0.48340600  0.96807500  1
