# generated using pymatgen
data_K2LiBO3
_symmetry_space_group_name_H-M   'P 1'
_cell_length_a   8.85688800
_cell_length_b   6.16550200
_cell_length_c   7.43993665
_cell_angle_alpha   90.00000000
_cell_angle_beta   102.48117957
_cell_angle_gamma   90.00000000
_symmetry_Int_Tables_number   1
_chemical_formula_structural   K2LiBO3
_chemical_formula_sum   'K8 Li4 B4 O12'
_cell_volume   396.67236734
_cell_formula_units_Z   4
loop_
 _symmetry_equiv_pos_site_id
 _symmetry_equiv_pos_as_xyz
  1  'x, y, z'
loop_
 _atom_site_type_symbol
 _atom_site_label
 _atom_site_symmetry_multiplicity
 _atom_site_fract_x
 _atom_site_fract_y
 _atom_site_fract_z
 _atom_site_occupancy
  K  K0  1  0.67352100  0.16704500  0.67506000  1
  K  K1  1  0.50000000  0.66463100  0.50000000  1
  K  K2  1  0.50000000  0.49765300  0.00000000  1
  K  K3  1  0.32647900  0.16704500  0.32494000  1
  K  K4  1  0.17352100  0.66704500  0.67506000  1
  K  K5  1  0.00000000  0.16463100  0.50000000  1
  K  K6  1  0.00000000  0.99765300  0.00000000  1
  K  K7  1  0.82647900  0.66704500  0.32494000  1
  Li  Li8  1  0.36405750  0.90515350  0.03170500  1
  Li  Li9  1  0.63594250  0.90515350  0.96829500  1
  Li  Li10  1  0.86405750  0.40515350  0.03170500  1
  Li  Li11  1  0.13594250  0.40515350  0.96829500  1
  B  B12  1  0.35209200  0.13830800  0.78345000  1
  B  B13  1  0.64790800  0.13830800  0.21655000  1
  B  B14  1  0.85209200  0.63830800  0.78345000  1
  B  B15  1  0.14790800  0.63830800  0.21655000  1
  O  O16  1  0.43241100  0.93916300  0.78719700  1
  O  O17  1  0.56758900  0.93916300  0.21280300  1
  O  O18  1  0.36928500  0.30628200  0.66619200  1
  O  O19  1  0.74136550  0.16350750  0.08653000  1
  O  O20  1  0.25863450  0.16350750  0.91347000  1
  O  O21  1  0.63071500  0.30628200  0.33380800  1
  O  O22  1  0.93241100  0.43916300  0.78719700  1
  O  O23  1  0.06758900  0.43916300  0.21280300  1
  O  O24  1  0.86928500  0.80628200  0.66619200  1
  O  O25  1  0.24136550  0.66350750  0.08653000  1
  O  O26  1  0.75863450  0.66350750  0.91347000  1
  O  O27  1  0.13071500  0.80628200  0.33380800  1
