# generated using pymatgen
data_Al6C3N2
_symmetry_space_group_name_H-M   'P 1'
_cell_length_a   3.27591010
_cell_length_b   3.27591010
_cell_length_c   40.52214465
_cell_angle_alpha   90.00000000
_cell_angle_beta   90.00000000
_cell_angle_gamma   120.00000000
_symmetry_Int_Tables_number   1
_chemical_formula_structural   Al6C3N2
_chemical_formula_sum   'Al18 C9 N6'
_cell_volume   376.60580100
_cell_formula_units_Z   3
loop_
 _symmetry_equiv_pos_site_id
 _symmetry_equiv_pos_as_xyz
  1  'x, y, z'
loop_
 _atom_site_type_symbol
 _atom_site_label
 _atom_site_symmetry_multiplicity
 _atom_site_fract_x
 _atom_site_fract_y
 _atom_site_fract_z
 _atom_site_occupancy
  Al  Al0  1  0.66666667  0.33333333  0.02496433  1
  Al  Al1  1  0.00000000  0.00000000  0.08758100  1
  Al  Al2  1  0.66666667  0.33333333  0.14421933  1
  Al  Al3  1  0.00000000  0.00000000  0.18911400  1
  Al  Al4  1  0.66666667  0.33333333  0.24575233  1
  Al  Al5  1  0.00000000  0.00000000  0.30836900  1
  Al  Al6  1  0.33333333  0.66666667  0.35829767  1
  Al  Al7  1  0.66666667  0.33333333  0.42091433  1
  Al  Al8  1  0.33333333  0.66666667  0.47755267  1
  Al  Al9  1  0.66666667  0.33333333  0.52244733  1
  Al  Al10  1  0.33333333  0.66666667  0.57908567  1
  Al  Al11  1  0.66666667  0.33333333  0.64170233  1
  Al  Al12  1  0.00000000  0.00000000  0.69163100  1
  Al  Al13  1  0.33333333  0.66666667  0.75424767  1
  Al  Al14  1  0.00000000  0.00000000  0.81088600  1
  Al  Al15  1  0.33333333  0.66666667  0.85578067  1
  Al  Al16  1  0.00000000  0.00000000  0.91241900  1
  Al  Al17  1  0.33333333  0.66666667  0.97503567  1
  C  C18  1  0.00000000  0.00000000  0.00000000  1
  C  C19  1  0.66666667  0.33333333  0.19875433  1
  C  C20  1  0.00000000  0.00000000  0.13457900  1
  C  C21  1  0.66666667  0.33333333  0.33333333  1
  C  C22  1  0.33333333  0.66666667  0.53208767  1
  C  C23  1  0.66666667  0.33333333  0.46791233  1
  C  C24  1  0.33333333  0.66666667  0.66666667  1
  C  C25  1  0.00000000  0.00000000  0.86542100  1
  C  C26  1  0.33333333  0.66666667  0.80124567  1
  N  N27  1  0.00000000  0.00000000  0.26391800  1
  N  N28  1  0.66666667  0.33333333  0.06941533  1
  N  N29  1  0.66666667  0.33333333  0.59725133  1
  N  N30  1  0.33333333  0.66666667  0.40274867  1
  N  N31  1  0.33333333  0.66666667  0.93058467  1
  N  N32  1  0.00000000  0.00000000  0.73608200  1
