# generated using pymatgen
data_Ba17Dy16Zn8Pt4O57
_symmetry_space_group_name_H-M   'P 1'
_cell_length_a   23.13878800
_cell_length_b   23.13878800
_cell_length_c   5.77171800
_cell_angle_alpha   90.00000000
_cell_angle_beta   90.00000000
_cell_angle_gamma   90.00000000
_symmetry_Int_Tables_number   1
_chemical_formula_structural   Ba17Dy16Zn8Pt4O57
_chemical_formula_sum   'Ba34 Dy32 Zn16 Pt8 O114'
_cell_volume   3090.19807656
_cell_formula_units_Z   2
loop_
 _symmetry_equiv_pos_site_id
 _symmetry_equiv_pos_as_xyz
  1  'x, y, z'
loop_
 _atom_site_type_symbol
 _atom_site_label
 _atom_site_symmetry_multiplicity
 _atom_site_fract_x
 _atom_site_fract_y
 _atom_site_fract_z
 _atom_site_occupancy
  Ba  Ba0  1  0.56759400  0.94165900  0.50000000  1
  Ba  Ba1  1  0.27662800  0.88809800  0.00000000  1
  Ba  Ba2  1  0.84174550  0.14956550  0.50000000  1
  Ba  Ba3  1  0.43240600  0.05834100  0.50000000  1
  Ba  Ba4  1  0.68917200  0.23230900  0.50000000  1
  Ba  Ba5  1  0.26769100  0.18917200  0.00000000  1
  Ba  Ba6  1  0.64956550  0.65825450  0.00000000  1
  Ba  Ba7  1  0.35043450  0.34174550  0.00000000  1
  Ba  Ba8  1  0.61190200  0.77662800  0.50000000  1
  Ba  Ba9  1  0.31082800  0.76769100  0.50000000  1
  Ba  Ba10  1  0.73230900  0.81082800  0.00000000  1
  Ba  Ba11  1  0.44165900  0.93240600  0.00000000  1
  Ba  Ba12  1  0.55834100  0.06759400  0.00000000  1
  Ba  Ba13  1  0.15825450  0.85043450  0.50000000  1
  Ba  Ba14  1  0.72337200  0.11190200  0.00000000  1
  Ba  Ba15  1  0.00000000  0.00000000  0.00000000  1
  Ba  Ba16  1  0.38809800  0.22337200  0.50000000  1
  Ba  Ba17  1  0.06759400  0.44165900  0.00000000  1
  Ba  Ba18  1  0.77662800  0.38809800  0.50000000  1
  Ba  Ba19  1  0.34174550  0.64956550  0.00000000  1
  Ba  Ba20  1  0.93240600  0.55834100  0.00000000  1
  Ba  Ba21  1  0.18917200  0.73230900  0.00000000  1
  Ba  Ba22  1  0.76769100  0.68917200  0.50000000  1
  Ba  Ba23  1  0.14956550  0.15825450  0.50000000  1
  Ba  Ba24  1  0.85043450  0.84174550  0.50000000  1
  Ba  Ba25  1  0.11190200  0.27662800  0.00000000  1
  Ba  Ba26  1  0.81082800  0.26769100  0.00000000  1
  Ba  Ba27  1  0.23230900  0.31082800  0.50000000  1
  Ba  Ba28  1  0.94165900  0.43240600  0.50000000  1
  Ba  Ba29  1  0.05834100  0.56759400  0.50000000  1
  Ba  Ba30  1  0.65825450  0.35043450  0.00000000  1
  Ba  Ba31  1  0.22337200  0.61190200  0.50000000  1
  Ba  Ba32  1  0.50000000  0.50000000  0.50000000  1
  Ba  Ba33  1  0.88809800  0.72337200  0.00000000  1
  Dy  Dy34  1  0.48838400  0.40034500  0.00000000  1
  Dy  Dy35  1  0.24960800  0.99372500  0.50000000  1
  Dy  Dy36  1  0.32624450  0.04977250  0.00000000  1
  Dy  Dy37  1  0.54977250  0.17375550  0.50000000  1
  Dy  Dy38  1  0.75039200  0.00627500  0.50000000  1
  Dy  Dy39  1  0.51161600  0.59965500  0.00000000  1
  Dy  Dy40  1  0.50627500  0.74960800  0.00000000  1
  Dy  Dy41  1  0.45022750  0.82624450  0.50000000  1
  Dy  Dy42  1  0.44766000  0.67204600  0.50000000  1
  Dy  Dy43  1  0.90034500  0.01161600  0.50000000  1
  Dy  Dy44  1  0.49372500  0.25039200  0.00000000  1
  Dy  Dy45  1  0.17204600  0.05234000  0.00000000  1
  Dy  Dy46  1  0.09965500  0.98838400  0.50000000  1
  Dy  Dy47  1  0.82795400  0.94766000  0.00000000  1
  Dy  Dy48  1  0.55234000  0.32795400  0.50000000  1
  Dy  Dy49  1  0.67375550  0.95022750  0.00000000  1
  Dy  Dy50  1  0.98838400  0.90034500  0.50000000  1
  Dy  Dy51  1  0.74960800  0.49372500  0.00000000  1
  Dy  Dy52  1  0.82624450  0.54977250  0.50000000  1
  Dy  Dy53  1  0.04977250  0.67375550  0.00000000  1
  Dy  Dy54  1  0.25039200  0.50627500  0.00000000  1
  Dy  Dy55  1  0.01161600  0.09965500  0.50000000  1
  Dy  Dy56  1  0.00627500  0.24960800  0.50000000  1
  Dy  Dy57  1  0.95022750  0.32624450  0.00000000  1
  Dy  Dy58  1  0.94766000  0.17204600  0.00000000  1
  Dy  Dy59  1  0.40034500  0.51161600  0.00000000  1
  Dy  Dy60  1  0.99372500  0.75039200  0.50000000  1
  Dy  Dy61  1  0.67204600  0.55234000  0.50000000  1
  Dy  Dy62  1  0.59965500  0.48838400  0.00000000  1
  Dy  Dy63  1  0.32795400  0.44766000  0.50000000  1
  Dy  Dy64  1  0.05234000  0.82795400  0.00000000  1
  Dy  Dy65  1  0.17375550  0.45022750  0.50000000  1
  Zn  Zn66  1  0.13357300  0.92427400  0.00000000  1
  Zn  Zn67  1  0.42427400  0.36642700  0.50000000  1
  Zn  Zn68  1  0.28768300  0.12090000  0.50000000  1
  Zn  Zn69  1  0.86642700  0.07572600  0.00000000  1
  Zn  Zn70  1  0.57572600  0.63357300  0.50000000  1
  Zn  Zn71  1  0.37910000  0.78768300  0.00000000  1
  Zn  Zn72  1  0.62090000  0.21231700  0.00000000  1
  Zn  Zn73  1  0.71231700  0.87910000  0.50000000  1
  Zn  Zn74  1  0.63357300  0.42427400  0.50000000  1
  Zn  Zn75  1  0.92427400  0.86642700  0.00000000  1
  Zn  Zn76  1  0.78768300  0.62090000  0.00000000  1
  Zn  Zn77  1  0.36642700  0.57572600  0.50000000  1
  Zn  Zn78  1  0.07572600  0.13357300  0.00000000  1
  Zn  Zn79  1  0.87910000  0.28768300  0.50000000  1
  Zn  Zn80  1  0.12090000  0.71231700  0.50000000  1
  Zn  Zn81  1  0.21231700  0.37910000  0.00000000  1
  Pt  Pt82  1  0.64431100  0.08294400  0.50000000  1
  Pt  Pt83  1  0.35568900  0.91705600  0.50000000  1
  Pt  Pt84  1  0.41705600  0.14431100  0.00000000  1
  Pt  Pt85  1  0.58294400  0.85568900  0.00000000  1
  Pt  Pt86  1  0.14431100  0.58294400  0.00000000  1
  Pt  Pt87  1  0.85568900  0.41705600  0.00000000  1
  Pt  Pt88  1  0.91705600  0.64431100  0.50000000  1
  Pt  Pt89  1  0.08294400  0.35568900  0.50000000  1
  O  O90  1  0.57162850  0.25241450  0.25147350  1
  O  O91  1  0.47783050  0.16707150  0.24184250  1
  O  O92  1  0.56543900  0.41036600  0.75066100  1
  O  O93  1  0.42837150  0.74758550  0.25147350  1
  O  O94  1  0.29902250  0.76045250  0.00000000  1
  O  O95  1  0.60802750  0.76893050  0.00000000  1
  O  O96  1  0.52763900  0.67593900  0.74876700  1
  O  O97  1  0.43456100  0.58963400  0.75066100  1
  O  O98  1  0.37653400  0.85599800  0.74464700  1
  O  O99  1  0.75241450  0.92837150  0.24852650  1
  O  O100  1  0.42837150  0.74758550  0.74852650  1
  O  O101  1  0.57162850  0.25241450  0.74852650  1
  O  O102  1  0.43544600  0.05511900  0.00000000  1
  O  O103  1  0.52216950  0.83292850  0.75815750  1
  O  O104  1  0.39197250  0.23106950  0.00000000  1
  O  O105  1  0.82406100  0.02763900  0.24876700  1
  O  O106  1  0.56543900  0.41036600  0.24933900  1
  O  O107  1  0.26893050  0.89197250  0.50000000  1
  O  O108  1  0.47236100  0.32406100  0.74876700  1
  O  O109  1  0.47783050  0.16707150  0.75815750  1
  O  O110  1  0.55511900  0.06455400  0.50000000  1
  O  O111  1  0.56455400  0.94488100  0.00000000  1
  O  O112  1  0.66707150  0.02216950  0.74184250  1
  O  O113  1  0.26045250  0.20097750  0.50000000  1
  O  O114  1  0.33292850  0.97783050  0.25815750  1
  O  O115  1  0.84031900  0.15765400  0.00000000  1
  O  O116  1  0.65765400  0.65968100  0.50000000  1
  O  O117  1  0.62346600  0.14400200  0.25535300  1
  O  O118  1  0.34234600  0.34031900  0.50000000  1
  O  O119  1  0.64400200  0.87653400  0.75535300  1
  O  O120  1  0.66707150  0.02216950  0.25815750  1
  O  O121  1  0.00000000  0.00000000  0.50000000  1
  O  O122  1  0.52216950  0.83292850  0.24184250  1
  O  O123  1  0.17593900  0.97236100  0.75123300  1
  O  O124  1  0.15968100  0.84234600  0.00000000  1
  O  O125  1  0.82406100  0.02763900  0.75123300  1
  O  O126  1  0.62346600  0.14400200  0.74464700  1
  O  O127  1  0.35599800  0.12346600  0.75535300  1
  O  O128  1  0.24758550  0.07162850  0.75147350  1
  O  O129  1  0.73106950  0.10802750  0.50000000  1
  O  O130  1  0.91036600  0.93456100  0.74933900  1
  O  O131  1  0.17593900  0.97236100  0.24876700  1
  O  O132  1  0.64400200  0.87653400  0.24464700  1
  O  O133  1  0.91036600  0.93456100  0.25066100  1
  O  O134  1  0.47236100  0.32406100  0.25123300  1
  O  O135  1  0.70097750  0.23954750  0.00000000  1
  O  O136  1  0.08963400  0.06543900  0.25066100  1
  O  O137  1  0.37653400  0.85599800  0.25535300  1
  O  O138  1  0.75241450  0.92837150  0.75147350  1
  O  O139  1  0.52763900  0.67593900  0.25123300  1
  O  O140  1  0.24758550  0.07162850  0.24852650  1
  O  O141  1  0.08963400  0.06543900  0.74933900  1
  O  O142  1  0.35599800  0.12346600  0.24464700  1
  O  O143  1  0.44488100  0.93544600  0.50000000  1
  O  O144  1  0.33292850  0.97783050  0.74184250  1
  O  O145  1  0.43456100  0.58963400  0.24933900  1
  O  O146  1  0.73954750  0.79902250  0.50000000  1
  O  O147  1  0.07162850  0.75241450  0.75147350  1
  O  O148  1  0.97783050  0.66707150  0.74184250  1
  O  O149  1  0.06543900  0.91036600  0.25066100  1
  O  O150  1  0.92837150  0.24758550  0.75147350  1
  O  O151  1  0.79902250  0.26045250  0.50000000  1
  O  O152  1  0.10802750  0.26893050  0.50000000  1
  O  O153  1  0.02763900  0.17593900  0.24876700  1
  O  O154  1  0.93456100  0.08963400  0.25066100  1
  O  O155  1  0.87653400  0.35599800  0.24464700  1
  O  O156  1  0.25241450  0.42837150  0.74852650  1
  O  O157  1  0.92837150  0.24758550  0.24852650  1
  O  O158  1  0.07162850  0.75241450  0.24852650  1
  O  O159  1  0.93544600  0.55511900  0.50000000  1
  O  O160  1  0.02216950  0.33292850  0.25815750  1
  O  O161  1  0.89197250  0.73106950  0.50000000  1
  O  O162  1  0.32406100  0.52763900  0.74876700  1
  O  O163  1  0.06543900  0.91036600  0.74933900  1
  O  O164  1  0.76893050  0.39197250  0.00000000  1
  O  O165  1  0.97236100  0.82406100  0.24876700  1
  O  O166  1  0.97783050  0.66707150  0.25815750  1
  O  O167  1  0.05511900  0.56455400  0.00000000  1
  O  O168  1  0.06455400  0.44488100  0.50000000  1
  O  O169  1  0.16707150  0.52216950  0.24184250  1
  O  O170  1  0.76045250  0.70097750  0.00000000  1
  O  O171  1  0.83292850  0.47783050  0.75815750  1
  O  O172  1  0.34031900  0.65765400  0.50000000  1
  O  O173  1  0.15765400  0.15968100  0.00000000  1
  O  O174  1  0.12346600  0.64400200  0.75535300  1
  O  O175  1  0.84234600  0.84031900  0.00000000  1
  O  O176  1  0.14400200  0.37653400  0.25535300  1
  O  O177  1  0.16707150  0.52216950  0.75815750  1
  O  O178  1  0.50000000  0.50000000  0.00000000  1
  O  O179  1  0.02216950  0.33292850  0.74184250  1
  O  O180  1  0.67593900  0.47236100  0.25123300  1
  O  O181  1  0.65968100  0.34234600  0.50000000  1
  O  O182  1  0.32406100  0.52763900  0.25123300  1
  O  O183  1  0.12346600  0.64400200  0.24464700  1
  O  O184  1  0.85599800  0.62346600  0.25535300  1
  O  O185  1  0.74758550  0.57162850  0.25147350  1
  O  O186  1  0.23106950  0.60802750  0.00000000  1
  O  O187  1  0.41036600  0.43456100  0.24933900  1
  O  O188  1  0.67593900  0.47236100  0.74876700  1
  O  O189  1  0.14400200  0.37653400  0.74464700  1
  O  O190  1  0.41036600  0.43456100  0.75066100  1
  O  O191  1  0.97236100  0.82406100  0.75123300  1
  O  O192  1  0.20097750  0.73954750  0.50000000  1
  O  O193  1  0.58963400  0.56543900  0.75066100  1
  O  O194  1  0.87653400  0.35599800  0.75535300  1
  O  O195  1  0.25241450  0.42837150  0.25147350  1
  O  O196  1  0.02763900  0.17593900  0.75123300  1
  O  O197  1  0.74758550  0.57162850  0.74852650  1
  O  O198  1  0.58963400  0.56543900  0.24933900  1
  O  O199  1  0.85599800  0.62346600  0.74464700  1
  O  O200  1  0.94488100  0.43544600  0.00000000  1
  O  O201  1  0.83292850  0.47783050  0.24184250  1
  O  O202  1  0.93456100  0.08963400  0.74933900  1
  O  O203  1  0.23954750  0.29902250  0.00000000  1
