# generated using pymatgen
data_KGa(PO3)4
_symmetry_space_group_name_H-M   'P 1'
_cell_length_a   16.99381600
_cell_length_b   12.42762400
_cell_length_c   5.22101811
_cell_angle_alpha   90.00000000
_cell_angle_beta   100.85989615
_cell_angle_gamma   90.00000000
_symmetry_Int_Tables_number   1
_chemical_formula_structural   KGa(PO3)4
_chemical_formula_sum   'K4 Ga4 P16 O48'
_cell_volume   1082.89381090
_cell_formula_units_Z   4
loop_
 _symmetry_equiv_pos_site_id
 _symmetry_equiv_pos_as_xyz
  1  'x, y, z'
loop_
 _atom_site_type_symbol
 _atom_site_label
 _atom_site_symmetry_multiplicity
 _atom_site_fract_x
 _atom_site_fract_y
 _atom_site_fract_z
 _atom_site_occupancy
  K  K0  1  0.40705200  0.00000000  0.26026200  1
  K  K1  1  0.59294800  0.00000000  0.73973800  1
  K  K2  1  0.90705200  0.50000000  0.26026200  1
  K  K3  1  0.09294800  0.50000000  0.73973800  1
  Ga  Ga4  1  0.25000000  0.75000000  0.00000000  1
  Ga  Ga5  1  0.25000000  0.25000000  0.00000000  1
  Ga  Ga6  1  0.75000000  0.25000000  0.00000000  1
  Ga  Ga7  1  0.75000000  0.75000000  0.00000000  1
  P  P8  1  0.57716800  0.77782400  0.16385000  1
  P  P9  1  0.18872100  0.12012100  0.46646600  1
  P  P10  1  0.18872100  0.87987900  0.46646600  1
  P  P11  1  0.42283200  0.77782400  0.83615000  1
  P  P12  1  0.57716800  0.22217600  0.16385000  1
  P  P13  1  0.81127900  0.12012100  0.53353400  1
  P  P14  1  0.81127900  0.87987900  0.53353400  1
  P  P15  1  0.42283200  0.22217600  0.83615000  1
  P  P16  1  0.07716800  0.27782400  0.16385000  1
  P  P17  1  0.68872100  0.62012100  0.46646600  1
  P  P18  1  0.68872100  0.37987900  0.46646600  1
  P  P19  1  0.92283200  0.27782400  0.83615000  1
  P  P20  1  0.07716800  0.72217600  0.16385000  1
  P  P21  1  0.31127900  0.62012100  0.53353400  1
  P  P22  1  0.31127900  0.37987900  0.53353400  1
  P  P23  1  0.92283200  0.72217600  0.83615000  1
  O  O24  1  0.63809900  0.21130200  0.98580200  1
  O  O25  1  0.24984350  0.85054650  0.30139900  1
  O  O26  1  0.55381000  0.12348300  0.28893100  1
  O  O27  1  0.36190100  0.21130200  0.01419800  1
  O  O28  1  0.36190100  0.78869800  0.01419800  1
  O  O29  1  0.78455900  0.87216500  0.24285700  1
  O  O30  1  0.50000000  0.28457000  0.00000000  1
  O  O31  1  0.44619000  0.87651700  0.71106900  1
  O  O32  1  0.75015650  0.14945350  0.69860100  1
  O  O33  1  0.39289000  0.68446800  0.62194000  1
  O  O34  1  0.44619000  0.12348300  0.71106900  1
  O  O35  1  0.75015650  0.85054650  0.69860100  1
  O  O36  1  0.63809900  0.78869800  0.98580200  1
  O  O37  1  0.39289000  0.31553200  0.62194000  1
  O  O38  1  0.15718800  0.00000000  0.39754400  1
  O  O39  1  0.24984350  0.14945350  0.30139900  1
  O  O40  1  0.55381000  0.87651700  0.28893100  1
  O  O41  1  0.60711000  0.31553200  0.37806000  1
  O  O42  1  0.50000000  0.71543000  0.00000000  1
  O  O43  1  0.21544100  0.87216500  0.75714300  1
  O  O44  1  0.78455900  0.12783500  0.24285700  1
  O  O45  1  0.84281200  0.00000000  0.60245600  1
  O  O46  1  0.60711000  0.68446800  0.37806000  1
  O  O47  1  0.21544100  0.12783500  0.75714300  1
  O  O48  1  0.13809900  0.71130200  0.98580200  1
  O  O49  1  0.74984350  0.35054650  0.30139900  1
  O  O50  1  0.05381000  0.62348300  0.28893100  1
  O  O51  1  0.86190100  0.71130200  0.01419800  1
  O  O52  1  0.86190100  0.28869800  0.01419800  1
  O  O53  1  0.28455900  0.37216500  0.24285700  1
  O  O54  1  0.00000000  0.78457000  0.00000000  1
  O  O55  1  0.94619000  0.37651700  0.71106900  1
  O  O56  1  0.25015650  0.64945350  0.69860100  1
  O  O57  1  0.89289000  0.18446800  0.62194000  1
  O  O58  1  0.94619000  0.62348300  0.71106900  1
  O  O59  1  0.25015650  0.35054650  0.69860100  1
  O  O60  1  0.13809900  0.28869800  0.98580200  1
  O  O61  1  0.89289000  0.81553200  0.62194000  1
  O  O62  1  0.65718800  0.50000000  0.39754400  1
  O  O63  1  0.74984350  0.64945350  0.30139900  1
  O  O64  1  0.05381000  0.37651700  0.28893100  1
  O  O65  1  0.10711000  0.81553200  0.37806000  1
  O  O66  1  0.00000000  0.21543000  0.00000000  1
  O  O67  1  0.71544100  0.37216500  0.75714300  1
  O  O68  1  0.28455900  0.62783500  0.24285700  1
  O  O69  1  0.34281200  0.50000000  0.60245600  1
  O  O70  1  0.10711000  0.18446800  0.37806000  1
  O  O71  1  0.71544100  0.62783500  0.75714300  1
