# generated using pymatgen
data_GaCuS2
_symmetry_space_group_name_H-M   'P 1'
_cell_length_a   5.36973000
_cell_length_b   5.36973000
_cell_length_c   10.63149600
_cell_angle_alpha   90.00000000
_cell_angle_beta   90.00000000
_cell_angle_gamma   90.00000000
_symmetry_Int_Tables_number   1
_chemical_formula_structural   GaCuS2
_chemical_formula_sum   'Ga4 Cu4 S8'
_cell_volume   306.54855857
_cell_formula_units_Z   4
loop_
 _symmetry_equiv_pos_site_id
 _symmetry_equiv_pos_as_xyz
  1  'x, y, z'
loop_
 _atom_site_type_symbol
 _atom_site_label
 _atom_site_symmetry_multiplicity
 _atom_site_fract_x
 _atom_site_fract_y
 _atom_site_fract_z
 _atom_site_occupancy
  Ga  Ga0  1  0.50000000  0.50000000  0.00000000  1
  Ga  Ga1  1  0.50000000  0.00000000  0.25000000  1
  Ga  Ga2  1  0.00000000  0.00000000  0.50000000  1
  Ga  Ga3  1  0.00000000  0.50000000  0.75000000  1
  Cu  Cu4  1  0.00000000  0.00000000  0.00000000  1
  Cu  Cu5  1  0.00000000  0.50000000  0.25000000  1
  Cu  Cu6  1  0.50000000  0.50000000  0.50000000  1
  Cu  Cu7  1  0.50000000  0.00000000  0.75000000  1
  S  S8  1  0.75066000  0.25000000  0.12500000  1
  S  S9  1  0.24934000  0.75000000  0.12500000  1
  S  S10  1  0.25000000  0.25066000  0.37500000  1
  S  S11  1  0.75000000  0.74934000  0.37500000  1
  S  S12  1  0.25066000  0.75000000  0.62500000  1
  S  S13  1  0.74934000  0.25000000  0.62500000  1
  S  S14  1  0.75000000  0.75066000  0.87500000  1
  S  S15  1  0.25000000  0.24934000  0.87500000  1
