# generated using pymatgen
data_NaGdTiO4
_symmetry_space_group_name_H-M   'P 1'
_cell_length_a   5.31102600
_cell_length_b   5.42328500
_cell_length_c   12.65408700
_cell_angle_alpha   90.00000000
_cell_angle_beta   90.00000000
_cell_angle_gamma   90.00000000
_symmetry_Int_Tables_number   1
_chemical_formula_structural   NaGdTiO4
_chemical_formula_sum   'Na4 Gd4 Ti4 O16'
_cell_volume   364.47829536
_cell_formula_units_Z   4
loop_
 _symmetry_equiv_pos_site_id
 _symmetry_equiv_pos_as_xyz
  1  'x, y, z'
loop_
 _atom_site_type_symbol
 _atom_site_label
 _atom_site_symmetry_multiplicity
 _atom_site_fract_x
 _atom_site_fract_y
 _atom_site_fract_z
 _atom_site_occupancy
  Na  Na0  1  0.75000000  0.99172700  0.41373200  1
  Na  Na1  1  0.75000000  0.49172700  0.58626800  1
  Na  Na2  1  0.25000000  0.00827300  0.58626800  1
  Na  Na3  1  0.25000000  0.50827300  0.41373200  1
  Gd  Gd4  1  0.75000000  0.97746900  0.10660700  1
  Gd  Gd5  1  0.75000000  0.47746900  0.89339300  1
  Gd  Gd6  1  0.25000000  0.02253100  0.89339300  1
  Gd  Gd7  1  0.25000000  0.52253100  0.10660700  1
  Ti  Ti8  1  0.75000000  0.99181100  0.73479900  1
  Ti  Ti9  1  0.75000000  0.49181100  0.26520100  1
  Ti  Ti10  1  0.25000000  0.00818900  0.26520100  1
  Ti  Ti11  1  0.25000000  0.50818900  0.73479900  1
  O  O12  1  0.00000000  0.75000000  0.78452100  1
  O  O13  1  0.50000000  0.25000000  0.21547900  1
  O  O14  1  0.00000000  0.25000000  0.21547900  1
  O  O15  1  0.50000000  0.75000000  0.78452100  1
  O  O16  1  0.00000000  0.75000000  0.24365000  1
  O  O17  1  0.50000000  0.25000000  0.75635000  1
  O  O18  1  0.00000000  0.25000000  0.75635000  1
  O  O19  1  0.50000000  0.75000000  0.24365000  1
  O  O20  1  0.75000000  0.06492100  0.93475100  1
  O  O21  1  0.75000000  0.56492100  0.06524900  1
  O  O22  1  0.25000000  0.93507900  0.06524900  1
  O  O23  1  0.25000000  0.43507900  0.93475100  1
  O  O24  1  0.75000000  0.95843600  0.59656300  1
  O  O25  1  0.75000000  0.45843600  0.40343700  1
  O  O26  1  0.25000000  0.04156400  0.40343700  1
  O  O27  1  0.25000000  0.54156400  0.59656300  1
