# generated using pymatgen
data_CsInS2
_symmetry_space_group_name_H-M   'P 1'
_cell_length_a   11.43519400
_cell_length_b   11.43343200
_cell_length_c   16.58463107
_cell_angle_alpha   90.00000000
_cell_angle_beta   99.89454776
_cell_angle_gamma   90.00000000
_symmetry_Int_Tables_number   1
_chemical_formula_structural   CsInS2
_chemical_formula_sum   'Cs16 In16 S32'
_cell_volume   2136.08045534
_cell_formula_units_Z   16
loop_
 _symmetry_equiv_pos_site_id
 _symmetry_equiv_pos_as_xyz
  1  'x, y, z'
loop_
 _atom_site_type_symbol
 _atom_site_label
 _atom_site_symmetry_multiplicity
 _atom_site_fract_x
 _atom_site_fract_y
 _atom_site_fract_z
 _atom_site_occupancy
  Cs  Cs0  1  0.53582850  0.81278650  0.89215300  1
  Cs  Cs1  1  0.78571400  0.06145000  0.89305100  1
  Cs  Cs2  1  0.21428600  0.93855000  0.10694900  1
  Cs  Cs3  1  0.21428600  0.06145000  0.60694900  1
  Cs  Cs4  1  0.46417150  0.81278650  0.60784700  1
  Cs  Cs5  1  0.46417150  0.18721350  0.10784700  1
  Cs  Cs6  1  0.53582850  0.18721350  0.39215300  1
  Cs  Cs7  1  0.78571400  0.93855000  0.39305100  1
  Cs  Cs8  1  0.03582850  0.31278650  0.89215300  1
  Cs  Cs9  1  0.28571400  0.56145000  0.89305100  1
  Cs  Cs10  1  0.71428600  0.43855000  0.10694900  1
  Cs  Cs11  1  0.71428600  0.56145000  0.60694900  1
  Cs  Cs12  1  0.96417150  0.31278650  0.60784700  1
  Cs  Cs13  1  0.96417150  0.68721350  0.10784700  1
  Cs  Cs14  1  0.03582850  0.68721350  0.39215300  1
  Cs  Cs15  1  0.28571400  0.43855000  0.39305100  1
  In  In16  1  0.14496200  0.93635500  0.83449800  1
  In  In17  1  0.60274300  0.81103800  0.16547500  1
  In  In18  1  0.85503800  0.93635500  0.66550200  1
  In  In19  1  0.39725700  0.81103800  0.33452500  1
  In  In20  1  0.85503800  0.06364500  0.16550200  1
  In  In21  1  0.14496200  0.06364500  0.33449800  1
  In  In22  1  0.60274300  0.18896200  0.66547500  1
  In  In23  1  0.39725700  0.18896200  0.83452500  1
  In  In24  1  0.64496200  0.43635500  0.83449800  1
  In  In25  1  0.10274300  0.31103800  0.16547500  1
  In  In26  1  0.35503800  0.43635500  0.66550200  1
  In  In27  1  0.89725700  0.31103800  0.33452500  1
  In  In28  1  0.35503800  0.56364500  0.16550200  1
  In  In29  1  0.64496200  0.56364500  0.33449800  1
  In  In30  1  0.10274300  0.68896200  0.66547500  1
  In  In31  1  0.89725700  0.68896200  0.83452500  1
  S  S32  1  0.50000000  0.56870100  0.75000000  1
  S  S33  1  0.54335850  0.31325250  0.92713900  1
  S  S34  1  0.45664150  0.31325250  0.57286100  1
  S  S35  1  0.25652250  0.18842750  0.25077000  1
  S  S36  1  0.54335850  0.68674750  0.42713900  1
  S  S37  1  0.29375050  0.06255350  0.92446300  1
  S  S38  1  0.45664150  0.68674750  0.07286100  1
  S  S39  1  0.70624950  0.93744650  0.07553700  1
  S  S40  1  0.50000000  0.94354700  0.25000000  1
  S  S41  1  0.29375050  0.93744650  0.42446300  1
  S  S42  1  0.25652250  0.81157250  0.75077000  1
  S  S43  1  0.74347750  0.18842750  0.24923000  1
  S  S44  1  0.50000000  0.43129900  0.25000000  1
  S  S45  1  0.50000000  0.05645300  0.75000000  1
  S  S46  1  0.74347750  0.81157250  0.74923000  1
  S  S47  1  0.70624950  0.06255350  0.57553700  1
  S  S48  1  0.00000000  0.06870100  0.75000000  1
  S  S49  1  0.04335850  0.81325250  0.92713900  1
  S  S50  1  0.95664150  0.81325250  0.57286100  1
  S  S51  1  0.75652250  0.68842750  0.25077000  1
  S  S52  1  0.04335850  0.18674750  0.42713900  1
  S  S53  1  0.79375050  0.56255350  0.92446300  1
  S  S54  1  0.95664150  0.18674750  0.07286100  1
  S  S55  1  0.20624950  0.43744650  0.07553700  1
  S  S56  1  0.00000000  0.44354700  0.25000000  1
  S  S57  1  0.79375050  0.43744650  0.42446300  1
  S  S58  1  0.75652250  0.31157250  0.75077000  1
  S  S59  1  0.24347750  0.68842750  0.24923000  1
  S  S60  1  0.00000000  0.93129900  0.25000000  1
  S  S61  1  0.00000000  0.55645300  0.75000000  1
  S  S62  1  0.24347750  0.31157250  0.74923000  1
  S  S63  1  0.20624950  0.56255350  0.57553700  1
