# generated using pymatgen
data_Tb2Cu(BO2)8
_symmetry_space_group_name_H-M   'P 1'
_cell_length_a   6.29770500
_cell_length_b   8.46693900
_cell_length_c   10.28877229
_cell_angle_alpha   90.00000000
_cell_angle_beta   90.43555977
_cell_angle_gamma   90.00000000
_symmetry_Int_Tables_number   1
_chemical_formula_structural   Tb2Cu(BO2)8
_chemical_formula_sum   'Tb4 Cu2 B16 O32'
_cell_volume   548.60498665
_cell_formula_units_Z   2
loop_
 _symmetry_equiv_pos_site_id
 _symmetry_equiv_pos_as_xyz
  1  'x, y, z'
loop_
 _atom_site_type_symbol
 _atom_site_label
 _atom_site_symmetry_multiplicity
 _atom_site_fract_x
 _atom_site_fract_y
 _atom_site_fract_z
 _atom_site_occupancy
  Tb  Tb0  1  0.49267100  0.01099600  0.18205500  1
  Tb  Tb1  1  0.00732900  0.51099600  0.81794500  1
  Tb  Tb2  1  0.99267100  0.48900400  0.18205500  1
  Tb  Tb3  1  0.50732900  0.98900400  0.81794500  1
  Cu  Cu4  1  0.00000000  0.50000000  0.50000000  1
  Cu  Cu5  1  0.50000000  0.00000000  0.50000000  1
  B  B6  1  0.99185800  0.00560300  0.19377100  1
  B  B7  1  0.87847700  0.80668300  0.37089400  1
  B  B8  1  0.61043500  0.68145000  0.00070300  1
  B  B9  1  0.49185800  0.49439700  0.19377100  1
  B  B10  1  0.11043500  0.81855000  0.00070300  1
  B  B11  1  0.62152300  0.30668300  0.62910600  1
  B  B12  1  0.38630700  0.68877400  0.61530400  1
  B  B13  1  0.61369300  0.31122600  0.38469600  1
  B  B14  1  0.00814200  0.99439700  0.80622900  1
  B  B15  1  0.50814200  0.50560300  0.80622900  1
  B  B16  1  0.37847700  0.69331700  0.37089400  1
  B  B17  1  0.88630700  0.81122600  0.61530400  1
  B  B18  1  0.38956500  0.31855000  0.99929700  1
  B  B19  1  0.11369300  0.18877400  0.38469600  1
  B  B20  1  0.88956500  0.18145000  0.99929700  1
  B  B21  1  0.12152300  0.19331700  0.62910600  1
  O  O22  1  0.94388100  0.65928400  0.63482500  1
  O  O23  1  0.65866400  0.40399900  0.73728900  1
  O  O24  1  0.34958300  0.62464000  0.49260900  1
  O  O25  1  0.65138400  0.61776900  0.87662300  1
  O  O26  1  0.15866400  0.09600100  0.73728900  1
  O  O27  1  0.13839800  0.91986500  0.10654600  1
  O  O28  1  0.34133600  0.59600100  0.26271100  1
  O  O29  1  0.55611900  0.15928400  0.36517500  1
  O  O30  1  0.55689200  0.83541300  0.01165300  1
  O  O31  1  0.93714800  0.65470200  0.35544700  1
  O  O32  1  0.34861600  0.38223100  0.12337700  1
  O  O33  1  0.06285200  0.34529800  0.64455300  1
  O  O34  1  0.05611900  0.34071600  0.36517500  1
  O  O35  1  0.36160200  0.41986500  0.89345400  1
  O  O36  1  0.35529300  0.58856100  0.72126400  1
  O  O37  1  0.84958300  0.87536000  0.49260900  1
  O  O38  1  0.84861600  0.11776900  0.12337700  1
  O  O39  1  0.14470700  0.08856100  0.27873600  1
  O  O40  1  0.56285200  0.15470200  0.64455300  1
  O  O41  1  0.65041700  0.37536000  0.50739100  1
  O  O42  1  0.15041700  0.12464000  0.50739100  1
  O  O43  1  0.43714800  0.84529800  0.35544700  1
  O  O44  1  0.44388100  0.84071600  0.63482500  1
  O  O45  1  0.64470700  0.41143900  0.27873600  1
  O  O46  1  0.63839800  0.58013500  0.10654600  1
  O  O47  1  0.44310800  0.16458700  0.98834700  1
  O  O48  1  0.86160200  0.08013500  0.89345400  1
  O  O49  1  0.94310800  0.33541300  0.98834700  1
  O  O50  1  0.15138400  0.88223100  0.87662300  1
  O  O51  1  0.05689200  0.66458700  0.01165300  1
  O  O52  1  0.85529300  0.91143900  0.72126400  1
  O  O53  1  0.84133600  0.90399900  0.26271100  1
