# generated using pymatgen
data_AuN5O14
_symmetry_space_group_name_H-M   'P 1'
_cell_length_a   7.95031600
_cell_length_b   8.37948700
_cell_length_c   9.62892670
_cell_angle_alpha   90.00000000
_cell_angle_beta   117.46002849
_cell_angle_gamma   90.00000000
_symmetry_Int_Tables_number   1
_chemical_formula_structural   AuN5O14
_chemical_formula_sum   'Au2 N10 O28'
_cell_volume   569.20173280
_cell_formula_units_Z   2
loop_
 _symmetry_equiv_pos_site_id
 _symmetry_equiv_pos_as_xyz
  1  'x, y, z'
loop_
 _atom_site_type_symbol
 _atom_site_label
 _atom_site_symmetry_multiplicity
 _atom_site_fract_x
 _atom_site_fract_y
 _atom_site_fract_z
 _atom_site_occupancy
  Au  Au0  1  0.00000000  0.50000000  0.50000000  1
  Au  Au1  1  0.00000000  0.00000000  0.00000000  1
  N  N2  1  0.86246000  0.07158700  0.22505700  1
  N  N3  1  0.69467300  0.73410900  0.36208000  1
  N  N4  1  0.30532700  0.23410900  0.13792000  1
  N  N5  1  0.86246000  0.42841300  0.72505700  1
  N  N6  1  0.13754000  0.92841300  0.77494300  1
  N  N7  1  0.30532700  0.26589100  0.63792000  1
  N  N8  1  0.13754000  0.57158700  0.27494300  1
  N  N9  1  0.69467300  0.76589100  0.86208000  1
  N  N10  1  0.50000000  0.00000000  0.50000000  1
  N  N11  1  0.50000000  0.50000000  0.00000000  1
  O  O12  1  0.02754800  0.03796400  0.70661600  1
  O  O13  1  0.83165700  0.38652200  0.57762700  1
  O  O14  1  0.22983900  0.65216200  0.22716200  1
  O  O15  1  0.24613500  0.23448900  0.49789700  1
  O  O16  1  0.60931900  0.09383600  0.51017800  1
  O  O17  1  0.16834300  0.88652200  0.92237300  1
  O  O18  1  0.23182200  0.10667600  0.17940300  1
  O  O19  1  0.75386500  0.73448900  0.00210300  1
  O  O20  1  0.16834300  0.61347800  0.42237300  1
  O  O21  1  0.97245200  0.96203600  0.29338400  1
  O  O22  1  0.42930100  0.19322900  0.74918800  1
  O  O23  1  0.60931900  0.40616400  0.01017800  1
  O  O24  1  0.76817800  0.60667600  0.32059700  1
  O  O25  1  0.24613500  0.26551100  0.99789700  1
  O  O26  1  0.77016100  0.34783800  0.77283800  1
  O  O27  1  0.42930100  0.30677100  0.24918800  1
  O  O28  1  0.77016100  0.15216200  0.27283800  1
  O  O29  1  0.57069900  0.80677100  0.25081200  1
  O  O30  1  0.22983900  0.84783800  0.72716200  1
  O  O31  1  0.23182200  0.39332400  0.67940300  1
  O  O32  1  0.97245200  0.53796400  0.79338400  1
  O  O33  1  0.39068100  0.90616400  0.48982200  1
  O  O34  1  0.02754800  0.46203600  0.20661600  1
  O  O35  1  0.57069900  0.69322900  0.75081200  1
  O  O36  1  0.76817800  0.89332400  0.82059700  1
  O  O37  1  0.75386500  0.76551100  0.50210300  1
  O  O38  1  0.83165700  0.11347800  0.07762700  1
  O  O39  1  0.39068100  0.59383600  0.98982200  1
