# generated using pymatgen
data_KRb2FeF6
_symmetry_space_group_name_H-M   'P 1'
_cell_length_a   9.02992000
_cell_length_b   9.02992000
_cell_length_c   9.02992000
_cell_angle_alpha   90.00000000
_cell_angle_beta   90.00000000
_cell_angle_gamma   90.00000000
_symmetry_Int_Tables_number   1
_chemical_formula_structural   KRb2FeF6
_chemical_formula_sum   'K4 Rb8 Fe4 F24'
_cell_volume   736.29475736
_cell_formula_units_Z   4
loop_
 _symmetry_equiv_pos_site_id
 _symmetry_equiv_pos_as_xyz
  1  'x, y, z'
loop_
 _atom_site_type_symbol
 _atom_site_label
 _atom_site_symmetry_multiplicity
 _atom_site_fract_x
 _atom_site_fract_y
 _atom_site_fract_z
 _atom_site_occupancy
  K  K0  1  0.50000000  0.00000000  0.00000000  1
  K  K1  1  0.50000000  0.50000000  0.50000000  1
  K  K2  1  0.00000000  0.00000000  0.50000000  1
  K  K3  1  0.00000000  0.50000000  0.00000000  1
  Rb  Rb4  1  0.25000000  0.25000000  0.75000000  1
  Rb  Rb5  1  0.25000000  0.75000000  0.75000000  1
  Rb  Rb6  1  0.25000000  0.75000000  0.25000000  1
  Rb  Rb7  1  0.25000000  0.25000000  0.25000000  1
  Rb  Rb8  1  0.75000000  0.25000000  0.25000000  1
  Rb  Rb9  1  0.75000000  0.75000000  0.25000000  1
  Rb  Rb10  1  0.75000000  0.75000000  0.75000000  1
  Rb  Rb11  1  0.75000000  0.25000000  0.75000000  1
  Fe  Fe12  1  0.00000000  0.00000000  0.00000000  1
  Fe  Fe13  1  0.00000000  0.50000000  0.50000000  1
  Fe  Fe14  1  0.50000000  0.00000000  0.50000000  1
  Fe  Fe15  1  0.50000000  0.50000000  0.00000000  1
  F  F16  1  0.50000000  0.28250200  0.00000000  1
  F  F17  1  0.50000000  0.00000000  0.71749800  1
  F  F18  1  0.00000000  0.00000000  0.78250200  1
  F  F19  1  0.21749800  0.00000000  0.00000000  1
  F  F20  1  0.50000000  0.71749800  0.00000000  1
  F  F21  1  0.78250200  0.00000000  0.00000000  1
  F  F22  1  0.50000000  0.78250200  0.50000000  1
  F  F23  1  0.50000000  0.50000000  0.21749800  1
  F  F24  1  0.00000000  0.50000000  0.28250200  1
  F  F25  1  0.21749800  0.50000000  0.50000000  1
  F  F26  1  0.50000000  0.21749800  0.50000000  1
  F  F27  1  0.78250200  0.50000000  0.50000000  1
  F  F28  1  0.00000000  0.28250200  0.50000000  1
  F  F29  1  0.00000000  0.00000000  0.21749800  1
  F  F30  1  0.50000000  0.00000000  0.28250200  1
  F  F31  1  0.71749800  0.00000000  0.50000000  1
  F  F32  1  0.00000000  0.71749800  0.50000000  1
  F  F33  1  0.28250200  0.00000000  0.50000000  1
  F  F34  1  0.00000000  0.78250200  0.00000000  1
  F  F35  1  0.00000000  0.50000000  0.71749800  1
  F  F36  1  0.50000000  0.50000000  0.78250200  1
  F  F37  1  0.71749800  0.50000000  0.00000000  1
  F  F38  1  0.00000000  0.21749800  0.00000000  1
  F  F39  1  0.28250200  0.50000000  0.00000000  1
