# generated using pymatgen
data_SiO2
_symmetry_space_group_name_H-M   'P 1'
_cell_length_a   14.70927400
_cell_length_b   20.79936000
_cell_length_c   8.64386900
_cell_angle_alpha   90.00000000
_cell_angle_beta   90.00000000
_cell_angle_gamma   90.00000000
_symmetry_Int_Tables_number   1
_chemical_formula_structural   SiO2
_chemical_formula_sum   'Si48 O96'
_cell_volume   2644.53540803
_cell_formula_units_Z   48
loop_
 _symmetry_equiv_pos_site_id
 _symmetry_equiv_pos_as_xyz
  1  'x, y, z'
loop_
 _atom_site_type_symbol
 _atom_site_label
 _atom_site_symmetry_multiplicity
 _atom_site_fract_x
 _atom_site_fract_y
 _atom_site_fract_z
 _atom_site_occupancy
  Si  Si0  1  0.69031450  0.06988650  0.06353600  1
  Si  Si1  1  0.30968550  0.06988650  0.43646400  1
  Si  Si2  1  0.80639750  0.18840250  0.93687700  1
  Si  Si3  1  0.19360250  0.18840250  0.93687700  1
  Si  Si4  1  0.69031450  0.93011350  0.93646400  1
  Si  Si5  1  0.19360250  0.81159750  0.06312300  1
  Si  Si6  1  0.30968550  0.93011350  0.56353600  1
  Si  Si7  1  0.80639750  0.81159750  0.06312300  1
  Si  Si8  1  0.50000000  0.87718200  0.43664900  1
  Si  Si9  1  0.50000000  0.72776400  0.43742700  1
  Si  Si10  1  0.50000000  0.12281800  0.56335100  1
  Si  Si11  1  0.50000000  0.27223600  0.56257300  1
  Si  Si12  1  0.80639750  0.18840250  0.56312300  1
  Si  Si13  1  0.80639750  0.81159750  0.43687700  1
  Si  Si14  1  0.50000000  0.12281800  0.93664900  1
  Si  Si15  1  0.30968550  0.06988650  0.06353600  1
  Si  Si16  1  0.50000000  0.27223600  0.93742700  1
  Si  Si17  1  0.19360250  0.18840250  0.56312300  1
  Si  Si18  1  0.19360250  0.81159750  0.43687700  1
  Si  Si19  1  0.69031450  0.93011350  0.56353600  1
  Si  Si20  1  0.50000000  0.87718200  0.06335100  1
  Si  Si21  1  0.50000000  0.72776400  0.06257300  1
  Si  Si22  1  0.30968550  0.93011350  0.93646400  1
  Si  Si23  1  0.69031450  0.06988650  0.43646400  1
  Si  Si24  1  0.19031450  0.56988650  0.06353600  1
  Si  Si25  1  0.80968550  0.56988650  0.43646400  1
  Si  Si26  1  0.30639750  0.68840250  0.93687700  1
  Si  Si27  1  0.69360250  0.68840250  0.93687700  1
  Si  Si28  1  0.19031450  0.43011350  0.93646400  1
  Si  Si29  1  0.69360250  0.31159750  0.06312300  1
  Si  Si30  1  0.80968550  0.43011350  0.56353600  1
  Si  Si31  1  0.30639750  0.31159750  0.06312300  1
  Si  Si32  1  0.00000000  0.37718200  0.43664900  1
  Si  Si33  1  0.00000000  0.22776400  0.43742700  1
  Si  Si34  1  0.00000000  0.62281800  0.56335100  1
  Si  Si35  1  0.00000000  0.77223600  0.56257300  1
  Si  Si36  1  0.30639750  0.68840250  0.56312300  1
  Si  Si37  1  0.30639750  0.31159750  0.43687700  1
  Si  Si38  1  0.00000000  0.62281800  0.93664900  1
  Si  Si39  1  0.80968550  0.56988650  0.06353600  1
  Si  Si40  1  0.00000000  0.77223600  0.93742700  1
  Si  Si41  1  0.69360250  0.68840250  0.56312300  1
  Si  Si42  1  0.69360250  0.31159750  0.43687700  1
  Si  Si43  1  0.19031450  0.43011350  0.56353600  1
  Si  Si44  1  0.00000000  0.37718200  0.06335100  1
  Si  Si45  1  0.00000000  0.22776400  0.06257300  1
  Si  Si46  1  0.80968550  0.43011350  0.93646400  1
  Si  Si47  1  0.19031450  0.56988650  0.43646400  1
  O  O48  1  0.76274850  0.87722150  0.99616200  1
  O  O49  1  0.58906400  0.08614200  0.00057000  1
  O  O50  1  0.50000000  0.80262700  0.00566700  1
  O  O51  1  0.41093600  0.91385800  0.50057000  1
  O  O52  1  0.58889500  0.69181900  0.50567800  1
  O  O53  1  0.25000000  0.25000000  0.50000000  1
  O  O54  1  0.76274850  0.87722150  0.50383800  1
  O  O55  1  0.41110500  0.69181900  0.50567800  1
  O  O56  1  0.50000000  0.80262700  0.49433300  1
  O  O57  1  0.58889500  0.69181900  0.99432200  1
  O  O58  1  0.68851700  0.06928800  0.25000000  1
  O  O59  1  0.41110500  0.69181900  0.99432200  1
  O  O60  1  0.72184300  0.00000000  0.00000000  1
  O  O61  1  0.23725150  0.87722150  0.50383800  1
  O  O62  1  0.27815700  0.00000000  0.00000000  1
  O  O63  1  0.41093600  0.91385800  0.99943000  1
  O  O64  1  0.80198450  0.81239650  0.25000000  1
  O  O65  1  0.19801550  0.81239650  0.25000000  1
  O  O66  1  0.27815700  0.00000000  0.50000000  1
  O  O67  1  0.50000000  0.19737300  0.99433300  1
  O  O68  1  0.50000000  0.72410000  0.25000000  1
  O  O69  1  0.41110500  0.30818100  0.49432200  1
  O  O70  1  0.76274850  0.12277850  0.00383800  1
  O  O71  1  0.58906400  0.08614200  0.49943000  1
  O  O72  1  0.31148300  0.93071200  0.75000000  1
  O  O73  1  0.50000000  0.12068900  0.75000000  1
  O  O74  1  0.41110500  0.30818100  0.00567800  1
  O  O75  1  0.68851700  0.93071200  0.75000000  1
  O  O76  1  0.50000000  0.19737300  0.50566700  1
  O  O77  1  0.19801550  0.18760350  0.75000000  1
  O  O78  1  0.80198450  0.18760350  0.75000000  1
  O  O79  1  0.23725150  0.12277850  0.49616200  1
  O  O80  1  0.41093600  0.08614200  0.00057000  1
  O  O81  1  0.50000000  0.27590000  0.75000000  1
  O  O82  1  0.25000000  0.75000000  0.50000000  1
  O  O83  1  0.50000000  0.87931100  0.25000000  1
  O  O84  1  0.72184300  0.00000000  0.50000000  1
  O  O85  1  0.58906400  0.91385800  0.50057000  1
  O  O86  1  0.25000000  0.25000000  0.00000000  1
  O  O87  1  0.31148300  0.06928800  0.25000000  1
  O  O88  1  0.58889500  0.30818100  0.00567800  1
  O  O89  1  0.58906400  0.91385800  0.99943000  1
  O  O90  1  0.23725150  0.12277850  0.00383800  1
  O  O91  1  0.76274850  0.12277850  0.49616200  1
  O  O92  1  0.41093600  0.08614200  0.49943000  1
  O  O93  1  0.23725150  0.87722150  0.99616200  1
  O  O94  1  0.58889500  0.30818100  0.49432200  1
  O  O95  1  0.25000000  0.75000000  0.00000000  1
  O  O96  1  0.26274850  0.37722150  0.99616200  1
  O  O97  1  0.08906400  0.58614200  0.00057000  1
  O  O98  1  0.00000000  0.30262700  0.00566700  1
  O  O99  1  0.91093600  0.41385800  0.50057000  1
  O  O100  1  0.08889500  0.19181900  0.50567800  1
  O  O101  1  0.75000000  0.75000000  0.50000000  1
  O  O102  1  0.26274850  0.37722150  0.50383800  1
  O  O103  1  0.91110500  0.19181900  0.50567800  1
  O  O104  1  0.00000000  0.30262700  0.49433300  1
  O  O105  1  0.08889500  0.19181900  0.99432200  1
  O  O106  1  0.18851700  0.56928800  0.25000000  1
  O  O107  1  0.91110500  0.19181900  0.99432200  1
  O  O108  1  0.22184300  0.50000000  0.00000000  1
  O  O109  1  0.73725150  0.37722150  0.50383800  1
  O  O110  1  0.77815700  0.50000000  0.00000000  1
  O  O111  1  0.91093600  0.41385800  0.99943000  1
  O  O112  1  0.30198450  0.31239650  0.25000000  1
  O  O113  1  0.69801550  0.31239650  0.25000000  1
  O  O114  1  0.77815700  0.50000000  0.50000000  1
  O  O115  1  0.00000000  0.69737300  0.99433300  1
  O  O116  1  0.00000000  0.22410000  0.25000000  1
  O  O117  1  0.91110500  0.80818100  0.49432200  1
  O  O118  1  0.26274850  0.62277850  0.00383800  1
  O  O119  1  0.08906400  0.58614200  0.49943000  1
  O  O120  1  0.81148300  0.43071200  0.75000000  1
  O  O121  1  0.00000000  0.62068900  0.75000000  1
  O  O122  1  0.91110500  0.80818100  0.00567800  1
  O  O123  1  0.18851700  0.43071200  0.75000000  1
  O  O124  1  0.00000000  0.69737300  0.50566700  1
  O  O125  1  0.69801550  0.68760350  0.75000000  1
  O  O126  1  0.30198450  0.68760350  0.75000000  1
  O  O127  1  0.73725150  0.62277850  0.49616200  1
  O  O128  1  0.91093600  0.58614200  0.00057000  1
  O  O129  1  0.00000000  0.77590000  0.75000000  1
  O  O130  1  0.75000000  0.25000000  0.50000000  1
  O  O131  1  0.00000000  0.37931100  0.25000000  1
  O  O132  1  0.22184300  0.50000000  0.50000000  1
  O  O133  1  0.08906400  0.41385800  0.50057000  1
  O  O134  1  0.75000000  0.75000000  0.00000000  1
  O  O135  1  0.81148300  0.56928800  0.25000000  1
  O  O136  1  0.08889500  0.80818100  0.00567800  1
  O  O137  1  0.08906400  0.41385800  0.99943000  1
  O  O138  1  0.73725150  0.62277850  0.00383800  1
  O  O139  1  0.26274850  0.62277850  0.49616200  1
  O  O140  1  0.91093600  0.58614200  0.49943000  1
  O  O141  1  0.73725150  0.37722150  0.99616200  1
  O  O142  1  0.08889500  0.80818100  0.49432200  1
  O  O143  1  0.75000000  0.25000000  0.00000000  1
