# generated using pymatgen
data_Ba2TiOF6
_symmetry_space_group_name_H-M   'P 1'
_cell_length_a   11.60584400
_cell_length_b   9.43928200
_cell_length_c   7.32897958
_cell_angle_alpha   90.00000000
_cell_angle_beta   126.51075631
_cell_angle_gamma   90.00000000
_symmetry_Int_Tables_number   1
_chemical_formula_structural   Ba2TiOF6
_chemical_formula_sum   'Ba8 Ti4 O4 F24'
_cell_volume   645.32365053
_cell_formula_units_Z   4
loop_
 _symmetry_equiv_pos_site_id
 _symmetry_equiv_pos_as_xyz
  1  'x, y, z'
loop_
 _atom_site_type_symbol
 _atom_site_label
 _atom_site_symmetry_multiplicity
 _atom_site_fract_x
 _atom_site_fract_y
 _atom_site_fract_z
 _atom_site_occupancy
  Ba  Ba0  1  0.79822300  0.62102500  0.84377900  1
  Ba  Ba1  1  0.00035600  0.82707400  0.49931900  1
  Ba  Ba2  1  0.00035600  0.17292600  0.99931900  1
  Ba  Ba3  1  0.79822300  0.37897500  0.34377900  1
  Ba  Ba4  1  0.29822300  0.12102500  0.84377900  1
  Ba  Ba5  1  0.50035600  0.32707400  0.49931900  1
  Ba  Ba6  1  0.50035600  0.67292600  0.99931900  1
  Ba  Ba7  1  0.29822300  0.87897500  0.34377900  1
  Ti  Ti8  1  0.17366600  0.49357000  0.91379700  1
  Ti  Ti9  1  0.17366600  0.50643000  0.41379700  1
  Ti  Ti10  1  0.67366600  0.99357000  0.91379700  1
  Ti  Ti11  1  0.67366600  0.00643000  0.41379700  1
  O  O12  1  0.16881150  0.56239950  0.63570300  1
  O  O13  1  0.16881150  0.43760050  0.13570300  1
  O  O14  1  0.66881150  0.06239950  0.63570300  1
  O  O15  1  0.66881150  0.93760050  0.13570300  1
  F  F16  1  0.61429250  0.45873650  0.89187300  1
  F  F17  1  0.98627600  0.41288700  0.23599100  1
  F  F18  1  0.27331300  0.66829100  0.05064800  1
  F  F19  1  0.07946200  0.68204100  0.23549400  1
  F  F20  1  0.35448900  0.40650200  0.02013300  1
  F  F21  1  0.80021100  0.35455800  0.71636300  1
  F  F22  1  0.80021100  0.64544200  0.21636300  1
  F  F23  1  0.27331300  0.33170900  0.55064800  1
  F  F24  1  0.07946200  0.31795900  0.73549400  1
  F  F25  1  0.98627600  0.58711300  0.73599100  1
  F  F26  1  0.61429250  0.54126350  0.39187300  1
  F  F27  1  0.35448900  0.59349800  0.52013300  1
  F  F28  1  0.11429250  0.95873650  0.89187300  1
  F  F29  1  0.48627600  0.91288700  0.23599100  1
  F  F30  1  0.77331300  0.16829100  0.05064800  1
  F  F31  1  0.57946200  0.18204100  0.23549400  1
  F  F32  1  0.85448900  0.90650200  0.02013300  1
  F  F33  1  0.30021100  0.85455800  0.71636300  1
  F  F34  1  0.30021100  0.14544200  0.21636300  1
  F  F35  1  0.77331300  0.83170900  0.55064800  1
  F  F36  1  0.57946200  0.81795900  0.73549400  1
  F  F37  1  0.48627600  0.08711300  0.73599100  1
  F  F38  1  0.11429250  0.04126350  0.39187300  1
  F  F39  1  0.85448900  0.09349800  0.52013300  1
