# generated using pymatgen
data_KCu3Te2
_symmetry_space_group_name_H-M   'P 1'
_cell_length_a   16.38737200
_cell_length_b   4.26097200
_cell_length_c   8.68281257
_cell_angle_alpha   90.00000000
_cell_angle_beta   111.58463200
_cell_angle_gamma   90.00000000
_symmetry_Int_Tables_number   1
_chemical_formula_structural   KCu3Te2
_chemical_formula_sum   'K4 Cu12 Te8'
_cell_volume   563.77145165
_cell_formula_units_Z   4
loop_
 _symmetry_equiv_pos_site_id
 _symmetry_equiv_pos_as_xyz
  1  'x, y, z'
loop_
 _atom_site_type_symbol
 _atom_site_label
 _atom_site_symmetry_multiplicity
 _atom_site_fract_x
 _atom_site_fract_y
 _atom_site_fract_z
 _atom_site_occupancy
  K  K0  1  0.36617300  0.50000000  0.95444500  1
  K  K1  1  0.13382700  0.00000000  0.04555500  1
  K  K2  1  0.86617300  0.00000000  0.95444500  1
  K  K3  1  0.63382700  0.50000000  0.04555500  1
  Cu  Cu4  1  0.41634600  0.00000000  0.39941900  1
  Cu  Cu5  1  0.08365400  0.50000000  0.60058100  1
  Cu  Cu6  1  0.30391600  0.00000000  0.52867200  1
  Cu  Cu7  1  0.19608400  0.50000000  0.47132800  1
  Cu  Cu8  1  0.07025600  0.00000000  0.41643800  1
  Cu  Cu9  1  0.42974400  0.50000000  0.58356200  1
  Cu  Cu10  1  0.91634600  0.50000000  0.39941900  1
  Cu  Cu11  1  0.58365400  0.00000000  0.60058100  1
  Cu  Cu12  1  0.80391600  0.50000000  0.52867200  1
  Cu  Cu13  1  0.69608400  0.00000000  0.47132800  1
  Cu  Cu14  1  0.57025600  0.50000000  0.41643800  1
  Cu  Cu15  1  0.92974400  0.00000000  0.58356200  1
  Te  Te16  1  0.20181000  0.00000000  0.69511300  1
  Te  Te17  1  0.29819000  0.50000000  0.30488700  1
  Te  Te18  1  0.47912800  0.00000000  0.76098900  1
  Te  Te19  1  0.02087200  0.50000000  0.23901100  1
  Te  Te20  1  0.70181000  0.50000000  0.69511300  1
  Te  Te21  1  0.79819000  0.00000000  0.30488700  1
  Te  Te22  1  0.97912800  0.50000000  0.76098900  1
  Te  Te23  1  0.52087200  0.00000000  0.23901100  1
