# generated using pymatgen
data_UOF4
_symmetry_space_group_name_H-M   'P 1'
_cell_length_a   13.50404411
_cell_length_b   13.50404411
_cell_length_c   5.77873367
_cell_angle_alpha   90.00000000
_cell_angle_beta   90.00000000
_cell_angle_gamma   120.00000000
_symmetry_Int_Tables_number   1
_chemical_formula_structural   UOF4
_chemical_formula_sum   'U9 O9 F36'
_cell_volume   912.62215308
_cell_formula_units_Z   9
loop_
 _symmetry_equiv_pos_site_id
 _symmetry_equiv_pos_as_xyz
  1  'x, y, z'
loop_
 _atom_site_type_symbol
 _atom_site_label
 _atom_site_symmetry_multiplicity
 _atom_site_fract_x
 _atom_site_fract_y
 _atom_site_fract_z
 _atom_site_occupancy
  U  U0  1  0.19424467  0.38848933  0.66115433  1
  U  U1  1  0.61151067  0.80575533  0.66115433  1
  U  U2  1  0.86091133  0.13908867  0.99448767  1
  U  U3  1  0.86091133  0.72182267  0.99448767  1
  U  U4  1  0.27817733  0.13908867  0.99448767  1
  U  U5  1  0.52757800  0.47242200  0.32782100  1
  U  U6  1  0.52757800  0.05515600  0.32782100  1
  U  U7  1  0.94484400  0.47242200  0.32782100  1
  U  U8  1  0.19424467  0.80575533  0.66115433  1
  O  O9  1  0.73019067  0.86509533  0.46345933  1
  O  O10  1  0.80157133  0.19842867  0.79679267  1
  O  O11  1  0.13490467  0.26980933  0.46345933  1
  O  O12  1  0.39685733  0.19842867  0.79679267  1
  O  O13  1  0.46823800  0.53176200  0.13012600  1
  O  O14  1  0.80157133  0.60314267  0.79679267  1
  O  O15  1  0.06352400  0.53176200  0.13012600  1
  O  O16  1  0.13490467  0.86509533  0.46345933  1
  O  O17  1  0.46823800  0.93647600  0.13012600  1
  F  F18  1  0.71058733  0.09108867  0.24308367  1
  F  F19  1  0.71383467  0.95607933  0.90975033  1
  F  F20  1  0.57557800  0.95283200  0.57641700  1
  F  F21  1  0.92518433  0.07481567  0.21510367  1
  F  F22  1  0.48296467  0.74148233  0.88177033  1
  F  F23  1  0.25202667  0.50405333  0.39444833  1
  F  F24  1  0.04716800  0.42442200  0.57641700  1
  F  F25  1  0.90891133  0.28941267  0.24308367  1
  F  F26  1  0.25851767  0.51703533  0.88177033  1
  F  F27  1  0.49594667  0.74797333  0.39444833  1
  F  F28  1  0.91869333  0.08130667  0.72778167  1
  F  F29  1  0.04392067  0.28616533  0.90975033  1
  F  F30  1  0.37725400  0.42442200  0.57641700  1
  F  F31  1  0.38050133  0.28941267  0.24308367  1
  F  F32  1  0.24224467  0.28616533  0.90975033  1
  F  F33  1  0.59185100  0.40814900  0.54843700  1
  F  F34  1  0.14963133  0.07481567  0.21510367  1
  F  F35  1  0.91869333  0.83738667  0.72778167  1
  F  F36  1  0.71383467  0.75775533  0.90975033  1
  F  F37  1  0.57557800  0.62274600  0.57641700  1
  F  F38  1  0.92518433  0.85036867  0.21510367  1
  F  F39  1  0.16261333  0.08130667  0.72778167  1
  F  F40  1  0.58536000  0.41464000  0.06111500  1
  F  F41  1  0.71058733  0.61949867  0.24308367  1
  F  F42  1  0.04392067  0.75775533  0.90975033  1
  F  F43  1  0.04716800  0.62274600  0.57641700  1
  F  F44  1  0.90891133  0.61949867  0.24308367  1
  F  F45  1  0.25851767  0.74148233  0.88177033  1
  F  F46  1  0.81629800  0.40814900  0.54843700  1
  F  F47  1  0.58536000  0.17072000  0.06111500  1
  F  F48  1  0.38050133  0.09108867  0.24308367  1
  F  F49  1  0.24224467  0.95607933  0.90975033  1
  F  F50  1  0.59185100  0.18370200  0.54843700  1
  F  F51  1  0.82928000  0.41464000  0.06111500  1
  F  F52  1  0.25202667  0.74797333  0.39444833  1
  F  F53  1  0.37725400  0.95283200  0.57641700  1
