# generated using pymatgen
data_SrP2(XeF6)3
_symmetry_space_group_name_H-M   'P 1'
_cell_length_a   12.59430800
_cell_length_b   12.25956400
_cell_length_c   11.18358266
_cell_angle_alpha   90.00000000
_cell_angle_beta   98.77725880
_cell_angle_gamma   90.00000000
_symmetry_Int_Tables_number   1
_chemical_formula_structural   SrP2(XeF6)3
_chemical_formula_sum   'Sr4 P8 Xe12 F72'
_cell_volume   1706.53130552
_cell_formula_units_Z   4
loop_
 _symmetry_equiv_pos_site_id
 _symmetry_equiv_pos_as_xyz
  1  'x, y, z'
loop_
 _atom_site_type_symbol
 _atom_site_label
 _atom_site_symmetry_multiplicity
 _atom_site_fract_x
 _atom_site_fract_y
 _atom_site_fract_z
 _atom_site_occupancy
  Sr  Sr0  1  0.78464000  0.50000000  0.77408000  1
  Sr  Sr1  1  0.21536000  0.50000000  0.22592000  1
  Sr  Sr2  1  0.28464000  0.00000000  0.77408000  1
  Sr  Sr3  1  0.71536000  0.00000000  0.22592000  1
  P  P4  1  0.29956500  0.50000000  0.90660800  1
  P  P5  1  0.70043500  0.50000000  0.09339200  1
  P  P6  1  0.25000000  0.75000000  0.50000000  1
  P  P7  1  0.75000000  0.75000000  0.50000000  1
  P  P8  1  0.79956500  0.00000000  0.90660800  1
  P  P9  1  0.20043500  0.00000000  0.09339200  1
  P  P10  1  0.75000000  0.25000000  0.50000000  1
  P  P11  1  0.25000000  0.25000000  0.50000000  1
  Xe  Xe12  1  0.94438000  0.26284900  0.16546700  1
  Xe  Xe13  1  0.05562000  0.26284900  0.83453300  1
  Xe  Xe14  1  0.05562000  0.73715100  0.83453300  1
  Xe  Xe15  1  0.00000000  0.00000000  0.50000000  1
  Xe  Xe16  1  0.00000000  0.50000000  0.50000000  1
  Xe  Xe17  1  0.94438000  0.73715100  0.16546700  1
  Xe  Xe18  1  0.44438000  0.76284900  0.16546700  1
  Xe  Xe19  1  0.55562000  0.76284900  0.83453300  1
  Xe  Xe20  1  0.55562000  0.23715100  0.83453300  1
  Xe  Xe21  1  0.50000000  0.50000000  0.50000000  1
  Xe  Xe22  1  0.50000000  0.00000000  0.50000000  1
  Xe  Xe23  1  0.44438000  0.23715100  0.16546700  1
  F  F24  1  0.81889500  0.81051600  0.61523000  1
  F  F25  1  0.60281500  0.50000000  0.17159000  1
  F  F26  1  0.29808450  0.36695550  0.90954000  1
  F  F27  1  0.76806650  0.63008650  0.57235000  1
  F  F28  1  0.39718500  0.50000000  0.82841000  1
  F  F29  1  0.86029900  0.73045200  0.44279600  1
  F  F30  1  0.79055500  0.50000000  0.21429400  1
  F  F31  1  0.80258500  0.50000000  0.00888600  1
  F  F32  1  0.31026700  0.67381700  0.18963000  1
  F  F33  1  0.38296400  0.50000000  0.03500100  1
  F  F34  1  0.68973300  0.67381700  0.81037000  1
  F  F35  1  0.81889500  0.18948400  0.61523000  1
  F  F36  1  0.07726400  0.35557700  0.13652300  1
  F  F37  1  0.70191550  0.63304450  0.09046000  1
  F  F38  1  0.07726400  0.64442300  0.13652300  1
  F  F39  1  0.19741500  0.50000000  0.99111400  1
  F  F40  1  0.68973300  0.32618300  0.81037000  1
  F  F41  1  0.20944500  0.50000000  0.78570600  1
  F  F42  1  0.92273600  0.64442300  0.86347700  1
  F  F43  1  0.13970100  0.26954800  0.55720400  1
  F  F44  1  0.92273600  0.35557700  0.86347700  1
  F  F45  1  0.58706500  0.50000000  0.67300600  1
  F  F46  1  0.86029900  0.26954800  0.44279600  1
  F  F47  1  0.95940000  0.50000000  0.67359400  1
  F  F48  1  0.61703600  0.50000000  0.96499900  1
  F  F49  1  0.29808450  0.63304450  0.90954000  1
  F  F50  1  0.23193350  0.63008650  0.42765000  1
  F  F51  1  0.23193350  0.36991350  0.42765000  1
  F  F52  1  0.41293500  0.50000000  0.32699400  1
  F  F53  1  0.76806650  0.36991350  0.57235000  1
  F  F54  1  0.04060000  0.50000000  0.32640600  1
  F  F55  1  0.18110500  0.18948400  0.38477000  1
  F  F56  1  0.13970100  0.73045200  0.55720400  1
  F  F57  1  0.18110500  0.81051600  0.38477000  1
  F  F58  1  0.31026700  0.32618300  0.18963000  1
  F  F59  1  0.70191550  0.36695550  0.09046000  1
  F  F60  1  0.31889500  0.31051600  0.61523000  1
  F  F61  1  0.10281500  0.00000000  0.17159000  1
  F  F62  1  0.79808450  0.86695550  0.90954000  1
  F  F63  1  0.26806650  0.13008650  0.57235000  1
  F  F64  1  0.89718500  0.00000000  0.82841000  1
  F  F65  1  0.36029900  0.23045200  0.44279600  1
  F  F66  1  0.29055500  0.00000000  0.21429400  1
  F  F67  1  0.30258500  0.00000000  0.00888600  1
  F  F68  1  0.81026700  0.17381700  0.18963000  1
  F  F69  1  0.88296400  0.00000000  0.03500100  1
  F  F70  1  0.18973300  0.17381700  0.81037000  1
  F  F71  1  0.31889500  0.68948400  0.61523000  1
  F  F72  1  0.57726400  0.85557700  0.13652300  1
  F  F73  1  0.20191550  0.13304450  0.09046000  1
  F  F74  1  0.57726400  0.14442300  0.13652300  1
  F  F75  1  0.69741500  0.00000000  0.99111400  1
  F  F76  1  0.18973300  0.82618300  0.81037000  1
  F  F77  1  0.70944500  0.00000000  0.78570600  1
  F  F78  1  0.42273600  0.14442300  0.86347700  1
  F  F79  1  0.63970100  0.76954800  0.55720400  1
  F  F80  1  0.42273600  0.85557700  0.86347700  1
  F  F81  1  0.08706500  0.00000000  0.67300600  1
  F  F82  1  0.36029900  0.76954800  0.44279600  1
  F  F83  1  0.45940000  0.00000000  0.67359400  1
  F  F84  1  0.11703600  0.00000000  0.96499900  1
  F  F85  1  0.79808450  0.13304450  0.90954000  1
  F  F86  1  0.73193350  0.13008650  0.42765000  1
  F  F87  1  0.73193350  0.86991350  0.42765000  1
  F  F88  1  0.91293500  0.00000000  0.32699400  1
  F  F89  1  0.26806650  0.86991350  0.57235000  1
  F  F90  1  0.54060000  0.00000000  0.32640600  1
  F  F91  1  0.68110500  0.68948400  0.38477000  1
  F  F92  1  0.63970100  0.23045200  0.55720400  1
  F  F93  1  0.68110500  0.31051600  0.38477000  1
  F  F94  1  0.81026700  0.82618300  0.18963000  1
  F  F95  1  0.20191550  0.86695550  0.09046000  1
