# generated using pymatgen
data_Ca(BiO2)2
_symmetry_space_group_name_H-M   'P 1'
_cell_length_a   17.02439200
_cell_length_b   11.84069600
_cell_length_c   12.54287908
_cell_angle_alpha   90.00000000
_cell_angle_beta   124.99025910
_cell_angle_gamma   90.00000000
_symmetry_Int_Tables_number   1
_chemical_formula_structural   Ca(BiO2)2
_chemical_formula_sum   'Ca16 Bi32 O64'
_cell_volume   2071.39196372
_cell_formula_units_Z   16
loop_
 _symmetry_equiv_pos_site_id
 _symmetry_equiv_pos_as_xyz
  1  'x, y, z'
loop_
 _atom_site_type_symbol
 _atom_site_label
 _atom_site_symmetry_multiplicity
 _atom_site_fract_x
 _atom_site_fract_y
 _atom_site_fract_z
 _atom_site_occupancy
  Ca  Ca0  1  0.79498650  0.78710050  0.16264200  1
  Ca  Ca1  1  0.95235900  0.90033500  0.08133100  1
  Ca  Ca2  1  0.70501350  0.71289950  0.83735800  1
  Ca  Ca3  1  0.29498650  0.71289950  0.66264200  1
  Ca  Ca4  1  0.04764100  0.90033500  0.41866900  1
  Ca  Ca5  1  0.54764100  0.59966500  0.91866900  1
  Ca  Ca6  1  0.45235900  0.59966500  0.58133100  1
  Ca  Ca7  1  0.20501350  0.78710050  0.33735800  1
  Ca  Ca8  1  0.29498650  0.28710050  0.16264200  1
  Ca  Ca9  1  0.45235900  0.40033500  0.08133100  1
  Ca  Ca10  1  0.20501350  0.21289950  0.83735800  1
  Ca  Ca11  1  0.79498650  0.21289950  0.66264200  1
  Ca  Ca12  1  0.54764100  0.40033500  0.41866900  1
  Ca  Ca13  1  0.04764100  0.09966500  0.91866900  1
  Ca  Ca14  1  0.95235900  0.09966500  0.58133100  1
  Ca  Ca15  1  0.70501350  0.28710050  0.33735800  1
  Bi  Bi16  1  0.56217150  0.90656450  0.93864000  1
  Bi  Bi17  1  0.14769450  0.90421850  0.76616200  1
  Bi  Bi18  1  0.35230550  0.59578150  0.23383800  1
  Bi  Bi19  1  0.80988050  0.45906650  0.21779300  1
  Bi  Bi20  1  0.58543250  0.76014450  0.49271300  1
  Bi  Bi21  1  0.91456750  0.73985550  0.50728700  1
  Bi  Bi22  1  0.43782850  0.90656450  0.56136000  1
  Bi  Bi23  1  0.93782850  0.59343550  0.06136000  1
  Bi  Bi24  1  0.06217150  0.59343550  0.43864000  1
  Bi  Bi25  1  0.91456750  0.26014450  0.00728700  1
  Bi  Bi26  1  0.69011950  0.04093350  0.78220700  1
  Bi  Bi27  1  0.14769450  0.09578150  0.26616200  1
  Bi  Bi28  1  0.19011950  0.45906650  0.28220700  1
  Bi  Bi29  1  0.35230550  0.40421850  0.73383800  1
  Bi  Bi30  1  0.58543250  0.23985550  0.99271300  1
  Bi  Bi31  1  0.30988050  0.04093350  0.71779300  1
  Bi  Bi32  1  0.06217150  0.40656450  0.93864000  1
  Bi  Bi33  1  0.64769450  0.40421850  0.76616200  1
  Bi  Bi34  1  0.85230550  0.09578150  0.23383800  1
  Bi  Bi35  1  0.30988050  0.95906650  0.21779300  1
  Bi  Bi36  1  0.08543250  0.26014450  0.49271300  1
  Bi  Bi37  1  0.41456750  0.23985550  0.50728700  1
  Bi  Bi38  1  0.93782850  0.40656450  0.56136000  1
  Bi  Bi39  1  0.43782850  0.09343550  0.06136000  1
  Bi  Bi40  1  0.56217150  0.09343550  0.43864000  1
  Bi  Bi41  1  0.41456750  0.76014450  0.00728700  1
  Bi  Bi42  1  0.19011950  0.54093350  0.78220700  1
  Bi  Bi43  1  0.64769450  0.59578150  0.26616200  1
  Bi  Bi44  1  0.69011950  0.95906650  0.28220700  1
  Bi  Bi45  1  0.85230550  0.90421850  0.73383800  1
  Bi  Bi46  1  0.08543250  0.73985550  0.99271300  1
  Bi  Bi47  1  0.80988050  0.54093350  0.71779300  1
  O  O48  1  0.27120150  0.69106250  0.83416400  1
  O  O49  1  0.44794600  0.87531000  0.39923300  1
  O  O50  1  0.30064500  0.99024500  0.37989800  1
  O  O51  1  0.39876700  0.43698900  0.21601700  1
  O  O52  1  0.50325050  0.60775150  0.42521400  1
  O  O53  1  0.93605500  0.71684000  0.35811400  1
  O  O54  1  0.99674950  0.89224850  0.57478600  1
  O  O55  1  0.39876700  0.56301100  0.71601700  1
  O  O56  1  0.10123300  0.06301100  0.78398300  1
  O  O57  1  0.43605500  0.78316000  0.85811400  1
  O  O58  1  0.18700250  0.92277150  0.63268900  1
  O  O59  1  0.22879850  0.80893750  0.16583600  1
  O  O60  1  0.68700250  0.57722850  0.13268900  1
  O  O61  1  0.81299750  0.92277150  0.86731100  1
  O  O62  1  0.22879850  0.19106250  0.66583600  1
  O  O63  1  0.14641200  0.72965700  0.45737100  1
  O  O64  1  0.05205400  0.37531000  0.10076700  1
  O  O65  1  0.27120150  0.30893750  0.33416400  1
  O  O66  1  0.31299750  0.57722850  0.36731100  1
  O  O67  1  0.99674950  0.10775150  0.07478600  1
  O  O68  1  0.64641200  0.77034300  0.95737100  1
  O  O69  1  0.05205400  0.62469000  0.60076700  1
  O  O70  1  0.30064500  0.00975500  0.87989800  1
  O  O71  1  0.10123300  0.93698900  0.28398300  1
  O  O72  1  0.85358800  0.72965700  0.04262900  1
  O  O73  1  0.35358800  0.77034300  0.54262900  1
  O  O74  1  0.19935500  0.50975500  0.62010200  1
  O  O75  1  0.19935500  0.49024500  0.12010200  1
  O  O76  1  0.50325050  0.39224850  0.92521400  1
  O  O77  1  0.56394500  0.78316000  0.64188600  1
  O  O78  1  0.06394500  0.71684000  0.14188600  1
  O  O79  1  0.44794600  0.12469000  0.89923300  1
  O  O80  1  0.77120150  0.19106250  0.83416400  1
  O  O81  1  0.94794600  0.37531000  0.39923300  1
  O  O82  1  0.80064500  0.49024500  0.37989800  1
  O  O83  1  0.89876700  0.93698900  0.21601700  1
  O  O84  1  0.00325050  0.10775150  0.42521400  1
  O  O85  1  0.43605500  0.21684000  0.35811400  1
  O  O86  1  0.49674950  0.39224850  0.57478600  1
  O  O87  1  0.89876700  0.06301100  0.71601700  1
  O  O88  1  0.60123300  0.56301100  0.78398300  1
  O  O89  1  0.93605500  0.28316000  0.85811400  1
  O  O90  1  0.68700250  0.42277150  0.63268900  1
  O  O91  1  0.72879850  0.30893750  0.16583600  1
  O  O92  1  0.18700250  0.07722850  0.13268900  1
  O  O93  1  0.31299750  0.42277150  0.86731100  1
  O  O94  1  0.72879850  0.69106250  0.66583600  1
  O  O95  1  0.64641200  0.22965700  0.45737100  1
  O  O96  1  0.55205400  0.87531000  0.10076700  1
  O  O97  1  0.77120150  0.80893750  0.33416400  1
  O  O98  1  0.81299750  0.07722850  0.36731100  1
  O  O99  1  0.49674950  0.60775150  0.07478600  1
  O  O100  1  0.14641200  0.27034300  0.95737100  1
  O  O101  1  0.55205400  0.12469000  0.60076700  1
  O  O102  1  0.80064500  0.50975500  0.87989800  1
  O  O103  1  0.60123300  0.43698900  0.28398300  1
  O  O104  1  0.35358800  0.22965700  0.04262900  1
  O  O105  1  0.85358800  0.27034300  0.54262900  1
  O  O106  1  0.69935500  0.00975500  0.62010200  1
  O  O107  1  0.69935500  0.99024500  0.12010200  1
  O  O108  1  0.00325050  0.89224850  0.92521400  1
  O  O109  1  0.06394500  0.28316000  0.64188600  1
  O  O110  1  0.56394500  0.21684000  0.14188600  1
  O  O111  1  0.94794600  0.62469000  0.89923300  1
