# generated using pymatgen
data_Ca7NbSi4O17F
_symmetry_space_group_name_H-M   'P 1'
_cell_length_a   7.45252000
_cell_length_b   10.55758100
_cell_length_c   10.96928549
_cell_angle_alpha   90.00000000
_cell_angle_beta   109.47077467
_cell_angle_gamma   90.00000000
_symmetry_Int_Tables_number   1
_chemical_formula_structural   Ca7NbSi4O17F
_chemical_formula_sum   'Ca14 Nb2 Si8 O34 F2'
_cell_volume   813.71223470
_cell_formula_units_Z   2
loop_
 _symmetry_equiv_pos_site_id
 _symmetry_equiv_pos_as_xyz
  1  'x, y, z'
loop_
 _atom_site_type_symbol
 _atom_site_label
 _atom_site_symmetry_multiplicity
 _atom_site_fract_x
 _atom_site_fract_y
 _atom_site_fract_z
 _atom_site_occupancy
  Ca  Ca0  1  0.51915200  0.35054700  0.06852500  1
  Ca  Ca1  1  0.51915200  0.64945300  0.56852500  1
  Ca  Ca2  1  0.02568400  0.33466200  0.08001800  1
  Ca  Ca3  1  0.02568400  0.66533800  0.58001800  1
  Ca  Ca4  1  0.31590500  0.61910000  0.19235300  1
  Ca  Ca5  1  0.31590500  0.38090000  0.69235300  1
  Ca  Ca6  1  0.82845500  0.62681600  0.17160000  1
  Ca  Ca7  1  0.82845500  0.37318400  0.67160000  1
  Ca  Ca8  1  0.65009700  0.86736300  0.34127900  1
  Ca  Ca9  1  0.65009700  0.13263700  0.84127900  1
  Ca  Ca10  1  0.44924800  0.16332700  0.42697100  1
  Ca  Ca11  1  0.44924800  0.83667300  0.92697100  1
  Ca  Ca12  1  0.96044700  0.15364700  0.43980200  1
  Ca  Ca13  1  0.96044700  0.84635300  0.93980200  1
  Nb  Nb14  1  0.13919700  0.85940300  0.31781600  1
  Nb  Nb15  1  0.13919700  0.14059700  0.81781600  1
  Si  Si16  1  0.33896100  0.93058700  0.63804900  1
  Si  Si17  1  0.33896100  0.06941300  0.13804900  1
  Si  Si18  1  0.75939200  0.94540100  0.62376300  1
  Si  Si19  1  0.75939200  0.05459900  0.12376300  1
  Si  Si20  1  0.64795800  0.44408800  0.38337700  1
  Si  Si21  1  0.64795800  0.55591200  0.88337700  1
  Si  Si22  1  0.21071100  0.44023800  0.39314300  1
  Si  Si23  1  0.21071100  0.55976200  0.89314300  1
  O  O24  1  0.21479500  0.98749300  0.49520800  1
  O  O25  1  0.21479500  0.01250700  0.99520800  1
  O  O26  1  0.73120000  0.02915400  0.49259600  1
  O  O27  1  0.73120000  0.97084600  0.99259600  1
  O  O28  1  0.31071000  0.00067000  0.76453600  1
  O  O29  1  0.31071000  0.99933000  0.26453600  1
  O  O30  1  0.92667400  0.99173800  0.75568000  1
  O  O31  1  0.92667400  0.00826200  0.25568000  1
  O  O32  1  0.32362000  0.77901500  0.65446400  1
  O  O33  1  0.32362000  0.22098500  0.15446400  1
  O  O34  1  0.77066800  0.79703400  0.58842500  1
  O  O35  1  0.77066800  0.20296600  0.08842500  1
  O  O36  1  0.63172400  0.49479400  0.23973500  1
  O  O37  1  0.63172400  0.50520600  0.73973500  1
  O  O38  1  0.07595900  0.49198800  0.25288700  1
  O  O39  1  0.07595900  0.50801200  0.75288700  1
  O  O40  1  0.76971200  0.53141200  0.50502100  1
  O  O41  1  0.76971200  0.46858800  0.00502100  1
  O  O42  1  0.21822200  0.52134700  0.52165600  1
  O  O43  1  0.21822200  0.47865300  0.02165600  1
  O  O44  1  0.70107800  0.29523600  0.41667100  1
  O  O45  1  0.70107800  0.70476400  0.91667100  1
  O  O46  1  0.19069200  0.28941200  0.41720600  1
  O  O47  1  0.19069200  0.71058800  0.91720600  1
  O  O48  1  0.95625300  0.76762800  0.37050400  1
  O  O49  1  0.95625300  0.23237200  0.87050400  1
  O  O50  1  0.37342400  0.76491900  0.37657500  1
  O  O51  1  0.37342400  0.23508100  0.87657500  1
  O  O52  1  0.06533000  0.77815000  0.15426500  1
  O  O53  1  0.06533000  0.22185000  0.65426500  1
  O  O54  1  0.56648900  0.97274900  0.66543600  1
  O  O55  1  0.56648900  0.02725100  0.16543600  1
  O  O56  1  0.42602200  0.47059100  0.38329400  1
  O  O57  1  0.42602200  0.52940900  0.88329400  1
  F  F58  1  0.54972000  0.75173000  0.14954400  1
  F  F59  1  0.54972000  0.24827000  0.64954400  1
