# generated using pymatgen
data_KSbSe2
_symmetry_space_group_name_H-M   'P 1'
_cell_length_a   6.64996000
_cell_length_b   6.66023672
_cell_length_c   12.67121005
_cell_angle_alpha   99.11698462
_cell_angle_beta   99.30307010
_cell_angle_gamma   103.05945888
_symmetry_Int_Tables_number   1
_chemical_formula_structural   KSbSe2
_chemical_formula_sum   'K4 Sb4 Se8'
_cell_volume   528.29252063
_cell_formula_units_Z   4
loop_
 _symmetry_equiv_pos_site_id
 _symmetry_equiv_pos_as_xyz
  1  'x, y, z'
loop_
 _atom_site_type_symbol
 _atom_site_label
 _atom_site_symmetry_multiplicity
 _atom_site_fract_x
 _atom_site_fract_y
 _atom_site_fract_z
 _atom_site_occupancy
  K  K0  1  0.57955800  0.76755900  0.41081600  1
  K  K1  1  0.42044200  0.23244100  0.58918400  1
  K  K2  1  0.93363800  0.17913000  0.84709700  1
  K  K3  1  0.06636200  0.82087000  0.15290300  1
  Sb  Sb4  1  0.92183000  0.31241100  0.35383300  1
  Sb  Sb5  1  0.50168600  0.72092800  0.91413000  1
  Sb  Sb6  1  0.49831400  0.27907200  0.08587000  1
  Sb  Sb7  1  0.07817000  0.68758900  0.64616700  1
  Se  Se8  1  0.94197200  0.29418100  0.59253700  1
  Se  Se9  1  0.51496200  0.25120800  0.32532400  1
  Se  Se10  1  0.47199400  0.32030900  0.86628500  1
  Se  Se11  1  0.89223200  0.28644100  0.12268000  1
  Se  Se12  1  0.05802800  0.70581900  0.40746300  1
  Se  Se13  1  0.10776800  0.71355900  0.87732000  1
  Se  Se14  1  0.52800600  0.67969100  0.13371500  1
  Se  Se15  1  0.48503800  0.74879200  0.67467600  1
