# generated using pymatgen
data_NaCuPO4
_symmetry_space_group_name_H-M   'P 1'
_cell_length_a   5.08101039
_cell_length_b   8.99995500
_cell_length_c   8.08676706
_cell_angle_alpha   90.00000000
_cell_angle_beta   119.92794329
_cell_angle_gamma   90.00000000
_symmetry_Int_Tables_number   1
_chemical_formula_structural   NaCuPO4
_chemical_formula_sum   'Na4 Cu4 P4 O16'
_cell_volume   320.48733053
_cell_formula_units_Z   4
loop_
 _symmetry_equiv_pos_site_id
 _symmetry_equiv_pos_as_xyz
  1  'x, y, z'
loop_
 _atom_site_type_symbol
 _atom_site_label
 _atom_site_symmetry_multiplicity
 _atom_site_fract_x
 _atom_site_fract_y
 _atom_site_fract_z
 _atom_site_occupancy
  Na  Na0  1  0.34939500  0.35577800  0.30340200  1
  Na  Na1  1  0.34939500  0.14422200  0.80340200  1
  Na  Na2  1  0.65060500  0.85577800  0.19659800  1
  Na  Na3  1  0.65060500  0.64422200  0.69659800  1
  Cu  Cu4  1  0.50000000  0.00000000  0.50000000  1
  Cu  Cu5  1  0.00000000  0.50000000  0.50000000  1
  Cu  Cu6  1  0.00000000  0.00000000  0.00000000  1
  Cu  Cu7  1  0.50000000  0.50000000  0.00000000  1
  P  P8  1  0.85206100  0.32494000  0.80239000  1
  P  P9  1  0.14793900  0.82494000  0.69761000  1
  P  P10  1  0.14793900  0.67506000  0.19761000  1
  P  P11  1  0.85206100  0.17506000  0.30239000  1
  O  O12  1  0.16953600  0.36575300  0.96918700  1
  O  O13  1  0.83046400  0.63424700  0.03081300  1
  O  O14  1  0.83046400  0.86575300  0.53081300  1
  O  O15  1  0.58008300  0.37692000  0.82497600  1
  O  O16  1  0.20812800  0.60549500  0.38987300  1
  O  O17  1  0.16953600  0.13424700  0.46918700  1
  O  O18  1  0.79187200  0.39450500  0.61012700  1
  O  O19  1  0.41991700  0.87692000  0.67502400  1
  O  O20  1  0.41991700  0.62308000  0.17502400  1
  O  O21  1  0.84562800  0.34931000  0.28544400  1
  O  O22  1  0.58008300  0.12308000  0.32497600  1
  O  O23  1  0.84562800  0.15069000  0.78544400  1
  O  O24  1  0.20812800  0.89450500  0.88987300  1
  O  O25  1  0.79187200  0.10549500  0.11012700  1
  O  O26  1  0.15437200  0.84931000  0.21455600  1
  O  O27  1  0.15437200  0.65069000  0.71455600  1
