# generated using pymatgen
data_RbBa4Sb3O
_symmetry_space_group_name_H-M   'P 1'
_cell_length_a   9.06914200
_cell_length_b   9.06914200
_cell_length_c   16.77139800
_cell_angle_alpha   90.00000000
_cell_angle_beta   90.00000000
_cell_angle_gamma   90.00000000
_symmetry_Int_Tables_number   1
_chemical_formula_structural   RbBa4Sb3O
_chemical_formula_sum   'Rb4 Ba16 Sb12 O4'
_cell_volume   1379.43635963
_cell_formula_units_Z   4
loop_
 _symmetry_equiv_pos_site_id
 _symmetry_equiv_pos_as_xyz
  1  'x, y, z'
loop_
 _atom_site_type_symbol
 _atom_site_label
 _atom_site_symmetry_multiplicity
 _atom_site_fract_x
 _atom_site_fract_y
 _atom_site_fract_z
 _atom_site_occupancy
  Rb  Rb0  1  0.50000000  0.50000000  0.00000000  1
  Rb  Rb1  1  0.00000000  0.00000000  0.00000000  1
  Rb  Rb2  1  0.00000000  0.00000000  0.50000000  1
  Rb  Rb3  1  0.50000000  0.50000000  0.50000000  1
  Ba  Ba4  1  0.65685300  0.84314700  0.34561600  1
  Ba  Ba5  1  0.34314700  0.15685300  0.34561600  1
  Ba  Ba6  1  0.15685300  0.34314700  0.15438400  1
  Ba  Ba7  1  0.15685300  0.65685300  0.34561600  1
  Ba  Ba8  1  0.84314700  0.65685300  0.15438400  1
  Ba  Ba9  1  0.84314700  0.34314700  0.34561600  1
  Ba  Ba10  1  0.34314700  0.84314700  0.15438400  1
  Ba  Ba11  1  0.65685300  0.15685300  0.15438400  1
  Ba  Ba12  1  0.15685300  0.34314700  0.84561600  1
  Ba  Ba13  1  0.84314700  0.65685300  0.84561600  1
  Ba  Ba14  1  0.65685300  0.84314700  0.65438400  1
  Ba  Ba15  1  0.65685300  0.15685300  0.84561600  1
  Ba  Ba16  1  0.34314700  0.15685300  0.65438400  1
  Ba  Ba17  1  0.34314700  0.84314700  0.84561600  1
  Ba  Ba18  1  0.84314700  0.34314700  0.65438400  1
  Ba  Ba19  1  0.15685300  0.65685300  0.65438400  1
  Sb  Sb20  1  0.38638600  0.11361400  0.00000000  1
  Sb  Sb21  1  0.11361400  0.61361400  0.00000000  1
  Sb  Sb22  1  0.61361400  0.88638600  0.00000000  1
  Sb  Sb23  1  0.88638600  0.38638600  0.00000000  1
  Sb  Sb24  1  0.50000000  0.50000000  0.25000000  1
  Sb  Sb25  1  0.00000000  0.00000000  0.25000000  1
  Sb  Sb26  1  0.88638600  0.61361400  0.50000000  1
  Sb  Sb27  1  0.61361400  0.11361400  0.50000000  1
  Sb  Sb28  1  0.11361400  0.38638600  0.50000000  1
  Sb  Sb29  1  0.38638600  0.88638600  0.50000000  1
  Sb  Sb30  1  0.00000000  0.00000000  0.75000000  1
  Sb  Sb31  1  0.50000000  0.50000000  0.75000000  1
  O  O32  1  0.00000000  0.50000000  0.25000000  1
  O  O33  1  0.50000000  0.00000000  0.25000000  1
  O  O34  1  0.50000000  0.00000000  0.75000000  1
  O  O35  1  0.00000000  0.50000000  0.75000000  1
