# generated using pymatgen
data_CsSi2HO5
_symmetry_space_group_name_H-M   'P 1'
_cell_length_a   5.04919700
_cell_length_b   8.98412900
_cell_length_c   13.04073100
_cell_angle_alpha   90.00000000
_cell_angle_beta   90.00000000
_cell_angle_gamma   90.00000000
_symmetry_Int_Tables_number   1
_chemical_formula_structural   CsSi2HO5
_chemical_formula_sum   'Cs4 Si8 H4 O20'
_cell_volume   591.56194910
_cell_formula_units_Z   4
loop_
 _symmetry_equiv_pos_site_id
 _symmetry_equiv_pos_as_xyz
  1  'x, y, z'
loop_
 _atom_site_type_symbol
 _atom_site_label
 _atom_site_symmetry_multiplicity
 _atom_site_fract_x
 _atom_site_fract_y
 _atom_site_fract_z
 _atom_site_occupancy
  Cs  Cs0  1  0.06711700  0.75000000  0.94183900  1
  Cs  Cs1  1  0.56711700  0.75000000  0.55816100  1
  Cs  Cs2  1  0.43288300  0.25000000  0.44183900  1
  Cs  Cs3  1  0.93288300  0.25000000  0.05816100  1
  Si  Si4  1  0.03016400  0.07116600  0.68349600  1
  Si  Si5  1  0.96983600  0.57116600  0.31650400  1
  Si  Si6  1  0.46983600  0.57116600  0.18349600  1
  Si  Si7  1  0.96983600  0.92883400  0.31650400  1
  Si  Si8  1  0.53016400  0.42883400  0.81650400  1
  Si  Si9  1  0.46983600  0.92883400  0.18349600  1
  Si  Si10  1  0.53016400  0.07116600  0.81650400  1
  Si  Si11  1  0.03016400  0.42883400  0.68349600  1
  H  H12  1  0.50000000  0.50000000  0.00000000  1
  H  H13  1  0.50000000  0.00000000  0.00000000  1
  H  H14  1  0.00000000  0.50000000  0.50000000  1
  H  H15  1  0.00000000  0.00000000  0.50000000  1
  O  O16  1  0.39651200  0.47483800  0.08357300  1
  O  O17  1  0.72616500  0.03325400  0.72212300  1
  O  O18  1  0.60348800  0.52516200  0.91642700  1
  O  O19  1  0.54687300  0.25000000  0.84589500  1
  O  O20  1  0.27383500  0.96674600  0.27787700  1
  O  O21  1  0.95312700  0.75000000  0.34589500  1
  O  O22  1  0.22616500  0.46674600  0.77787700  1
  O  O23  1  0.22616500  0.03325400  0.77787700  1
  O  O24  1  0.89651200  0.02516200  0.41642700  1
  O  O25  1  0.72616500  0.46674600  0.72212300  1
  O  O26  1  0.60348800  0.97483800  0.91642700  1
  O  O27  1  0.10348800  0.97483800  0.58357300  1
  O  O28  1  0.77383500  0.53325400  0.22212300  1
  O  O29  1  0.10348800  0.52516200  0.58357300  1
  O  O30  1  0.77383500  0.96674600  0.22212300  1
  O  O31  1  0.04687300  0.25000000  0.65410500  1
  O  O32  1  0.27383500  0.53325400  0.27787700  1
  O  O33  1  0.45312700  0.75000000  0.15410500  1
  O  O34  1  0.39651200  0.02516200  0.08357300  1
  O  O35  1  0.89651200  0.47483800  0.41642700  1
