# generated using pymatgen
data_CaMgAsO4F
_symmetry_space_group_name_H-M   'P 1'
_cell_length_a   6.79949000
_cell_length_b   9.05468200
_cell_length_c   7.20674338
_cell_angle_alpha   90.00000000
_cell_angle_beta   113.51262998
_cell_angle_gamma   90.00000000
_symmetry_Int_Tables_number   1
_chemical_formula_structural   CaMgAsO4F
_chemical_formula_sum   'Ca4 Mg4 As4 O16 F4'
_cell_volume   406.85976810
_cell_formula_units_Z   4
loop_
 _symmetry_equiv_pos_site_id
 _symmetry_equiv_pos_as_xyz
  1  'x, y, z'
loop_
 _atom_site_type_symbol
 _atom_site_label
 _atom_site_symmetry_multiplicity
 _atom_site_fract_x
 _atom_site_fract_y
 _atom_site_fract_z
 _atom_site_occupancy
  Ca  Ca0  1  0.50281750  0.66742550  0.75756800  1
  Ca  Ca1  1  0.50281750  0.33257450  0.25756800  1
  Ca  Ca2  1  0.00281750  0.16742550  0.75756800  1
  Ca  Ca3  1  0.00281750  0.83257450  0.25756800  1
  Mg  Mg4  1  0.50381500  0.00083600  0.99952800  1
  Mg  Mg5  1  0.50381500  0.99916400  0.49952800  1
  Mg  Mg6  1  0.00381500  0.50083600  0.99952800  1
  Mg  Mg7  1  0.00381500  0.49916400  0.49952800  1
  As  As8  1  0.50286150  0.67902550  0.25062100  1
  As  As9  1  0.50286150  0.32097450  0.75062100  1
  As  As10  1  0.00286150  0.17902550  0.25062100  1
  As  As11  1  0.00286150  0.82097450  0.75062100  1
  O  O12  1  0.18291950  0.93913350  0.92188500  1
  O  O13  1  0.38873500  0.78581500  0.37973000  1
  O  O14  1  0.61682000  0.78597800  0.12081200  1
  O  O15  1  0.82528900  0.06064100  0.07719900  1
  O  O16  1  0.38873500  0.21418500  0.87973000  1
  O  O17  1  0.61682000  0.21402200  0.62081200  1
  O  O18  1  0.18291950  0.06086650  0.42188500  1
  O  O19  1  0.82528900  0.93935900  0.57719900  1
  O  O20  1  0.68291950  0.43913350  0.92188500  1
  O  O21  1  0.88873500  0.28581500  0.37973000  1
  O  O22  1  0.11682000  0.28597800  0.12081200  1
  O  O23  1  0.32528900  0.56064100  0.07719900  1
  O  O24  1  0.88873500  0.71418500  0.87973000  1
  O  O25  1  0.11682000  0.71402200  0.62081200  1
  O  O26  1  0.68291950  0.56086650  0.42188500  1
  O  O27  1  0.32528900  0.43935900  0.57719900  1
  F  F28  1  0.50524300  0.08232300  0.25045600  1
  F  F29  1  0.50524300  0.91767700  0.75045600  1
  F  F30  1  0.00524300  0.58232300  0.25045600  1
  F  F31  1  0.00524300  0.41767700  0.75045600  1
