# generated using pymatgen
data_NdH12(NO5)3
_symmetry_space_group_name_H-M   'P 1'
_cell_length_a   6.87294497
_cell_length_b   9.28581659
_cell_length_c   11.86150063
_cell_angle_alpha   109.75772619
_cell_angle_beta   91.14635913
_cell_angle_gamma   111.45685215
_symmetry_Int_Tables_number   1
_chemical_formula_structural   NdH12(NO5)3
_chemical_formula_sum   'Nd2 H24 N6 O30'
_cell_volume   654.08985832
_cell_formula_units_Z   2
loop_
 _symmetry_equiv_pos_site_id
 _symmetry_equiv_pos_as_xyz
  1  'x, y, z'
loop_
 _atom_site_type_symbol
 _atom_site_label
 _atom_site_symmetry_multiplicity
 _atom_site_fract_x
 _atom_site_fract_y
 _atom_site_fract_z
 _atom_site_occupancy
  Nd  Nd0  1  0.87517509  0.17865667  0.22495842  1
  Nd  Nd1  1  0.12482491  0.82134333  0.77504158  1
  H  H2  1  0.28493039  0.38381264  0.97365585  1
  H  H3  1  0.71506961  0.61618736  0.02634415  1
  H  H4  1  0.21552070  0.51690393  0.00934097  1
  H  H5  1  0.78447930  0.48309607  0.99065903  1
  H  H6  1  0.81928743  0.89933834  0.44937156  1
  H  H7  1  0.18071257  0.10066166  0.55062844  1
  H  H8  1  0.73093823  0.01154534  0.50754000  1
  H  H9  1  0.26906177  0.98845466  0.49246000  1
  H  H10  1  0.14139149  0.98986115  0.12189629  1
  H  H11  1  0.85860851  0.01013885  0.87810371  1
  H  H12  1  0.25120142  0.06632894  0.20695003  1
  H  H13  1  0.74879858  0.93367106  0.79304997  1
  H  H14  1  0.31384035  0.43343791  0.22549053  1
  H  H15  1  0.68615965  0.56656209  0.77450947  1
  H  H16  1  0.17542345  0.30768561  0.36413686  1
  H  H17  1  0.82457655  0.69231439  0.63586314  1
  H  H18  1  0.60278305  0.66848050  0.19732173  1
  H  H19  1  0.39721695  0.33151950  0.80267827  1
  H  H20  1  0.46883478  0.70294207  0.11721518  1
  H  H21  1  0.53116522  0.29705793  0.88278482  1
  H  H22  1  0.01196755  0.27497686  0.55926682  1
  H  H23  1  0.98803245  0.72502314  0.44073318  1
  H  H24  1  0.27587355  0.37117769  0.51790474  1
  H  H25  1  0.72412645  0.62882231  0.48209526  1
  N  N26  1  0.42426550  0.85493997  0.32313349  1
  N  N27  1  0.57573450  0.14506003  0.67686651  1
  N  N28  1  0.74222160  0.17477276  0.99780268  1
  N  N29  1  0.25777840  0.82522724  0.00219732  1
  N  N30  1  0.73419793  0.41409576  0.31571932  1
  N  N31  1  0.26580207  0.58590424  0.68428068  1
  O  O32  1  0.18637826  0.40099496  0.04090092  1
  O  O33  1  0.81362174  0.59900504  0.95909908  1
  O  O34  1  0.80845034  0.00592487  0.43002156  1
  O  O35  1  0.19154966  0.99407513  0.56997844  1
  O  O36  1  0.13012895  0.05203222  0.17649228  1
  O  O37  1  0.86987105  0.94796778  0.82350772  1
  O  O38  1  0.18889344  0.32098113  0.27891902  1
  O  O39  1  0.81110656  0.67901887  0.72108098  1
  O  O40  1  0.53676944  0.62967558  0.14129448  1
  O  O41  1  0.46323056  0.37032442  0.85870552  1
  O  O42  1  0.15685517  0.28016491  0.51068175  1
  O  O43  1  0.84314483  0.71983509  0.48931825  1
  O  O44  1  0.42183412  0.99195373  0.32877236  1
  O  O45  1  0.57816588  0.00804627  0.67122764  1
  O  O46  1  0.61621370  0.86340490  0.26983913  1
  O  O47  1  0.38378630  0.13659510  0.73016087  1
  O  O48  1  0.24754717  0.72220699  0.36720926  1
  O  O49  1  0.75245283  0.27779301  0.63279074  1
  O  O50  1  0.68970929  0.24748798  0.07026149  1
  O  O51  1  0.31029071  0.75251202  0.92973851  1
  O  O52  1  0.85468544  0.09745661  0.01905102  1
  O  O53  1  0.14531456  0.90254339  0.98094898  1
  O  O54  1  0.68293607  0.17933815  0.90931667  1
  O  O55  1  0.31706393  0.82066185  0.09068333  1
  O  O56  1  0.84907677  0.45217049  0.20327519  1
  O  O57  1  0.15092323  0.54782951  0.79672481  1
  O  O58  1  0.68603290  0.27154006  0.38807749  1
  O  O59  1  0.31396710  0.72845994  0.61192251  1
  O  O60  1  0.67098090  0.51050516  0.35193002  1
  O  O61  1  0.32901910  0.48949484  0.64806998  1
