# generated using pymatgen
data_Ca3(AlN2)2
_symmetry_space_group_name_H-M   'P 1'
_cell_length_a   9.58721200
_cell_length_b   5.83042300
_cell_length_c   9.60088437
_cell_angle_alpha   90.00000000
_cell_angle_beta   111.57983282
_cell_angle_gamma   90.00000000
_symmetry_Int_Tables_number   1
_chemical_formula_structural   Ca3(AlN2)2
_chemical_formula_sum   'Ca12 Al8 N16'
_cell_volume   499.04842026
_cell_formula_units_Z   4
loop_
 _symmetry_equiv_pos_site_id
 _symmetry_equiv_pos_as_xyz
  1  'x, y, z'
loop_
 _atom_site_type_symbol
 _atom_site_label
 _atom_site_symmetry_multiplicity
 _atom_site_fract_x
 _atom_site_fract_y
 _atom_site_fract_z
 _atom_site_occupancy
  Ca  Ca0  1  0.32870800  0.65205300  0.46444600  1
  Ca  Ca1  1  0.31488300  0.40620600  0.94914000  1
  Ca  Ca2  1  0.17129200  0.15205300  0.53555400  1
  Ca  Ca3  1  0.68511700  0.59379400  0.05086000  1
  Ca  Ca4  1  0.67129200  0.34794700  0.53555400  1
  Ca  Ca5  1  0.18511700  0.90620600  0.05086000  1
  Ca  Ca6  1  0.90009800  0.62030700  0.81782200  1
  Ca  Ca7  1  0.59990200  0.12030700  0.18217800  1
  Ca  Ca8  1  0.81488300  0.09379400  0.94914000  1
  Ca  Ca9  1  0.09990200  0.37969300  0.18217800  1
  Ca  Ca10  1  0.40009800  0.87969300  0.81782200  1
  Ca  Ca11  1  0.82870800  0.84794700  0.46444600  1
  Al  Al12  1  0.98840800  0.14228500  0.74178200  1
  Al  Al13  1  0.39151400  0.11074700  0.38065700  1
  Al  Al14  1  0.01159200  0.85771500  0.25821800  1
  Al  Al15  1  0.10848600  0.61074700  0.61934300  1
  Al  Al16  1  0.51159200  0.64228500  0.25821800  1
  Al  Al17  1  0.60848600  0.88925300  0.61934300  1
  Al  Al18  1  0.48840800  0.35771500  0.74178200  1
  Al  Al19  1  0.89151400  0.38925300  0.38065700  1
  N  N20  1  0.93711700  0.73849300  0.06125600  1
  N  N21  1  0.55158600  0.89732900  0.39873300  1
  N  N22  1  0.29786700  0.48916300  0.69954100  1
  N  N23  1  0.94841400  0.39732900  0.60126700  1
  N  N24  1  0.05158600  0.60267100  0.39873300  1
  N  N25  1  0.70213300  0.51083700  0.30045900  1
  N  N26  1  0.10592300  0.90115700  0.70430800  1
  N  N27  1  0.06288300  0.26150700  0.93874400  1
  N  N28  1  0.79786700  0.01083700  0.69954100  1
  N  N29  1  0.56288300  0.23849300  0.93874400  1
  N  N30  1  0.43711700  0.76150700  0.06125600  1
  N  N31  1  0.44841400  0.10267100  0.60126700  1
  N  N32  1  0.89407700  0.09884300  0.29569200  1
  N  N33  1  0.39407700  0.40115700  0.29569200  1
  N  N34  1  0.60592300  0.59884300  0.70430800  1
  N  N35  1  0.20213300  0.98916300  0.30045900  1
