# generated using pymatgen
data_Na3Sc2(BO3)3
_symmetry_space_group_name_H-M   'P 1'
_cell_length_a   8.69308383
_cell_length_b   8.69308383
_cell_length_c   20.10050863
_cell_angle_alpha   90.00000000
_cell_angle_beta   90.00000000
_cell_angle_gamma   120.00000000
_symmetry_Int_Tables_number   1
_chemical_formula_structural   Na3Sc2(BO3)3
_chemical_formula_sum   'Na18 Sc12 B18 O54'
_cell_volume   1315.48352685
_cell_formula_units_Z   6
loop_
 _symmetry_equiv_pos_site_id
 _symmetry_equiv_pos_as_xyz
  1  'x, y, z'
loop_
 _atom_site_type_symbol
 _atom_site_label
 _atom_site_symmetry_multiplicity
 _atom_site_fract_x
 _atom_site_fract_y
 _atom_site_fract_z
 _atom_site_occupancy
  Na  Na0  1  0.33450800  0.00000000  0.25000000  1
  Na  Na1  1  0.33215867  0.33333333  0.08333333  1
  Na  Na2  1  0.00000000  0.33450800  0.25000000  1
  Na  Na3  1  0.00117467  0.66784133  0.08333333  1
  Na  Na4  1  0.66549200  0.66549200  0.25000000  1
  Na  Na5  1  0.66666667  0.99882533  0.08333333  1
  Na  Na6  1  0.00117467  0.33333333  0.58333333  1
  Na  Na7  1  0.99882533  0.66666667  0.41666667  1
  Na  Na8  1  0.66666667  0.66784133  0.58333333  1
  Na  Na9  1  0.66784133  0.00117467  0.41666667  1
  Na  Na10  1  0.33215867  0.99882533  0.58333333  1
  Na  Na11  1  0.33333333  0.33215867  0.41666667  1
  Na  Na12  1  0.66784133  0.66666667  0.91666667  1
  Na  Na13  1  0.66549200  0.00000000  0.75000000  1
  Na  Na14  1  0.33333333  0.00117467  0.91666667  1
  Na  Na15  1  0.33450800  0.33450800  0.75000000  1
  Na  Na16  1  0.99882533  0.33215867  0.91666667  1
  Na  Na17  1  0.00000000  0.66549200  0.75000000  1
  Sc  Sc18  1  0.33333333  0.66666667  0.49478167  1
  Sc  Sc19  1  0.33333333  0.66666667  0.83855167  1
  Sc  Sc20  1  0.33333333  0.66666667  0.33855167  1
  Sc  Sc21  1  0.33333333  0.66666667  0.99478167  1
  Sc  Sc22  1  0.00000000  0.00000000  0.82811500  1
  Sc  Sc23  1  0.00000000  0.00000000  0.17188500  1
  Sc  Sc24  1  1.00000000  0.00000000  0.67188500  1
  Sc  Sc25  1  0.00000000  0.00000000  0.32811500  1
  Sc  Sc26  1  0.66666667  0.33333333  0.16144833  1
  Sc  Sc27  1  0.66666667  0.33333333  0.50521833  1
  Sc  Sc28  1  0.66666667  0.33333333  0.00521833  1
  Sc  Sc29  1  0.66666667  0.33333333  0.66144833  1
  B  B30  1  0.66113800  0.00000000  0.25000000  1
  B  B31  1  0.00000000  0.66113800  0.25000000  1
  B  B32  1  0.00552867  0.33333333  0.08333333  1
  B  B33  1  0.32780467  0.99447133  0.08333333  1
  B  B34  1  0.33886200  0.33886200  0.25000000  1
  B  B35  1  0.66666667  0.67219533  0.08333333  1
  B  B36  1  0.32780467  0.33333333  0.58333333  1
  B  B37  1  0.66666667  0.99447133  0.58333333  1
  B  B38  1  0.67219533  0.66666667  0.41666667  1
  B  B39  1  0.99447133  0.32780467  0.41666667  1
  B  B40  1  0.00552867  0.67219533  0.58333333  1
  B  B41  1  0.33333333  0.00552867  0.41666667  1
  B  B42  1  0.99447133  0.66666667  0.91666667  1
  B  B43  1  0.33333333  0.32780467  0.91666667  1
  B  B44  1  0.33886200  0.00000000  0.75000000  1
  B  B45  1  0.66113800  0.66113800  0.75000000  1
  B  B46  1  0.67219533  0.00552867  0.91666667  1
  B  B47  1  0.00000000  0.33886200  0.75000000  1
  O  O48  1  0.78278067  0.80982133  0.12374333  1
  O  O49  1  0.11611400  0.63962600  0.29041000  1
  O  O50  1  0.88388600  0.52351200  0.20959000  1
  O  O51  1  0.19017867  0.97295933  0.12374333  1
  O  O52  1  0.52351200  0.88388600  0.29041000  1
  O  O53  1  0.15457033  0.48790367  0.41666667  1
  O  O54  1  0.30629267  0.85684533  0.04292333  1
  O  O55  1  0.51209633  0.84542967  0.91666667  1
  O  O56  1  0.14315467  0.44944733  0.04292333  1
  O  O57  1  0.02704067  0.21721933  0.12374333  1
  O  O58  1  0.55055267  0.69370733  0.04292333  1
  O  O59  1  0.63962600  0.11611400  0.20959000  1
  O  O60  1  0.51209633  0.66666667  0.41666667  1
  O  O61  1  0.36037400  0.47648800  0.29041000  1
  O  O62  1  0.33333333  0.48790367  0.91666667  1
  O  O63  1  0.15457033  0.66666667  0.91666667  1
  O  O64  1  0.47648800  0.36037400  0.20959000  1
  O  O65  1  0.33333333  0.84542967  0.41666667  1
  O  O66  1  0.44944733  0.14315467  0.45707667  1
  O  O67  1  0.78278067  0.97295933  0.62374333  1
  O  O68  1  0.55055267  0.85684533  0.54292333  1
  O  O69  1  0.85684533  0.30629267  0.45707667  1
  O  O70  1  0.19017867  0.21721933  0.62374333  1
  O  O71  1  0.82123700  0.82123700  0.75000000  1
  O  O72  1  0.97295933  0.19017867  0.37625667  1
  O  O73  1  0.17876300  0.17876300  0.25000000  1
  O  O74  1  0.80982133  0.78278067  0.37625667  1
  O  O75  1  0.69370733  0.55055267  0.45707667  1
  O  O76  1  0.21721933  0.02704067  0.37625667  1
  O  O77  1  0.30629267  0.44944733  0.54292333  1
  O  O78  1  0.17876300  0.00000000  0.75000000  1
  O  O79  1  0.02704067  0.80982133  0.62374333  1
  O  O80  1  0.00000000  0.82123700  0.25000000  1
  O  O81  1  0.82123700  0.00000000  0.25000000  1
  O  O82  1  0.14315467  0.69370733  0.54292333  1
  O  O83  1  0.00000000  0.17876300  0.75000000  1
  O  O84  1  0.11611400  0.47648800  0.79041000  1
  O  O85  1  0.44944733  0.30629267  0.95707667  1
  O  O86  1  0.21721933  0.19017867  0.87625667  1
  O  O87  1  0.52351200  0.63962600  0.79041000  1
  O  O88  1  0.85684533  0.55055267  0.95707667  1
  O  O89  1  0.48790367  0.15457033  0.08333333  1
  O  O90  1  0.63962600  0.52351200  0.70959000  1
  O  O91  1  0.84542967  0.51209633  0.58333333  1
  O  O92  1  0.47648800  0.11611400  0.70959000  1
  O  O93  1  0.36037400  0.88388600  0.79041000  1
  O  O94  1  0.88388600  0.36037400  0.70959000  1
  O  O95  1  0.97295933  0.78278067  0.87625667  1
  O  O96  1  0.84542967  0.33333333  0.08333333  1
  O  O97  1  0.69370733  0.14315467  0.95707667  1
  O  O98  1  0.66666667  0.15457033  0.58333333  1
  O  O99  1  0.48790367  0.33333333  0.58333333  1
  O  O100  1  0.80982133  0.02704067  0.87625667  1
  O  O101  1  0.66666667  0.51209633  0.08333333  1
