# generated using pymatgen
data_CdHg4(AsI2)2
_symmetry_space_group_name_H-M   'P 1'
_cell_length_a   8.22331300
_cell_length_b   13.42812600
_cell_length_c   8.31548347
_cell_angle_alpha   90.00000000
_cell_angle_beta   117.14157816
_cell_angle_gamma   90.00000000
_symmetry_Int_Tables_number   1
_chemical_formula_structural   CdHg4(AsI2)2
_chemical_formula_sum   'Cd2 Hg8 As4 I8'
_cell_volume   817.11305979
_cell_formula_units_Z   2
loop_
 _symmetry_equiv_pos_site_id
 _symmetry_equiv_pos_as_xyz
  1  'x, y, z'
loop_
 _atom_site_type_symbol
 _atom_site_label
 _atom_site_symmetry_multiplicity
 _atom_site_fract_x
 _atom_site_fract_y
 _atom_site_fract_z
 _atom_site_occupancy
  Cd  Cd0  1  0.99936900  0.16417800  0.00203400  1
  Cd  Cd1  1  0.00063100  0.66417800  0.99796600  1
  Hg  Hg2  1  0.32617300  0.20929900  0.66781700  1
  Hg  Hg3  1  0.97260200  0.45022700  0.57411600  1
  Hg  Hg4  1  0.02739800  0.95022700  0.42588400  1
  Hg  Hg5  1  0.48669900  0.44492400  0.05399400  1
  Hg  Hg6  1  0.67382700  0.70929900  0.33218300  1
  Hg  Hg7  1  0.52527700  0.97845300  0.44772900  1
  Hg  Hg8  1  0.47472300  0.47845300  0.55227100  1
  Hg  Hg9  1  0.51330100  0.94492400  0.94600600  1
  As  As10  1  0.65133700  0.52059200  0.37330800  1
  As  As11  1  0.31020500  0.39737100  0.71773700  1
  As  As12  1  0.34866300  0.02059200  0.62669200  1
  As  As13  1  0.68979500  0.89737100  0.28226300  1
  I  I14  1  0.67604000  0.75739900  0.74394300  1
  I  I15  1  0.29159200  0.68727500  0.91159500  1
  I  I16  1  0.11404000  0.95971400  0.06457400  1
  I  I17  1  0.32396000  0.25739900  0.25605700  1
  I  I18  1  0.88596000  0.45971400  0.93542600  1
  I  I19  1  0.70840800  0.18727500  0.08840500  1
  I  I20  1  0.88041300  0.19183800  0.63012700  1
  I  I21  1  0.11958700  0.69183800  0.36987300  1
