# generated using pymatgen
data_Rb2Cd3H6S3O16
_symmetry_space_group_name_H-M   'P 1'
_cell_length_a   8.31873800
_cell_length_b   18.94057600
_cell_length_c   10.37668300
_cell_angle_alpha   90.00000000
_cell_angle_beta   90.00000000
_cell_angle_gamma   90.00000000
_symmetry_Int_Tables_number   1
_chemical_formula_structural   Rb2Cd3H6S3O16
_chemical_formula_sum   'Rb8 Cd12 H24 S12 O64'
_cell_volume   1634.96770295
_cell_formula_units_Z   4
loop_
 _symmetry_equiv_pos_site_id
 _symmetry_equiv_pos_as_xyz
  1  'x, y, z'
loop_
 _atom_site_type_symbol
 _atom_site_label
 _atom_site_symmetry_multiplicity
 _atom_site_fract_x
 _atom_site_fract_y
 _atom_site_fract_z
 _atom_site_occupancy
  Rb  Rb0  1  0.54384550  0.68742150  0.21950000  1
  Rb  Rb1  1  0.95615450  0.81257850  0.71950000  1
  Rb  Rb2  1  0.45615450  0.68742150  0.71950000  1
  Rb  Rb3  1  0.04384550  0.81257850  0.21950000  1
  Rb  Rb4  1  0.04384550  0.18742150  0.21950000  1
  Rb  Rb5  1  0.45615450  0.31257850  0.71950000  1
  Rb  Rb6  1  0.95615450  0.18742150  0.71950000  1
  Rb  Rb7  1  0.54384550  0.31257850  0.21950000  1
  Cd  Cd8  1  0.53504200  0.90728700  0.16224000  1
  Cd  Cd9  1  0.96495800  0.59271300  0.66224000  1
  Cd  Cd10  1  0.46495800  0.90728700  0.66224000  1
  Cd  Cd11  1  0.03504200  0.59271300  0.16224000  1
  Cd  Cd12  1  0.31752850  0.50000000  0.45125500  1
  Cd  Cd13  1  0.68247150  0.50000000  0.95125500  1
  Cd  Cd14  1  0.03504200  0.40728700  0.16224000  1
  Cd  Cd15  1  0.46495800  0.09271300  0.66224000  1
  Cd  Cd16  1  0.96495800  0.40728700  0.66224000  1
  Cd  Cd17  1  0.53504200  0.09271300  0.16224000  1
  Cd  Cd18  1  0.81752850  0.00000000  0.45125500  1
  Cd  Cd19  1  0.18247150  0.00000000  0.95125500  1
  H  H20  1  0.95213550  0.50000000  0.46760100  1
  H  H21  1  0.04786450  0.50000000  0.96760100  1
  H  H22  1  0.07265050  0.50000000  0.33278800  1
  H  H23  1  0.92734950  0.50000000  0.83278800  1
  H  H24  1  0.74448450  0.82373550  0.00053600  1
  H  H25  1  0.75551550  0.67626450  0.50053600  1
  H  H26  1  0.25551550  0.82373550  0.50053600  1
  H  H27  1  0.24448450  0.67626450  0.00053600  1
  H  H28  1  0.80648650  0.90265950  0.99709000  1
  H  H29  1  0.69351350  0.59734050  0.49709000  1
  H  H30  1  0.19351350  0.90265950  0.49709000  1
  H  H31  1  0.30648650  0.59734050  0.99709000  1
  H  H32  1  0.45213550  0.00000000  0.46760100  1
  H  H33  1  0.54786450  0.00000000  0.96760100  1
  H  H34  1  0.57265050  0.00000000  0.33278800  1
  H  H35  1  0.42734950  0.00000000  0.83278800  1
  H  H36  1  0.24448450  0.32373550  0.00053600  1
  H  H37  1  0.25551550  0.17626450  0.50053600  1
  H  H38  1  0.75551550  0.32373550  0.50053600  1
  H  H39  1  0.74448450  0.17626450  0.00053600  1
  H  H40  1  0.30648650  0.40265950  0.99709000  1
  H  H41  1  0.19351350  0.09734050  0.49709000  1
  H  H42  1  0.69351350  0.40265950  0.49709000  1
  H  H43  1  0.80648650  0.09734050  0.99709000  1
  S  S44  1  0.29941700  0.82138800  0.94177200  1
  S  S45  1  0.20058300  0.67861200  0.44177200  1
  S  S46  1  0.70058300  0.82138800  0.44177200  1
  S  S47  1  0.79941700  0.67861200  0.94177200  1
  S  S48  1  0.30486050  0.50000000  0.78377000  1
  S  S49  1  0.69513950  0.50000000  0.28377000  1
  S  S50  1  0.79941700  0.32138800  0.94177200  1
  S  S51  1  0.70058300  0.17861200  0.44177200  1
  S  S52  1  0.20058300  0.32138800  0.44177200  1
  S  S53  1  0.29941700  0.17861200  0.94177200  1
  S  S54  1  0.80486050  0.00000000  0.78377000  1
  S  S55  1  0.19513950  0.00000000  0.28377000  1
  O  O56  1  0.38051300  0.81897700  0.07121100  1
  O  O57  1  0.11948700  0.68102300  0.57121100  1
  O  O58  1  0.61948700  0.81897700  0.57121100  1
  O  O59  1  0.88051300  0.68102300  0.07121100  1
  O  O60  1  0.16927200  0.87646600  0.94389000  1
  O  O61  1  0.33072800  0.62353400  0.44389000  1
  O  O62  1  0.83072800  0.87646600  0.44389000  1
  O  O63  1  0.66927200  0.62353400  0.94389000  1
  O  O64  1  0.41901700  0.83640200  0.83914400  1
  O  O65  1  0.08098300  0.66359800  0.33914400  1
  O  O66  1  0.58098300  0.83640200  0.33914400  1
  O  O67  1  0.91901700  0.66359800  0.83914400  1
  O  O68  1  0.22269550  0.75182450  0.91705900  1
  O  O69  1  0.27730450  0.74817550  0.41705900  1
  O  O70  1  0.77730450  0.75182450  0.41705900  1
  O  O71  1  0.72269550  0.74817550  0.91705900  1
  O  O72  1  0.40834350  0.50000000  0.66665400  1
  O  O73  1  0.59165650  0.50000000  0.16665400  1
  O  O74  1  0.40795950  0.50000000  0.90323700  1
  O  O75  1  0.59204050  0.50000000  0.40323700  1
  O  O76  1  0.70236800  0.93527400  0.78866400  1
  O  O77  1  0.79763200  0.56472600  0.28866400  1
  O  O78  1  0.29763200  0.93527400  0.28866400  1
  O  O79  1  0.20236800  0.56472600  0.78866400  1
  O  O80  1  0.03828650  0.50000000  0.53156900  1
  O  O81  1  0.96171350  0.50000000  0.03156900  1
  O  O82  1  0.15893650  0.50000000  0.26885900  1
  O  O83  1  0.84106350  0.50000000  0.76885900  1
  O  O84  1  0.76736500  0.86609500  0.05591000  1
  O  O85  1  0.73263500  0.63390500  0.55591000  1
  O  O86  1  0.23263500  0.86609500  0.55591000  1
  O  O87  1  0.26736500  0.63390500  0.05591000  1
  O  O88  1  0.88051300  0.31897700  0.07121100  1
  O  O89  1  0.61948700  0.18102300  0.57121100  1
  O  O90  1  0.11948700  0.31897700  0.57121100  1
  O  O91  1  0.38051300  0.18102300  0.07121100  1
  O  O92  1  0.66927200  0.37646600  0.94389000  1
  O  O93  1  0.83072800  0.12353400  0.44389000  1
  O  O94  1  0.33072800  0.37646600  0.44389000  1
  O  O95  1  0.16927200  0.12353400  0.94389000  1
  O  O96  1  0.91901700  0.33640200  0.83914400  1
  O  O97  1  0.58098300  0.16359800  0.33914400  1
  O  O98  1  0.08098300  0.33640200  0.33914400  1
  O  O99  1  0.41901700  0.16359800  0.83914400  1
  O  O100  1  0.72269550  0.25182450  0.91705900  1
  O  O101  1  0.77730450  0.24817550  0.41705900  1
  O  O102  1  0.27730450  0.25182450  0.41705900  1
  O  O103  1  0.22269550  0.24817550  0.91705900  1
  O  O104  1  0.90834350  0.00000000  0.66665400  1
  O  O105  1  0.09165650  0.00000000  0.16665400  1
  O  O106  1  0.90795950  0.00000000  0.90323700  1
  O  O107  1  0.09204050  0.00000000  0.40323700  1
  O  O108  1  0.20236800  0.43527400  0.78866400  1
  O  O109  1  0.29763200  0.06472600  0.28866400  1
  O  O110  1  0.79763200  0.43527400  0.28866400  1
  O  O111  1  0.70236800  0.06472600  0.78866400  1
  O  O112  1  0.53828650  0.00000000  0.53156900  1
  O  O113  1  0.46171350  0.00000000  0.03156900  1
  O  O114  1  0.65893650  0.00000000  0.26885900  1
  O  O115  1  0.34106350  0.00000000  0.76885900  1
  O  O116  1  0.26736500  0.36609500  0.05591000  1
  O  O117  1  0.23263500  0.13390500  0.55591000  1
  O  O118  1  0.73263500  0.36609500  0.55591000  1
  O  O119  1  0.76736500  0.13390500  0.05591000  1
