# generated using pymatgen
data_Sb3C2N(OF8)2
_symmetry_space_group_name_H-M   'P 1'
_cell_length_a   9.87351000
_cell_length_b   7.56718800
_cell_length_c   21.55839980
_cell_angle_alpha   90.00000000
_cell_angle_beta   94.58202284
_cell_angle_gamma   90.00000000
_symmetry_Int_Tables_number   1
_chemical_formula_structural   Sb3C2N(OF8)2
_chemical_formula_sum   'Sb12 C8 N4 O8 F64'
_cell_volume   1605.58160825
_cell_formula_units_Z   4
loop_
 _symmetry_equiv_pos_site_id
 _symmetry_equiv_pos_as_xyz
  1  'x, y, z'
loop_
 _atom_site_type_symbol
 _atom_site_label
 _atom_site_symmetry_multiplicity
 _atom_site_fract_x
 _atom_site_fract_y
 _atom_site_fract_z
 _atom_site_occupancy
  Sb  Sb0  1  0.32869900  0.25005700  0.48439800  1
  Sb  Sb1  1  0.23327800  0.22669400  0.24803700  1
  Sb  Sb2  1  0.67130100  0.75005700  0.01560200  1
  Sb  Sb3  1  0.67130100  0.74994300  0.51560200  1
  Sb  Sb4  1  0.79672800  0.39175900  0.39824800  1
  Sb  Sb5  1  0.23327800  0.27330600  0.74803700  1
  Sb  Sb6  1  0.76672200  0.72669400  0.25196300  1
  Sb  Sb7  1  0.79672800  0.10824100  0.89824800  1
  Sb  Sb8  1  0.76672200  0.77330600  0.75196300  1
  Sb  Sb9  1  0.32869900  0.24994300  0.98439800  1
  Sb  Sb10  1  0.20327200  0.60824100  0.60175200  1
  Sb  Sb11  1  0.20327200  0.89175900  0.10175200  1
  C  C12  1  0.69066600  0.25764100  0.63942900  1
  C  C13  1  0.11216700  0.84759000  0.40002000  1
  C  C14  1  0.88783300  0.34759000  0.09998000  1
  C  C15  1  0.11216700  0.65241000  0.90002000  1
  C  C16  1  0.69066600  0.24235900  0.13942900  1
  C  C17  1  0.30933400  0.74235900  0.36057100  1
  C  C18  1  0.88783300  0.15241000  0.59998000  1
  C  C19  1  0.30933400  0.75764100  0.86057100  1
  N  N20  1  0.19926400  0.73898200  0.38523900  1
  N  N21  1  0.80073600  0.26101800  0.61476100  1
  N  N22  1  0.80073600  0.23898200  0.11476100  1
  N  N23  1  0.19926400  0.76101800  0.88523900  1
  O  O24  1  0.97330600  0.43490600  0.08381700  1
  O  O25  1  0.02669400  0.56509400  0.91618300  1
  O  O26  1  0.97330600  0.06509400  0.58381700  1
  O  O27  1  0.02669400  0.93490600  0.41618300  1
  O  O28  1  0.41046500  0.77023200  0.83804100  1
  O  O29  1  0.41046500  0.72976800  0.33804100  1
  O  O30  1  0.58953500  0.27023200  0.66195900  1
  O  O31  1  0.58953500  0.22976800  0.16195900  1
  F  F32  1  0.90289000  0.24923100  0.84890000  1
  F  F33  1  0.20698300  0.39527700  0.31104100  1
  F  F34  1  0.18327000  0.02491000  0.29481100  1
  F  F35  1  0.26796500  0.03429600  0.17840900  1
  F  F36  1  0.67068000  0.91949200  0.58099100  1
  F  F37  1  0.85306000  0.67974100  0.53822600  1
  F  F38  1  0.06806100  0.43265200  0.58830500  1
  F  F39  1  0.28494400  0.39304100  0.18881700  1
  F  F40  1  0.93193900  0.93265200  0.91169500  1
  F  F41  1  0.05094700  0.23456800  0.21214500  1
  F  F42  1  0.51062200  0.21037700  0.51673600  1
  F  F43  1  0.94905300  0.73456800  0.28785500  1
  F  F44  1  0.32932000  0.08050800  0.41900900  1
  F  F45  1  0.81673000  0.52491000  0.20518900  1
  F  F46  1  0.09711000  0.74923100  0.65110000  1
  F  F47  1  0.32411000  0.06314700  0.05795800  1
  F  F48  1  0.61083100  0.55857700  0.56333800  1
  F  F49  1  0.61083100  0.94142300  0.06333800  1
  F  F50  1  0.32411000  0.43685300  0.55795800  1
  F  F51  1  0.73400500  0.58703100  0.95778100  1
  F  F52  1  0.84153300  0.21911400  0.97572400  1
  F  F53  1  0.71505600  0.89304100  0.31118300  1
  F  F54  1  0.48937800  0.78962300  0.48326400  1
  F  F55  1  0.20698300  0.10472300  0.81104100  1
  F  F56  1  0.73203500  0.53429600  0.32159100  1
  F  F57  1  0.26599500  0.08703100  0.54221900  1
  F  F58  1  0.06806100  0.06734800  0.08830500  1
  F  F59  1  0.63617200  0.26215400  0.38042200  1
  F  F60  1  0.58259600  0.81987600  0.72590300  1
  F  F61  1  0.18327000  0.47509000  0.79481100  1
  F  F62  1  0.15846700  0.78088600  0.02427600  1
  F  F63  1  0.28494400  0.10695900  0.68881700  1
  F  F64  1  0.67068000  0.58050800  0.08099100  1
  F  F65  1  0.63617200  0.23784600  0.88042200  1
  F  F66  1  0.26796500  0.46570400  0.67840900  1
  F  F67  1  0.38916900  0.05857700  0.93666200  1
  F  F68  1  0.79301700  0.60472300  0.68895900  1
  F  F69  1  0.41740400  0.31987600  0.77409700  1
  F  F70  1  0.05094700  0.26543200  0.71214500  1
  F  F71  1  0.73400500  0.91296900  0.45778100  1
  F  F72  1  0.81673000  0.97509000  0.70518900  1
  F  F73  1  0.14694000  0.32025900  0.46177400  1
  F  F74  1  0.73203500  0.96570400  0.82159100  1
  F  F75  1  0.36382800  0.73784600  0.61957800  1
  F  F76  1  0.26599500  0.41296900  0.04221900  1
  F  F77  1  0.14694000  0.17974100  0.96177400  1
  F  F78  1  0.71505600  0.60695900  0.81118300  1
  F  F79  1  0.90289000  0.25076900  0.34890000  1
  F  F80  1  0.94905300  0.76543200  0.78785500  1
  F  F81  1  0.41740400  0.18012400  0.27409700  1
  F  F82  1  0.32932000  0.41949200  0.91900900  1
  F  F83  1  0.85306000  0.82025900  0.03822600  1
  F  F84  1  0.58259600  0.68012400  0.22590300  1
  F  F85  1  0.79301700  0.89527700  0.18895900  1
  F  F86  1  0.48937800  0.71037700  0.98326400  1
  F  F87  1  0.67589000  0.56314700  0.44204200  1
  F  F88  1  0.51062200  0.28962300  0.01673600  1
  F  F89  1  0.15846700  0.71911400  0.52427600  1
  F  F90  1  0.67589000  0.93685300  0.94204200  1
  F  F91  1  0.93193900  0.56734800  0.41169500  1
  F  F92  1  0.84153300  0.28088600  0.47572400  1
  F  F93  1  0.38916900  0.44142300  0.43666200  1
  F  F94  1  0.09711000  0.75076900  0.15110000  1
  F  F95  1  0.36382800  0.76215400  0.11957800  1
