# generated using pymatgen
data_Zn3(PO4)2
_symmetry_space_group_name_H-M   'P 1'
_cell_length_a   8.32587200
_cell_length_b   5.67006600
_cell_length_c   15.52403190
_cell_angle_alpha   90.00000000
_cell_angle_beta   104.61524956
_cell_angle_gamma   90.00000000
_symmetry_Int_Tables_number   1
_chemical_formula_structural   Zn3(PO4)2
_chemical_formula_sum   'Zn12 P8 O32'
_cell_volume   709.14835835
_cell_formula_units_Z   4
loop_
 _symmetry_equiv_pos_site_id
 _symmetry_equiv_pos_as_xyz
  1  'x, y, z'
loop_
 _atom_site_type_symbol
 _atom_site_label
 _atom_site_symmetry_multiplicity
 _atom_site_fract_x
 _atom_site_fract_y
 _atom_site_fract_z
 _atom_site_occupancy
  Zn  Zn0  1  0.77687650  0.94788950  0.56702400  1
  Zn  Zn1  1  0.50000000  0.74793850  0.75000000  1
  Zn  Zn2  1  0.77687650  0.05211050  0.06702400  1
  Zn  Zn3  1  0.72312350  0.44788950  0.93297600  1
  Zn  Zn4  1  0.00000000  0.75206150  0.25000000  1
  Zn  Zn5  1  0.72312350  0.55211050  0.43297600  1
  Zn  Zn6  1  0.27687650  0.44788950  0.56702400  1
  Zn  Zn7  1  0.00000000  0.24793850  0.75000000  1
  Zn  Zn8  1  0.27687650  0.55211050  0.06702400  1
  Zn  Zn9  1  0.22312350  0.94788950  0.93297600  1
  Zn  Zn10  1  0.50000000  0.25206150  0.25000000  1
  Zn  Zn11  1  0.22312350  0.05211050  0.43297600  1
  P  P12  1  0.83579400  0.93084800  0.87207200  1
  P  P13  1  0.66420600  0.56915200  0.12792800  1
  P  P14  1  0.66420600  0.43084800  0.62792800  1
  P  P15  1  0.83579400  0.06915200  0.37207200  1
  P  P16  1  0.33579400  0.43084800  0.87207200  1
  P  P17  1  0.16420600  0.06915200  0.12792800  1
  P  P18  1  0.16420600  0.93084800  0.62792800  1
  P  P19  1  0.33579400  0.56915200  0.37207200  1
  O  O20  1  0.00156350  0.97194550  0.35329400  1
  O  O21  1  0.70347750  0.07283550  0.28360400  1
  O  O22  1  0.37449550  0.80734250  0.41982400  1
  O  O23  1  0.50156350  0.52805450  0.85329400  1
  O  O24  1  0.49843650  0.52805450  0.64670600  1
  O  O25  1  0.20347750  0.42716450  0.78360400  1
  O  O26  1  0.99843650  0.97194550  0.14670600  1
  O  O27  1  0.12550450  0.69265750  0.58017600  1
  O  O28  1  0.29652250  0.07283550  0.21639600  1
  O  O29  1  0.28488550  0.60851350  0.93870400  1
  O  O30  1  0.62550450  0.80734250  0.08017600  1
  O  O31  1  0.21511450  0.89148650  0.06129600  1
  O  O32  1  0.78488550  0.89148650  0.43870400  1
  O  O33  1  0.87449550  0.69265750  0.91982400  1
  O  O34  1  0.71511450  0.60851350  0.56129600  1
  O  O35  1  0.79652250  0.42716450  0.71639600  1
  O  O36  1  0.50156350  0.47194550  0.35329400  1
  O  O37  1  0.20347750  0.57283550  0.28360400  1
  O  O38  1  0.87449550  0.30734250  0.41982400  1
  O  O39  1  0.00156350  0.02805450  0.85329400  1
  O  O40  1  0.99843650  0.02805450  0.64670600  1
  O  O41  1  0.70347750  0.92716450  0.78360400  1
  O  O42  1  0.49843650  0.47194550  0.14670600  1
  O  O43  1  0.62550450  0.19265750  0.58017600  1
  O  O44  1  0.79652250  0.57283550  0.21639600  1
  O  O45  1  0.78488550  0.10851350  0.93870400  1
  O  O46  1  0.12550450  0.30734250  0.08017600  1
  O  O47  1  0.71511450  0.39148650  0.06129600  1
  O  O48  1  0.28488550  0.39148650  0.43870400  1
  O  O49  1  0.37449550  0.19265750  0.91982400  1
  O  O50  1  0.21511450  0.10851350  0.56129600  1
  O  O51  1  0.29652250  0.92716450  0.71639600  1
