# generated using pymatgen
data_Cs3LaCl6
_symmetry_space_group_name_H-M   'P 1'
_cell_length_a   27.72108200
_cell_length_b   8.40178200
_cell_length_c   13.75087156
_cell_angle_alpha   90.00000000
_cell_angle_beta   99.91428406
_cell_angle_gamma   90.00000000
_symmetry_Int_Tables_number   1
_chemical_formula_structural   Cs3LaCl6
_chemical_formula_sum   'Cs24 La8 Cl48'
_cell_volume   3154.83995401
_cell_formula_units_Z   8
loop_
 _symmetry_equiv_pos_site_id
 _symmetry_equiv_pos_as_xyz
  1  'x, y, z'
loop_
 _atom_site_type_symbol
 _atom_site_label
 _atom_site_symmetry_multiplicity
 _atom_site_fract_x
 _atom_site_fract_y
 _atom_site_fract_z
 _atom_site_occupancy
  Cs  Cs0  1  0.66308800  0.68746900  0.80311900  1
  Cs  Cs1  1  0.65226800  0.81448200  0.14483000  1
  Cs  Cs2  1  0.84773200  0.68551800  0.85517000  1
  Cs  Cs3  1  0.83691200  0.18746900  0.69688100  1
  Cs  Cs4  1  0.95184400  0.73893600  0.57053100  1
  Cs  Cs5  1  0.83691200  0.81253100  0.19688100  1
  Cs  Cs6  1  0.84773200  0.31448200  0.35517000  1
  Cs  Cs7  1  0.66308800  0.31253100  0.30311900  1
  Cs  Cs8  1  0.54815600  0.76106400  0.42946900  1
  Cs  Cs9  1  0.54815600  0.23893600  0.92946900  1
  Cs  Cs10  1  0.95184400  0.26106400  0.07053100  1
  Cs  Cs11  1  0.65226800  0.18551800  0.64483000  1
  Cs  Cs12  1  0.16308800  0.18746900  0.80311900  1
  Cs  Cs13  1  0.15226800  0.31448200  0.14483000  1
  Cs  Cs14  1  0.34773200  0.18551800  0.85517000  1
  Cs  Cs15  1  0.33691200  0.68746900  0.69688100  1
  Cs  Cs16  1  0.45184400  0.23893600  0.57053100  1
  Cs  Cs17  1  0.33691200  0.31253100  0.19688100  1
  Cs  Cs18  1  0.34773200  0.81448200  0.35517000  1
  Cs  Cs19  1  0.16308800  0.81253100  0.30311900  1
  Cs  Cs20  1  0.04815600  0.26106400  0.42946900  1
  Cs  Cs21  1  0.04815600  0.73893600  0.92946900  1
  Cs  Cs22  1  0.45184400  0.76106400  0.07053100  1
  Cs  Cs23  1  0.15226800  0.68551800  0.64483000  1
  La  La24  1  0.00000000  0.79222700  0.25000000  1
  La  La25  1  0.75000000  0.75000000  0.50000000  1
  La  La26  1  0.00000000  0.20777300  0.75000000  1
  La  La27  1  0.75000000  0.25000000  0.00000000  1
  La  La28  1  0.50000000  0.29222700  0.25000000  1
  La  La29  1  0.25000000  0.25000000  0.50000000  1
  La  La30  1  0.50000000  0.70777300  0.75000000  1
  La  La31  1  0.25000000  0.75000000  0.00000000  1
  Cl  Cl32  1  0.66965250  0.05711550  0.92067100  1
  Cl  Cl33  1  0.66965250  0.94288450  0.42067100  1
  Cl  Cl34  1  0.93981300  0.03932100  0.29739100  1
  Cl  Cl35  1  0.75161000  0.38696400  0.81370100  1
  Cl  Cl36  1  0.83034750  0.55711550  0.57932900  1
  Cl  Cl37  1  0.93981300  0.96067900  0.79739100  1
  Cl  Cl38  1  0.81961850  0.02600950  0.96978700  1
  Cl  Cl39  1  0.68038150  0.47399050  0.03021300  1
  Cl  Cl40  1  0.55777350  0.70938050  0.93527800  1
  Cl  Cl41  1  0.75161000  0.61303600  0.31370100  1
  Cl  Cl42  1  0.94222650  0.20938050  0.56472200  1
  Cl  Cl43  1  0.94399450  0.44059450  0.82507800  1
  Cl  Cl44  1  0.55600550  0.05940550  0.17492200  1
  Cl  Cl45  1  0.56018700  0.46067900  0.70260900  1
  Cl  Cl46  1  0.68038150  0.52600950  0.53021300  1
  Cl  Cl47  1  0.56018700  0.53932100  0.20260900  1
  Cl  Cl48  1  0.94399450  0.55940550  0.32507800  1
  Cl  Cl49  1  0.94222650  0.79061950  0.06472200  1
  Cl  Cl50  1  0.83034750  0.44288450  0.07932900  1
  Cl  Cl51  1  0.55777350  0.29061950  0.43527800  1
  Cl  Cl52  1  0.55600550  0.94059450  0.67492200  1
  Cl  Cl53  1  0.74839000  0.11303600  0.18629900  1
  Cl  Cl54  1  0.74839000  0.88696400  0.68629900  1
  Cl  Cl55  1  0.81961850  0.97399050  0.46978700  1
  Cl  Cl56  1  0.16965250  0.55711550  0.92067100  1
  Cl  Cl57  1  0.16965250  0.44288450  0.42067100  1
  Cl  Cl58  1  0.43981300  0.53932100  0.29739100  1
  Cl  Cl59  1  0.25161000  0.88696400  0.81370100  1
  Cl  Cl60  1  0.33034750  0.05711550  0.57932900  1
  Cl  Cl61  1  0.43981300  0.46067900  0.79739100  1
  Cl  Cl62  1  0.31961850  0.52600950  0.96978700  1
  Cl  Cl63  1  0.18038150  0.97399050  0.03021300  1
  Cl  Cl64  1  0.05777350  0.20938050  0.93527800  1
  Cl  Cl65  1  0.25161000  0.11303600  0.31370100  1
  Cl  Cl66  1  0.44222650  0.70938050  0.56472200  1
  Cl  Cl67  1  0.44399450  0.94059450  0.82507800  1
  Cl  Cl68  1  0.05600550  0.55940550  0.17492200  1
  Cl  Cl69  1  0.06018700  0.96067900  0.70260900  1
  Cl  Cl70  1  0.18038150  0.02600950  0.53021300  1
  Cl  Cl71  1  0.06018700  0.03932100  0.20260900  1
  Cl  Cl72  1  0.44399450  0.05940550  0.32507800  1
  Cl  Cl73  1  0.44222650  0.29061950  0.06472200  1
  Cl  Cl74  1  0.33034750  0.94288450  0.07932900  1
  Cl  Cl75  1  0.05777350  0.79061950  0.43527800  1
  Cl  Cl76  1  0.05600550  0.44059450  0.67492200  1
  Cl  Cl77  1  0.24839000  0.61303600  0.18629900  1
  Cl  Cl78  1  0.24839000  0.38696400  0.68629900  1
  Cl  Cl79  1  0.31961850  0.47399050  0.46978700  1
