# generated using pymatgen
data_KCd3H8Cl7O4
_symmetry_space_group_name_H-M   'P 1'
_cell_length_a   6.79057100
_cell_length_b   16.25489100
_cell_length_c   7.25466897
_cell_angle_alpha   90.00000000
_cell_angle_beta   92.05262979
_cell_angle_gamma   90.00000000
_symmetry_Int_Tables_number   1
_chemical_formula_structural   KCd3H8Cl7O4
_chemical_formula_sum   'K2 Cd6 H16 Cl14 O8'
_cell_volume   800.25648321
_cell_formula_units_Z   2
loop_
 _symmetry_equiv_pos_site_id
 _symmetry_equiv_pos_as_xyz
  1  'x, y, z'
loop_
 _atom_site_type_symbol
 _atom_site_label
 _atom_site_symmetry_multiplicity
 _atom_site_fract_x
 _atom_site_fract_y
 _atom_site_fract_z
 _atom_site_occupancy
  K  K0  1  0.97169300  0.75000000  0.32298500  1
  K  K1  1  0.02830700  0.25000000  0.67701500  1
  Cd  Cd2  1  0.50773500  0.90363300  0.16213000  1
  Cd  Cd3  1  0.49226500  0.09636700  0.83787000  1
  Cd  Cd4  1  0.49226500  0.40363300  0.83787000  1
  Cd  Cd5  1  0.00000000  0.00000000  0.00000000  1
  Cd  Cd6  1  0.50773500  0.59636700  0.16213000  1
  Cd  Cd7  1  0.00000000  0.50000000  0.00000000  1
  H  H8  1  0.40598900  0.25000000  0.23268400  1
  H  H9  1  0.27170000  0.42401900  0.48907600  1
  H  H10  1  0.61850700  0.83741100  0.52621100  1
  H  H11  1  0.61850700  0.66258900  0.52621100  1
  H  H12  1  0.09005200  0.79743200  0.75793300  1
  H  H13  1  0.09005200  0.70256800  0.75793300  1
  H  H14  1  0.72830000  0.92401900  0.51092400  1
  H  H15  1  0.90994800  0.20256800  0.24206700  1
  H  H16  1  0.38149300  0.33741100  0.47378900  1
  H  H17  1  0.90994800  0.29743200  0.24206700  1
  H  H18  1  0.38149300  0.16258900  0.47378900  1
  H  H19  1  0.61271800  0.25000000  0.33783400  1
  H  H20  1  0.38728200  0.75000000  0.66216600  1
  H  H21  1  0.27170000  0.07598100  0.48907600  1
  H  H22  1  0.72830000  0.57598100  0.51092400  1
  H  H23  1  0.59401100  0.75000000  0.76731600  1
  Cl  Cl24  1  0.17662200  0.14140600  0.02740300  1
  Cl  Cl25  1  0.38459300  0.75000000  0.14670100  1
  Cl  Cl26  1  0.82337800  0.85859400  0.97259700  1
  Cl  Cl27  1  0.61540700  0.25000000  0.85329900  1
  Cl  Cl28  1  0.81138200  0.04701200  0.68241800  1
  Cl  Cl29  1  0.18861800  0.95298800  0.31758200  1
  Cl  Cl30  1  0.67351700  0.44565600  0.16512600  1
  Cl  Cl31  1  0.67351700  0.05434400  0.16512600  1
  Cl  Cl32  1  0.32648300  0.55434400  0.83487400  1
  Cl  Cl33  1  0.32648300  0.94565600  0.83487400  1
  Cl  Cl34  1  0.18861800  0.54701200  0.31758200  1
  Cl  Cl35  1  0.81138200  0.45298800  0.68241800  1
  Cl  Cl36  1  0.82337800  0.64140600  0.97259700  1
  Cl  Cl37  1  0.17662200  0.35859400  0.02740300  1
  O  O38  1  0.87077500  0.25000000  0.31565800  1
  O  O39  1  0.46769200  0.25000000  0.35680700  1
  O  O40  1  0.31044600  0.37436400  0.55934800  1
  O  O41  1  0.68955400  0.62563600  0.44065200  1
  O  O42  1  0.31044600  0.12563600  0.55934800  1
  O  O43  1  0.12922500  0.75000000  0.68434200  1
  O  O44  1  0.68955400  0.87436400  0.44065200  1
  O  O45  1  0.53230800  0.75000000  0.64319300  1
