# generated using pymatgen
data_CsPt2Se3
_symmetry_space_group_name_H-M   'P 1'
_cell_length_a   7.56762410
_cell_length_b   7.56762410
_cell_length_c   21.85539059
_cell_angle_alpha   90.00000000
_cell_angle_beta   90.00000000
_cell_angle_gamma   120.00000000
_symmetry_Int_Tables_number   1
_chemical_formula_structural   CsPt2Se3
_chemical_formula_sum   'Cs6 Pt12 Se18'
_cell_volume   1083.94764747
_cell_formula_units_Z   6
loop_
 _symmetry_equiv_pos_site_id
 _symmetry_equiv_pos_as_xyz
  1  'x, y, z'
loop_
 _atom_site_type_symbol
 _atom_site_label
 _atom_site_symmetry_multiplicity
 _atom_site_fract_x
 _atom_site_fract_y
 _atom_site_fract_z
 _atom_site_occupancy
  Cs  Cs0  1  0.66666667  0.33333333  0.13374533  1
  Cs  Cs1  1  0.00000000  0.00000000  0.19958800  1
  Cs  Cs2  1  0.33333333  0.66666667  0.46707867  1
  Cs  Cs3  1  0.66666667  0.33333333  0.53292133  1
  Cs  Cs4  1  0.00000000  0.00000000  0.80041200  1
  Cs  Cs5  1  0.33333333  0.66666667  0.86625467  1
  Pt  Pt6  1  0.50000000  0.00000000  0.00000000  1
  Pt  Pt7  1  0.50000000  0.50000000  0.00000000  1
  Pt  Pt8  1  0.00000000  0.00000000  0.00000000  1
  Pt  Pt9  1  0.00000000  0.50000000  0.00000000  1
  Pt  Pt10  1  0.16666667  0.33333333  0.33333333  1
  Pt  Pt11  1  0.16666667  0.83333333  0.33333333  1
  Pt  Pt12  1  0.66666667  0.33333333  0.33333333  1
  Pt  Pt13  1  0.66666667  0.83333333  0.33333333  1
  Pt  Pt14  1  0.83333333  0.66666667  0.66666667  1
  Pt  Pt15  1  0.83333333  0.16666667  0.66666667  1
  Pt  Pt16  1  0.33333333  0.66666667  0.66666667  1
  Pt  Pt17  1  0.33333333  0.16666667  0.66666667  1
  Se  Se18  1  0.00893533  0.50446767  0.27735467  1
  Se  Se19  1  0.65773133  0.82886567  0.05597867  1
  Se  Se20  1  0.49553233  0.50446767  0.27735467  1
  Se  Se21  1  0.49553233  0.99106467  0.27735467  1
  Se  Se22  1  0.17113433  0.34226867  0.05597867  1
  Se  Se23  1  0.17113433  0.82886567  0.05597867  1
  Se  Se24  1  0.67560200  0.83780100  0.61068800  1
  Se  Se25  1  0.32439800  0.16219900  0.38931200  1
  Se  Se26  1  0.16219900  0.83780100  0.61068800  1
  Se  Se27  1  0.16219900  0.32439800  0.61068800  1
  Se  Se28  1  0.83780100  0.67560200  0.38931200  1
  Se  Se29  1  0.83780100  0.16219900  0.38931200  1
  Se  Se30  1  0.34226867  0.17113433  0.94402133  1
  Se  Se31  1  0.99106467  0.49553233  0.72264533  1
  Se  Se32  1  0.82886567  0.17113433  0.94402133  1
  Se  Se33  1  0.82886567  0.65773133  0.94402133  1
  Se  Se34  1  0.50446767  0.00893533  0.72264533  1
  Se  Se35  1  0.50446767  0.49553233  0.72264533  1
