# generated using pymatgen
data_MnCdF5
_symmetry_space_group_name_H-M   'P 1'
_cell_length_a   9.11376800
_cell_length_b   6.41712200
_cell_length_c   8.01596249
_cell_angle_alpha   90.00000000
_cell_angle_beta   116.52658385
_cell_angle_gamma   90.00000000
_symmetry_Int_Tables_number   1
_chemical_formula_structural   MnCdF5
_chemical_formula_sum   'Mn4 Cd4 F20'
_cell_volume   419.45425208
_cell_formula_units_Z   4
loop_
 _symmetry_equiv_pos_site_id
 _symmetry_equiv_pos_as_xyz
  1  'x, y, z'
loop_
 _atom_site_type_symbol
 _atom_site_label
 _atom_site_symmetry_multiplicity
 _atom_site_fract_x
 _atom_site_fract_y
 _atom_site_fract_z
 _atom_site_occupancy
  Mn  Mn0  1  0.00000000  0.00000000  0.50000000  1
  Mn  Mn1  1  0.00000000  0.00000000  0.00000000  1
  Mn  Mn2  1  0.50000000  0.50000000  0.50000000  1
  Mn  Mn3  1  0.50000000  0.50000000  0.00000000  1
  Cd  Cd4  1  0.50000000  0.04315600  0.75000000  1
  Cd  Cd5  1  0.00000000  0.45684400  0.25000000  1
  Cd  Cd6  1  0.00000000  0.54315600  0.75000000  1
  Cd  Cd7  1  0.50000000  0.95684400  0.25000000  1
  F  F8  1  0.00000000  0.89882400  0.75000000  1
  F  F9  1  0.50000000  0.60117600  0.25000000  1
  F  F10  1  0.22814350  0.02028350  0.62041500  1
  F  F11  1  0.77185650  0.02028350  0.87958500  1
  F  F12  1  0.51392050  0.79735350  0.96658000  1
  F  F13  1  0.48607950  0.79735350  0.53342000  1
  F  F14  1  0.98607950  0.70264650  0.03342000  1
  F  F15  1  0.01392050  0.70264650  0.46658000  1
  F  F16  1  0.72814350  0.47971650  0.12041500  1
  F  F17  1  0.27185650  0.47971650  0.37958500  1
  F  F18  1  0.50000000  0.39882400  0.75000000  1
  F  F19  1  0.00000000  0.10117600  0.25000000  1
  F  F20  1  0.72814350  0.52028350  0.62041500  1
  F  F21  1  0.27185650  0.52028350  0.87958500  1
  F  F22  1  0.01392050  0.29735350  0.96658000  1
  F  F23  1  0.98607950  0.29735350  0.53342000  1
  F  F24  1  0.48607950  0.20264650  0.03342000  1
  F  F25  1  0.51392050  0.20264650  0.46658000  1
  F  F26  1  0.22814350  0.97971650  0.12041500  1
  F  F27  1  0.77185650  0.97971650  0.37958500  1
