# generated using pymatgen
data_Sn3Te3Ir2
_symmetry_space_group_name_H-M   'P 1'
_cell_length_a   13.39258729
_cell_length_b   13.39258729
_cell_length_c   16.43142930
_cell_angle_alpha   90.00000000
_cell_angle_beta   90.00000000
_cell_angle_gamma   120.00000000
_symmetry_Int_Tables_number   1
_chemical_formula_structural   Sn3Te3Ir2
_chemical_formula_sum   'Sn36 Te36 Ir24'
_cell_volume   2552.31895617
_cell_formula_units_Z   12
loop_
 _symmetry_equiv_pos_site_id
 _symmetry_equiv_pos_as_xyz
  1  'x, y, z'
loop_
 _atom_site_type_symbol
 _atom_site_label
 _atom_site_symmetry_multiplicity
 _atom_site_fract_x
 _atom_site_fract_y
 _atom_site_fract_z
 _atom_site_occupancy
  Sn  Sn0  1  0.54886267  0.93744033  0.11173533  1
  Sn  Sn1  1  0.11780400  0.39589300  0.22159800  1
  Sn  Sn2  1  0.27808900  0.88219600  0.22159800  1
  Sn  Sn3  1  0.60410700  0.72191100  0.22159800  1
  Sn  Sn4  1  0.38857767  0.45113733  0.11173533  1
  Sn  Sn5  1  0.06255967  0.61142233  0.11173533  1
  Sn  Sn6  1  0.99872633  0.83604367  0.16127967  1
  Sn  Sn7  1  0.83731733  0.00127367  0.16127967  1
  Sn  Sn8  1  0.50271033  0.17065067  0.17205367  1
  Sn  Sn9  1  0.82934933  0.33205967  0.17205367  1
  Sn  Sn10  1  0.66794033  0.49728967  0.17205367  1
  Sn  Sn11  1  0.16395633  0.16268267  0.16127967  1
  Sn  Sn12  1  0.21552933  0.27077367  0.44506867  1
  Sn  Sn13  1  0.78447067  0.72922633  0.55493133  1
  Sn  Sn14  1  0.94475567  0.21552933  0.55493133  1
  Sn  Sn15  1  0.27077367  0.05524433  0.55493133  1
  Sn  Sn16  1  0.05524433  0.78447067  0.44506867  1
  Sn  Sn17  1  0.72922633  0.94475567  0.44506867  1
  Sn  Sn18  1  0.66539300  0.16937700  0.49461300  1
  Sn  Sn19  1  0.50398400  0.33460700  0.49461300  1
  Sn  Sn20  1  0.16937700  0.50398400  0.50538700  1
  Sn  Sn21  1  0.49601600  0.66539300  0.50538700  1
  Sn  Sn22  1  0.33460700  0.83062300  0.50538700  1
  Sn  Sn23  1  0.83062300  0.49601600  0.49461300  1
  Sn  Sn24  1  0.88219600  0.60410700  0.77840200  1
  Sn  Sn25  1  0.45113733  0.06255967  0.88826467  1
  Sn  Sn26  1  0.61142233  0.54886267  0.88826467  1
  Sn  Sn27  1  0.93744033  0.38857767  0.88826467  1
  Sn  Sn28  1  0.72191100  0.11780400  0.77840200  1
  Sn  Sn29  1  0.39589300  0.27808900  0.77840200  1
  Sn  Sn30  1  0.33205967  0.50271033  0.82794633  1
  Sn  Sn31  1  0.17065067  0.66794033  0.82794633  1
  Sn  Sn32  1  0.83604367  0.83731733  0.83872033  1
  Sn  Sn33  1  0.16268267  0.99872633  0.83872033  1
  Sn  Sn34  1  0.00127367  0.16395633  0.83872033  1
  Sn  Sn35  1  0.49728967  0.82934933  0.82794633  1
  Te  Te36  1  0.60169500  0.54882100  0.39819900  1
  Te  Te37  1  0.45117900  0.05287400  0.39819900  1
  Te  Te38  1  0.15373300  0.50276900  0.00085300  1
  Te  Te39  1  0.49723100  0.65096400  0.00085300  1
  Te  Te40  1  0.31763067  0.48706633  0.33248033  1
  Te  Te41  1  0.34903600  0.84626700  0.00085300  1
  Te  Te42  1  0.51293367  0.83056433  0.33248033  1
  Te  Te43  1  0.16943567  0.68236933  0.33248033  1
  Te  Te44  1  0.71954067  0.93502833  0.93513433  1
  Te  Te45  1  0.06497167  0.78451233  0.93513433  1
  Te  Te46  1  0.21548767  0.28045933  0.93513433  1
  Te  Te47  1  0.94712600  0.39830500  0.39819900  1
  Te  Te48  1  0.26836167  0.88215433  0.73153233  1
  Te  Te49  1  0.11784567  0.38620733  0.73153233  1
  Te  Te50  1  0.82039967  0.83610233  0.33418633  1
  Te  Te51  1  0.16389767  0.98429733  0.33418633  1
  Te  Te52  1  0.98429733  0.82039967  0.66581367  1
  Te  Te53  1  0.01570267  0.17960033  0.33418633  1
  Te  Te54  1  0.17960033  0.16389767  0.66581367  1
  Te  Te55  1  0.83610233  0.01570267  0.66581367  1
  Te  Te56  1  0.38620733  0.26836167  0.26846767  1
  Te  Te57  1  0.73163833  0.11784567  0.26846767  1
  Te  Te58  1  0.88215433  0.61379267  0.26846767  1
  Te  Te59  1  0.61379267  0.73163833  0.73153233  1
  Te  Te60  1  0.93502833  0.21548767  0.06486567  1
  Te  Te61  1  0.78451233  0.71954067  0.06486567  1
  Te  Te62  1  0.48706633  0.16943567  0.66751967  1
  Te  Te63  1  0.83056433  0.31763067  0.66751967  1
  Te  Te64  1  0.65096400  0.15373300  0.99914700  1
  Te  Te65  1  0.68236933  0.51293367  0.66751967  1
  Te  Te66  1  0.84626700  0.49723100  0.99914700  1
  Te  Te67  1  0.50276900  0.34903600  0.99914700  1
  Te  Te68  1  0.05287400  0.60169500  0.60180100  1
  Te  Te69  1  0.39830500  0.45117900  0.60180100  1
  Te  Te70  1  0.54882100  0.94712600  0.60180100  1
  Te  Te71  1  0.28045933  0.06497167  0.06486567  1
  Ir  Ir72  1  0.49969833  0.50007767  0.25197167  1
  Ir  Ir73  1  0.00037933  0.50030167  0.25197167  1
  Ir  Ir74  1  0.49992233  0.99962067  0.25197167  1
  Ir  Ir75  1  0.16696833  0.83325567  0.08136167  1
  Ir  Ir76  1  0.66628733  0.83303167  0.08136167  1
  Ir  Ir77  1  0.16674433  0.33371267  0.08136167  1
  Ir  Ir78  1  0.33333333  0.66666667  0.91775667  1
  Ir  Ir79  1  0.33333333  0.66666667  0.41557667  1
  Ir  Ir80  1  0.16636500  0.83341100  0.58530500  1
  Ir  Ir81  1  0.66704600  0.83363500  0.58530500  1
  Ir  Ir82  1  0.16658900  0.33295400  0.58530500  1
  Ir  Ir83  1  0.83363500  0.16658900  0.41469500  1
  Ir  Ir84  1  0.33295400  0.16636500  0.41469500  1
  Ir  Ir85  1  0.83341100  0.66704600  0.41469500  1
  Ir  Ir86  1  0.00000000  0.00000000  0.25109000  1
  Ir  Ir87  1  0.00000000  0.00000000  0.74891000  1
  Ir  Ir88  1  0.83303167  0.16674433  0.91863833  1
  Ir  Ir89  1  0.33371267  0.16696833  0.91863833  1
  Ir  Ir90  1  0.83325567  0.66628733  0.91863833  1
  Ir  Ir91  1  0.50030167  0.49992233  0.74802833  1
  Ir  Ir92  1  0.99962067  0.49969833  0.74802833  1
  Ir  Ir93  1  0.50007767  0.00037933  0.74802833  1
  Ir  Ir94  1  0.66666667  0.33333333  0.58442333  1
  Ir  Ir95  1  0.66666667  0.33333333  0.08224333  1
