# generated using pymatgen
data_ZnS
_symmetry_space_group_name_H-M   'P 1'
_cell_length_a   3.85165965
_cell_length_b   3.85165965
_cell_length_c   44.09850900
_cell_angle_alpha   90.00000000
_cell_angle_beta   90.00000000
_cell_angle_gamma   120.00000000
_symmetry_Int_Tables_number   1
_chemical_formula_structural   ZnS
_chemical_formula_sum   'Zn14 S14'
_cell_volume   566.56578646
_cell_formula_units_Z   14
loop_
 _symmetry_equiv_pos_site_id
 _symmetry_equiv_pos_as_xyz
  1  'x, y, z'
loop_
 _atom_site_type_symbol
 _atom_site_label
 _atom_site_symmetry_multiplicity
 _atom_site_fract_x
 _atom_site_fract_y
 _atom_site_fract_z
 _atom_site_occupancy
  Zn  Zn0  1  0.00000000  0.00000000  0.14287500  1
  Zn  Zn1  1  0.66666667  0.33333333  0.07146200  1
  Zn  Zn2  1  0.00000000  0.00000000  0.57144000  1
  Zn  Zn3  1  0.33333333  0.66666667  0.21430600  1
  Zn  Zn4  1  0.33333333  0.66666667  0.78572600  1
  Zn  Zn5  1  0.66666667  0.33333333  0.64288700  1
  Zn  Zn6  1  0.66666667  0.33333333  0.42860200  1
  Zn  Zn7  1  0.00000000  0.00000000  0.85717400  1
  Zn  Zn8  1  0.66666667  0.33333333  0.92857900  1
  Zn  Zn9  1  0.00000000  0.00000000  0.71432500  1
  Zn  Zn10  1  0.66666667  0.33333333  0.28572500  1
  Zn  Zn11  1  0.00000000  0.00000000  0.35715300  1
  Zn  Zn12  1  0.33333333  0.66666667  0.00001100  1
  Zn  Zn13  1  0.33333333  0.66666667  0.50001600  1
  S  S14  1  0.33333333  0.66666667  0.55355100  1
  S  S15  1  0.66666667  0.33333333  0.48212000  1
  S  S16  1  0.00000000  0.00000000  0.19641200  1
  S  S17  1  0.66666667  0.33333333  0.33922700  1
  S  S18  1  0.00000000  0.00000000  0.91069100  1
  S  S19  1  0.33333333  0.66666667  0.83931100  1
  S  S20  1  0.00000000  0.00000000  0.76780200  1
  S  S21  1  0.33333333  0.66666667  0.26784000  1
  S  S22  1  0.66666667  0.33333333  0.69648000  1
  S  S23  1  0.00000000  0.00000000  0.41073800  1
  S  S24  1  0.33333333  0.66666667  0.05359700  1
  S  S25  1  0.00000000  0.00000000  0.62494700  1
  S  S26  1  0.66666667  0.33333333  0.98208200  1
  S  S27  1  0.66666667  0.33333333  0.12498000  1
