# generated using pymatgen
data_CsNdNb2O7
_symmetry_space_group_name_H-M   'P 1'
_cell_length_a   5.50021700
_cell_length_b   5.56824200
_cell_length_c   11.46714300
_cell_angle_alpha   90.00000000
_cell_angle_beta   90.00000000
_cell_angle_gamma   90.00000000
_symmetry_Int_Tables_number   1
_chemical_formula_structural   CsNdNb2O7
_chemical_formula_sum   'Cs2 Nd2 Nb4 O14'
_cell_volume   351.19890585
_cell_formula_units_Z   2
loop_
 _symmetry_equiv_pos_site_id
 _symmetry_equiv_pos_as_xyz
  1  'x, y, z'
loop_
 _atom_site_type_symbol
 _atom_site_label
 _atom_site_symmetry_multiplicity
 _atom_site_fract_x
 _atom_site_fract_y
 _atom_site_fract_z
 _atom_site_occupancy
  Cs  Cs0  1  0.73933500  0.74864800  0.50000000  1
  Cs  Cs1  1  0.26066500  0.24864800  0.50000000  1
  Nd  Nd2  1  0.25043600  0.28180600  0.00000000  1
  Nd  Nd3  1  0.74956400  0.78180600  0.00000000  1
  Nb  Nb4  1  0.74886400  0.24157900  0.20031900  1
  Nb  Nb5  1  0.74886400  0.24157900  0.79968100  1
  Nb  Nb6  1  0.25113600  0.74157900  0.79968100  1
  Nb  Nb7  1  0.25113600  0.74157900  0.20031900  1
  O  O8  1  0.03393900  0.01060800  0.85806000  1
  O  O9  1  0.67081900  0.20679600  0.00000000  1
  O  O10  1  0.32918100  0.70679600  0.00000000  1
  O  O11  1  0.80157100  0.24750300  0.64499800  1
  O  O12  1  0.55373200  0.92633400  0.80949100  1
  O  O13  1  0.19842900  0.74750300  0.64499800  1
  O  O14  1  0.96606100  0.51060800  0.85806000  1
  O  O15  1  0.44626800  0.42633400  0.80949100  1
  O  O16  1  0.03393900  0.01060800  0.14194000  1
  O  O17  1  0.44626800  0.42633400  0.19050900  1
  O  O18  1  0.80157100  0.24750300  0.35500200  1
  O  O19  1  0.96606100  0.51060800  0.14194000  1
  O  O20  1  0.55373200  0.92633400  0.19050900  1
  O  O21  1  0.19842900  0.74750300  0.35500200  1
