# generated using pymatgen
data_MgH6(CO3)2
_symmetry_space_group_name_H-M   'P 1'
_cell_length_a   8.72493800
_cell_length_b   7.20379100
_cell_length_c   9.45934954
_cell_angle_alpha   90.00000000
_cell_angle_beta   98.05593991
_cell_angle_gamma   90.00000000
_symmetry_Int_Tables_number   1
_chemical_formula_structural   MgH6(CO3)2
_chemical_formula_sum   'Mg4 H24 C8 O24'
_cell_volume   588.67785679
_cell_formula_units_Z   4
loop_
 _symmetry_equiv_pos_site_id
 _symmetry_equiv_pos_as_xyz
  1  'x, y, z'
loop_
 _atom_site_type_symbol
 _atom_site_label
 _atom_site_symmetry_multiplicity
 _atom_site_fract_x
 _atom_site_fract_y
 _atom_site_fract_z
 _atom_site_occupancy
  Mg  Mg0  1  0.00000000  0.00000000  0.00000000  1
  Mg  Mg1  1  0.00000000  0.50000000  0.50000000  1
  Mg  Mg2  1  0.50000000  0.50000000  0.00000000  1
  Mg  Mg3  1  0.50000000  0.00000000  0.50000000  1
  H  H4  1  0.79137900  0.39038400  0.99244600  1
  H  H5  1  0.20862100  0.89038400  0.50755400  1
  H  H6  1  0.20862100  0.60961600  0.00755400  1
  H  H7  1  0.79137900  0.10961600  0.49244600  1
  H  H8  1  0.76653400  0.60631200  0.95468200  1
  H  H9  1  0.23346600  0.10631200  0.54531800  1
  H  H10  1  0.23346600  0.39368800  0.04531800  1
  H  H11  1  0.76653400  0.89368800  0.45468200  1
  H  H12  1  0.67008800  0.47482900  0.61312700  1
  H  H13  1  0.32991200  0.97482900  0.88687300  1
  H  H14  1  0.32991200  0.52517100  0.38687300  1
  H  H15  1  0.67008800  0.02517100  0.11312700  1
  H  H16  1  0.07321600  0.29244600  0.77572600  1
  H  H17  1  0.92678400  0.79244600  0.72427400  1
  H  H18  1  0.92678400  0.70755400  0.22427400  1
  H  H19  1  0.07321600  0.20755400  0.27572600  1
  H  H20  1  0.53185300  0.15237500  0.77726700  1
  H  H21  1  0.46814700  0.65237500  0.72273300  1
  H  H22  1  0.46814700  0.84762500  0.22273300  1
  H  H23  1  0.53185300  0.34762500  0.27726700  1
  H  H24  1  0.69814400  0.10138900  0.73691600  1
  H  H25  1  0.30185600  0.60138900  0.76308400  1
  H  H26  1  0.30185600  0.89861100  0.26308400  1
  H  H27  1  0.69814400  0.39861100  0.23691600  1
  C  C28  1  0.96523700  0.22514700  0.72616500  1
  C  C29  1  0.03476300  0.72514700  0.77383500  1
  C  C30  1  0.03476300  0.77485300  0.27383500  1
  C  C31  1  0.96523700  0.27485300  0.22616500  1
  C  C32  1  0.67448000  0.61506600  0.56590900  1
  C  C33  1  0.32552000  0.11506600  0.93409100  1
  C  C34  1  0.32552000  0.38493400  0.43409100  1
  C  C35  1  0.67448000  0.88493400  0.06590900  1
  O  O36  1  0.90223600  0.10749500  0.79959000  1
  O  O37  1  0.09776400  0.60749500  0.70041000  1
  O  O38  1  0.09776400  0.89250500  0.20041000  1
  O  O39  1  0.90223600  0.39250500  0.29959000  1
  O  O40  1  0.91232500  0.27166400  0.59894700  1
  O  O41  1  0.08767500  0.77166400  0.90105300  1
  O  O42  1  0.08767500  0.72833600  0.40105300  1
  O  O43  1  0.91232500  0.22833600  0.09894700  1
  O  O44  1  0.56336500  0.72439800  0.57918700  1
  O  O45  1  0.43663500  0.22439800  0.92081300  1
  O  O46  1  0.43663500  0.27560200  0.42081300  1
  O  O47  1  0.56336500  0.77560200  0.07918700  1
  O  O48  1  0.79116800  0.65467100  0.50391500  1
  O  O49  1  0.20883200  0.15467100  0.99608500  1
  O  O50  1  0.20883200  0.34532900  0.49608500  1
  O  O51  1  0.79116800  0.84532900  0.00391500  1
  O  O52  1  0.72084200  0.48037100  0.93653100  1
  O  O53  1  0.27915800  0.98037100  0.56346900  1
  O  O54  1  0.27915800  0.51962900  0.06346900  1
  O  O55  1  0.72084200  0.01962900  0.43653100  1
  O  O56  1  0.58684900  0.10922000  0.69822300  1
  O  O57  1  0.41315100  0.60922000  0.80177700  1
  O  O58  1  0.41315100  0.89078000  0.30177700  1
  O  O59  1  0.58684900  0.39078000  0.19822300  1
