# generated using pymatgen
data_Cd(BiO2)2
_symmetry_space_group_name_H-M   'P 1'
_cell_length_a   14.73085800
_cell_length_b   14.73085800
_cell_length_c   9.51093200
_cell_angle_alpha   90.00000000
_cell_angle_beta   90.00000000
_cell_angle_gamma   90.00000000
_symmetry_Int_Tables_number   1
_chemical_formula_structural   Cd(BiO2)2
_chemical_formula_sum   'Cd16 Bi32 O64'
_cell_volume   2063.85490953
_cell_formula_units_Z   16
loop_
 _symmetry_equiv_pos_site_id
 _symmetry_equiv_pos_as_xyz
  1  'x, y, z'
loop_
 _atom_site_type_symbol
 _atom_site_label
 _atom_site_symmetry_multiplicity
 _atom_site_fract_x
 _atom_site_fract_y
 _atom_site_fract_z
 _atom_site_occupancy
  Cd  Cd0  1  0.10933300  0.25000000  0.87500000  1
  Cd  Cd1  1  0.25000000  0.10933300  0.12500000  1
  Cd  Cd2  1  0.75000000  0.89066700  0.12500000  1
  Cd  Cd3  1  0.89066700  0.75000000  0.87500000  1
  Cd  Cd4  1  0.89066700  0.25000000  0.87500000  1
  Cd  Cd5  1  0.25000000  0.89066700  0.12500000  1
  Cd  Cd6  1  0.75000000  0.10933300  0.12500000  1
  Cd  Cd7  1  0.10933300  0.75000000  0.87500000  1
  Cd  Cd8  1  0.60933300  0.75000000  0.37500000  1
  Cd  Cd9  1  0.75000000  0.60933300  0.62500000  1
  Cd  Cd10  1  0.25000000  0.39066700  0.62500000  1
  Cd  Cd11  1  0.39066700  0.25000000  0.37500000  1
  Cd  Cd12  1  0.39066700  0.75000000  0.37500000  1
  Cd  Cd13  1  0.75000000  0.39066700  0.62500000  1
  Cd  Cd14  1  0.25000000  0.60933300  0.62500000  1
  Cd  Cd15  1  0.60933300  0.25000000  0.37500000  1
  Bi  Bi16  1  0.34202950  0.84202950  0.75000000  1
  Bi  Bi17  1  0.15797050  0.84202950  0.50000000  1
  Bi  Bi18  1  0.84202950  0.15797050  0.50000000  1
  Bi  Bi19  1  0.15797050  0.65797050  0.25000000  1
  Bi  Bi20  1  0.15797050  0.15797050  0.50000000  1
  Bi  Bi21  1  0.34202950  0.15797050  0.75000000  1
  Bi  Bi22  1  0.15797050  0.34202950  0.25000000  1
  Bi  Bi23  1  0.84202950  0.84202950  0.50000000  1
  Bi  Bi24  1  0.00000000  0.64102450  0.59872650  1
  Bi  Bi25  1  0.85897550  0.00000000  0.84872650  1
  Bi  Bi26  1  0.14102450  0.00000000  0.84872650  1
  Bi  Bi27  1  0.00000000  0.35897550  0.59872650  1
  Bi  Bi28  1  0.35897550  0.00000000  0.40127350  1
  Bi  Bi29  1  0.64102450  0.00000000  0.40127350  1
  Bi  Bi30  1  0.00000000  0.14102450  0.15127350  1
  Bi  Bi31  1  0.00000000  0.85897550  0.15127350  1
  Bi  Bi32  1  0.84202950  0.34202950  0.25000000  1
  Bi  Bi33  1  0.65797050  0.34202950  0.00000000  1
  Bi  Bi34  1  0.34202950  0.65797050  0.00000000  1
  Bi  Bi35  1  0.65797050  0.15797050  0.75000000  1
  Bi  Bi36  1  0.65797050  0.65797050  0.00000000  1
  Bi  Bi37  1  0.84202950  0.65797050  0.25000000  1
  Bi  Bi38  1  0.65797050  0.84202950  0.75000000  1
  Bi  Bi39  1  0.34202950  0.34202950  0.00000000  1
  Bi  Bi40  1  0.50000000  0.14102450  0.09872650  1
  Bi  Bi41  1  0.35897550  0.50000000  0.34872650  1
  Bi  Bi42  1  0.64102450  0.50000000  0.34872650  1
  Bi  Bi43  1  0.50000000  0.85897550  0.09872650  1
  Bi  Bi44  1  0.85897550  0.50000000  0.90127350  1
  Bi  Bi45  1  0.14102450  0.50000000  0.90127350  1
  Bi  Bi46  1  0.50000000  0.64102450  0.65127350  1
  Bi  Bi47  1  0.50000000  0.35897550  0.65127350  1
  O  O48  1  0.84612450  0.69687850  0.49143750  1
  O  O49  1  0.80312150  0.84612450  0.74143750  1
  O  O50  1  0.19687850  0.15387550  0.74143750  1
  O  O51  1  0.15387550  0.30312150  0.49143750  1
  O  O52  1  0.30312150  0.15387550  0.50856250  1
  O  O53  1  0.69687850  0.84612450  0.50856250  1
  O  O54  1  0.15387550  0.19687850  0.25856250  1
  O  O55  1  0.84612450  0.80312150  0.25856250  1
  O  O56  1  0.15387550  0.80312150  0.25856250  1
  O  O57  1  0.69687850  0.15387550  0.50856250  1
  O  O58  1  0.30312150  0.84612450  0.50856250  1
  O  O59  1  0.84612450  0.19687850  0.25856250  1
  O  O60  1  0.19687850  0.84612450  0.74143750  1
  O  O61  1  0.80312150  0.15387550  0.74143750  1
  O  O62  1  0.84612450  0.30312150  0.49143750  1
  O  O63  1  0.15387550  0.69687850  0.49143750  1
  O  O64  1  0.00000000  0.72905600  0.06166100  1
  O  O65  1  0.77094400  0.00000000  0.31166100  1
  O  O66  1  0.22905600  0.00000000  0.31166100  1
  O  O67  1  0.00000000  0.27094400  0.06166100  1
  O  O68  1  0.27094400  0.00000000  0.93833900  1
  O  O69  1  0.72905600  0.00000000  0.93833900  1
  O  O70  1  0.00000000  0.22905600  0.68833900  1
  O  O71  1  0.00000000  0.77094400  0.68833900  1
  O  O72  1  0.10702300  0.60702300  0.75000000  1
  O  O73  1  0.89297700  0.10702300  0.00000000  1
  O  O74  1  0.10702300  0.89297700  0.00000000  1
  O  O75  1  0.39297700  0.89297700  0.25000000  1
  O  O76  1  0.89297700  0.89297700  0.00000000  1
  O  O77  1  0.10702300  0.39297700  0.75000000  1
  O  O78  1  0.39297700  0.10702300  0.25000000  1
  O  O79  1  0.10702300  0.10702300  0.00000000  1
  O  O80  1  0.34612450  0.19687850  0.99143750  1
  O  O81  1  0.30312150  0.34612450  0.24143750  1
  O  O82  1  0.69687850  0.65387550  0.24143750  1
  O  O83  1  0.65387550  0.80312150  0.99143750  1
  O  O84  1  0.80312150  0.65387550  0.00856250  1
  O  O85  1  0.19687850  0.34612450  0.00856250  1
  O  O86  1  0.65387550  0.69687850  0.75856250  1
  O  O87  1  0.34612450  0.30312150  0.75856250  1
  O  O88  1  0.65387550  0.30312150  0.75856250  1
  O  O89  1  0.19687850  0.65387550  0.00856250  1
  O  O90  1  0.80312150  0.34612450  0.00856250  1
  O  O91  1  0.34612450  0.69687850  0.75856250  1
  O  O92  1  0.69687850  0.34612450  0.24143750  1
  O  O93  1  0.30312150  0.65387550  0.24143750  1
  O  O94  1  0.34612450  0.80312150  0.99143750  1
  O  O95  1  0.65387550  0.19687850  0.99143750  1
  O  O96  1  0.50000000  0.22905600  0.56166100  1
  O  O97  1  0.27094400  0.50000000  0.81166100  1
  O  O98  1  0.72905600  0.50000000  0.81166100  1
  O  O99  1  0.50000000  0.77094400  0.56166100  1
  O  O100  1  0.77094400  0.50000000  0.43833900  1
  O  O101  1  0.22905600  0.50000000  0.43833900  1
  O  O102  1  0.50000000  0.72905600  0.18833900  1
  O  O103  1  0.50000000  0.27094400  0.18833900  1
  O  O104  1  0.60702300  0.10702300  0.25000000  1
  O  O105  1  0.39297700  0.60702300  0.50000000  1
  O  O106  1  0.60702300  0.39297700  0.50000000  1
  O  O107  1  0.89297700  0.39297700  0.75000000  1
  O  O108  1  0.39297700  0.39297700  0.50000000  1
  O  O109  1  0.60702300  0.89297700  0.25000000  1
  O  O110  1  0.89297700  0.60702300  0.75000000  1
  O  O111  1  0.60702300  0.60702300  0.50000000  1
