# generated using pymatgen
data_KTiPS5
_symmetry_space_group_name_H-M   'P 1'
_cell_length_a   17.99410400
_cell_length_b   7.17023600
_cell_length_c   6.57846743
_cell_angle_alpha   90.00000000
_cell_angle_beta   98.66502753
_cell_angle_gamma   90.00000000
_symmetry_Int_Tables_number   1
_chemical_formula_structural   KTiPS5
_chemical_formula_sum   'K4 Ti4 P4 S20'
_cell_volume   839.07904316
_cell_formula_units_Z   4
loop_
 _symmetry_equiv_pos_site_id
 _symmetry_equiv_pos_as_xyz
  1  'x, y, z'
loop_
 _atom_site_type_symbol
 _atom_site_label
 _atom_site_symmetry_multiplicity
 _atom_site_fract_x
 _atom_site_fract_y
 _atom_site_fract_z
 _atom_site_occupancy
  K  K0  1  0.76903400  0.00000000  0.26531800  1
  K  K1  1  0.73096600  0.50000000  0.73468200  1
  K  K2  1  0.26903400  0.50000000  0.26531800  1
  K  K3  1  0.23096600  0.00000000  0.73468200  1
  Ti  Ti4  1  0.00000000  0.22186200  0.50000000  1
  Ti  Ti5  1  0.00000000  0.77813800  0.50000000  1
  Ti  Ti6  1  0.50000000  0.72186200  0.50000000  1
  Ti  Ti7  1  0.50000000  0.27813800  0.50000000  1
  P  P8  1  0.86808100  0.50000000  0.29186200  1
  P  P9  1  0.63191900  0.00000000  0.70813800  1
  P  P10  1  0.36808100  0.00000000  0.29186200  1
  P  P11  1  0.13191900  0.50000000  0.70813800  1
  S  S12  1  0.58525550  0.76780650  0.82323000  1
  S  S13  1  0.74434500  0.00000000  0.75483100  1
  S  S14  1  0.91474450  0.73219350  0.17677000  1
  S  S15  1  0.91602000  0.50000000  0.60111400  1
  S  S16  1  0.91474450  0.26780650  0.17677000  1
  S  S17  1  0.93993700  0.00000000  0.66905300  1
  S  S18  1  0.56006300  0.50000000  0.33094700  1
  S  S19  1  0.58398000  0.00000000  0.39888600  1
  S  S20  1  0.58525550  0.23219350  0.82323000  1
  S  S21  1  0.75565500  0.50000000  0.24516900  1
  S  S22  1  0.08525550  0.26780650  0.82323000  1
  S  S23  1  0.24434500  0.50000000  0.75483100  1
  S  S24  1  0.41474450  0.23219350  0.17677000  1
  S  S25  1  0.41602000  0.00000000  0.60111400  1
  S  S26  1  0.41474450  0.76780650  0.17677000  1
  S  S27  1  0.43993700  0.50000000  0.66905300  1
  S  S28  1  0.06006300  0.00000000  0.33094700  1
  S  S29  1  0.08398000  0.50000000  0.39888600  1
  S  S30  1  0.08525550  0.73219350  0.82323000  1
  S  S31  1  0.25565500  0.00000000  0.24516900  1
