# generated using pymatgen
data_K2(MoSe6)3
_symmetry_space_group_name_H-M   'P 1'
_cell_length_a   10.62706300
_cell_length_b   12.89828000
_cell_length_c   10.86356662
_cell_angle_alpha   90.00000000
_cell_angle_beta   116.70302344
_cell_angle_gamma   90.00000000
_symmetry_Int_Tables_number   1
_chemical_formula_structural   K2(MoSe6)3
_chemical_formula_sum   'K4 Mo6 Se36'
_cell_volume   1330.26449533
_cell_formula_units_Z   2
loop_
 _symmetry_equiv_pos_site_id
 _symmetry_equiv_pos_as_xyz
  1  'x, y, z'
loop_
 _atom_site_type_symbol
 _atom_site_label
 _atom_site_symmetry_multiplicity
 _atom_site_fract_x
 _atom_site_fract_y
 _atom_site_fract_z
 _atom_site_occupancy
  K  K0  1  0.26366600  0.65399000  0.33620000  1
  K  K1  1  0.73633400  0.15399000  0.66380000  1
  K  K2  1  0.41714500  0.18703700  0.99713900  1
  K  K3  1  0.58285500  0.68703700  0.00286100  1
  Mo  Mo4  1  0.08827800  0.23119300  0.48788100  1
  Mo  Mo5  1  0.91172200  0.73119300  0.51211900  1
  Mo  Mo6  1  0.24218600  0.23868900  0.33797900  1
  Mo  Mo7  1  0.75781400  0.73868900  0.66202100  1
  Mo  Mo8  1  0.94748700  0.25049500  0.20033200  1
  Mo  Mo9  1  0.05251300  0.75049500  0.79966800  1
  Se  Se10  1  0.10227300  0.38987500  0.36217300  1
  Se  Se11  1  0.89772700  0.88987500  0.63782700  1
  Se  Se12  1  0.08907600  0.15648600  0.71933100  1
  Se  Se13  1  0.91092400  0.65648600  0.28066900  1
  Se  Se14  1  0.10528100  0.33817400  0.70126600  1
  Se  Se15  1  0.89471900  0.83817400  0.29873400  1
  Se  Se16  1  0.11093000  0.91231500  0.31595000  1
  Se  Se17  1  0.88907000  0.41231500  0.68405000  1
  Se  Se18  1  0.90581800  0.10057300  0.33390500  1
  Se  Se19  1  0.09418200  0.60057300  0.66609500  1
  Se  Se20  1  0.81465700  0.26157600  0.35783800  1
  Se  Se21  1  0.18534300  0.76157600  0.64216200  1
  Se  Se22  1  0.10607700  0.28143800  0.07386400  1
  Se  Se23  1  0.89392300  0.78143800  0.92613600  1
  Se  Se24  1  0.09165400  0.11011900  0.14903700  1
  Se  Se25  1  0.90834600  0.61011900  0.85096300  1
  Se  Se26  1  0.25955300  0.08712100  0.50162000  1
  Se  Se27  1  0.74044700  0.58712100  0.49838000  1
  Se  Se28  1  0.36691600  0.24920800  0.60881100  1
  Se  Se29  1  0.63308400  0.74920800  0.39118900  1
  Se  Se30  1  0.83057400  0.43249200  0.10509500  1
  Se  Se31  1  0.16942600  0.93249200  0.89490500  1
  Se  Se32  1  0.58968200  0.42849700  0.93095000  1
  Se  Se33  1  0.41031800  0.92849700  0.06905000  1
  Se  Se34  1  0.43601400  0.96507400  0.29722000  1
  Se  Se35  1  0.56398600  0.46507400  0.70278000  1
  Se  Se36  1  0.46722200  0.15146000  0.32964800  1
  Se  Se37  1  0.53277800  0.65146000  0.67035200  1
  Se  Se38  1  0.72163100  0.19094100  0.97125300  1
  Se  Se39  1  0.27836900  0.69094100  0.02874700  1
  Se  Se40  1  0.76105600  0.00483900  0.98569300  1
  Se  Se41  1  0.23894400  0.50483900  0.01430700  1
  Se  Se42  1  0.45232000  0.42386000  0.16638600  1
  Se  Se43  1  0.54768000  0.92386000  0.83361400  1
  Se  Se44  1  0.44047100  0.37994700  0.37586300  1
  Se  Se45  1  0.55952900  0.87994700  0.62413700  1
