# generated using pymatgen
data_Li10Si2PbO10
_symmetry_space_group_name_H-M   'P 1'
_cell_length_a   30.06745400
_cell_length_b   6.11375400
_cell_length_c   5.17544201
_cell_angle_alpha   90.00000000
_cell_angle_beta   99.68356891
_cell_angle_gamma   90.00000000
_symmetry_Int_Tables_number   1
_chemical_formula_structural   Li10Si2PbO10
_chemical_formula_sum   'Li40 Si8 Pb4 O40'
_cell_volume   937.82027388
_cell_formula_units_Z   4
loop_
 _symmetry_equiv_pos_site_id
 _symmetry_equiv_pos_as_xyz
  1  'x, y, z'
loop_
 _atom_site_type_symbol
 _atom_site_label
 _atom_site_symmetry_multiplicity
 _atom_site_fract_x
 _atom_site_fract_y
 _atom_site_fract_z
 _atom_site_occupancy
  Li  Li0  1  0.13181850  0.78154650  0.03371300  1
  Li  Li1  1  0.30515950  0.74295050  0.21090700  1
  Li  Li2  1  0.13181850  0.21845350  0.03371300  1
  Li  Li3  1  0.26938200  0.00000000  0.86361500  1
  Li  Li4  1  0.43534350  0.78617350  0.77017300  1
  Li  Li5  1  0.23061800  0.50000000  0.13638500  1
  Li  Li6  1  0.36818150  0.71845350  0.96628700  1
  Li  Li7  1  0.13215600  0.00000000  0.48600100  1
  Li  Li8  1  0.30515950  0.25704950  0.21090700  1
  Li  Li9  1  0.36784400  0.50000000  0.51399900  1
  Li  Li10  1  0.32430300  0.00000000  0.57693800  1
  Li  Li11  1  0.43534350  0.21382650  0.77017300  1
  Li  Li12  1  0.49223000  0.00000000  0.24025600  1
  Li  Li13  1  0.19484050  0.75704950  0.78909300  1
  Li  Li14  1  0.17569700  0.50000000  0.42306200  1
  Li  Li15  1  0.06465650  0.71382650  0.22982700  1
  Li  Li16  1  0.06465650  0.28617350  0.22982700  1
  Li  Li17  1  0.00777000  0.50000000  0.75974400  1
  Li  Li18  1  0.36818150  0.28154650  0.96628700  1
  Li  Li19  1  0.19484050  0.24295050  0.78909300  1
  Li  Li20  1  0.63181850  0.28154650  0.03371300  1
  Li  Li21  1  0.80515950  0.24295050  0.21090700  1
  Li  Li22  1  0.63181850  0.71845350  0.03371300  1
  Li  Li23  1  0.76938200  0.50000000  0.86361500  1
  Li  Li24  1  0.93534350  0.28617350  0.77017300  1
  Li  Li25  1  0.73061800  0.00000000  0.13638500  1
  Li  Li26  1  0.86818150  0.21845350  0.96628700  1
  Li  Li27  1  0.63215600  0.50000000  0.48600100  1
  Li  Li28  1  0.80515950  0.75704950  0.21090700  1
  Li  Li29  1  0.86784400  0.00000000  0.51399900  1
  Li  Li30  1  0.82430300  0.50000000  0.57693800  1
  Li  Li31  1  0.93534350  0.71382650  0.77017300  1
  Li  Li32  1  0.99223000  0.50000000  0.24025600  1
  Li  Li33  1  0.69484050  0.25704950  0.78909300  1
  Li  Li34  1  0.67569700  0.00000000  0.42306200  1
  Li  Li35  1  0.56465650  0.21382650  0.22982700  1
  Li  Li36  1  0.56465650  0.78617350  0.22982700  1
  Li  Li37  1  0.50777000  0.00000000  0.75974400  1
  Li  Li38  1  0.86818150  0.78154650  0.96628700  1
  Li  Li39  1  0.69484050  0.74295050  0.78909300  1
  Si  Si40  1  0.10046600  0.50000000  0.69464200  1
  Si  Si41  1  0.39953400  0.00000000  0.30535800  1
  Si  Si42  1  0.28089500  0.50000000  0.69069800  1
  Si  Si43  1  0.21910500  0.00000000  0.30930200  1
  Si  Si44  1  0.60046600  0.00000000  0.69464200  1
  Si  Si45  1  0.89953400  0.50000000  0.30535800  1
  Si  Si46  1  0.78089500  0.00000000  0.69069800  1
  Si  Si47  1  0.71910500  0.50000000  0.30930200  1
  Pb  Pb48  1  0.03859400  0.00000000  0.78888800  1
  Pb  Pb49  1  0.46140600  0.50000000  0.21111200  1
  Pb  Pb50  1  0.53859400  0.50000000  0.78888800  1
  Pb  Pb51  1  0.96140600  0.00000000  0.21111200  1
  O  O52  1  0.05047100  0.50000000  0.50284000  1
  O  O53  1  0.30610500  0.27413400  0.82866500  1
  O  O54  1  0.27227700  0.00000000  0.26380000  1
  O  O55  1  0.09524000  0.50000000  0.00950600  1
  O  O56  1  0.00000000  0.25182900  0.00000000  1
  O  O57  1  0.30610500  0.72586600  0.82866500  1
  O  O58  1  0.00000000  0.74817100  0.00000000  1
  O  O59  1  0.44952900  0.00000000  0.49716000  1
  O  O60  1  0.21350400  0.00000000  0.61989600  1
  O  O61  1  0.12955000  0.28184700  0.64077200  1
  O  O62  1  0.37045000  0.78184700  0.35922800  1
  O  O63  1  0.19389500  0.77413400  0.17133500  1
  O  O64  1  0.12955000  0.71815300  0.64077200  1
  O  O65  1  0.28649600  0.50000000  0.38010400  1
  O  O66  1  0.37045000  0.21815300  0.35922800  1
  O  O67  1  0.22772300  0.50000000  0.73620000  1
  O  O68  1  0.09211300  0.00000000  0.14305000  1
  O  O69  1  0.19389500  0.22586600  0.17133500  1
  O  O70  1  0.40476000  0.00000000  0.99049400  1
  O  O71  1  0.40788700  0.50000000  0.85695000  1
  O  O72  1  0.55047100  0.00000000  0.50284000  1
  O  O73  1  0.80610500  0.77413400  0.82866500  1
  O  O74  1  0.77227700  0.50000000  0.26380000  1
  O  O75  1  0.59524000  0.00000000  0.00950600  1
  O  O76  1  0.50000000  0.75182900  0.00000000  1
  O  O77  1  0.80610500  0.22586600  0.82866500  1
  O  O78  1  0.50000000  0.24817100  0.00000000  1
  O  O79  1  0.94952900  0.50000000  0.49716000  1
  O  O80  1  0.71350400  0.50000000  0.61989600  1
  O  O81  1  0.62955000  0.78184700  0.64077200  1
  O  O82  1  0.87045000  0.28184700  0.35922800  1
  O  O83  1  0.69389500  0.27413400  0.17133500  1
  O  O84  1  0.62955000  0.21815300  0.64077200  1
  O  O85  1  0.78649600  0.00000000  0.38010400  1
  O  O86  1  0.87045000  0.71815300  0.35922800  1
  O  O87  1  0.72772300  0.00000000  0.73620000  1
  O  O88  1  0.59211300  0.50000000  0.14305000  1
  O  O89  1  0.69389500  0.72586600  0.17133500  1
  O  O90  1  0.90476000  0.50000000  0.99049400  1
  O  O91  1  0.90788700  0.00000000  0.85695000  1
