# generated using pymatgen
data_GaSe2NCl6
_symmetry_space_group_name_H-M   'P 1'
_cell_length_a   10.19615200
_cell_length_b   11.81437800
_cell_length_c   11.05995726
_cell_angle_alpha   90.00000000
_cell_angle_beta   114.47532560
_cell_angle_gamma   90.00000000
_symmetry_Int_Tables_number   1
_chemical_formula_structural   GaSe2NCl6
_chemical_formula_sum   'Ga4 Se8 N4 Cl24'
_cell_volume   1212.57526688
_cell_formula_units_Z   4
loop_
 _symmetry_equiv_pos_site_id
 _symmetry_equiv_pos_as_xyz
  1  'x, y, z'
loop_
 _atom_site_type_symbol
 _atom_site_label
 _atom_site_symmetry_multiplicity
 _atom_site_fract_x
 _atom_site_fract_y
 _atom_site_fract_z
 _atom_site_occupancy
  Ga  Ga0  1  0.17252600  0.80635100  0.48702200  1
  Ga  Ga1  1  0.82747400  0.19364900  0.51297800  1
  Ga  Ga2  1  0.82747400  0.30635100  0.01297800  1
  Ga  Ga3  1  0.17252600  0.69364900  0.98702200  1
  Se  Se4  1  0.27382700  0.45353900  0.45414500  1
  Se  Se5  1  0.72617300  0.54646100  0.54585500  1
  Se  Se6  1  0.27382700  0.04646100  0.95414500  1
  Se  Se7  1  0.21160200  0.31814400  0.87899700  1
  Se  Se8  1  0.78839800  0.68185600  0.12100300  1
  Se  Se9  1  0.72617300  0.95353900  0.04585500  1
  Se  Se10  1  0.21160200  0.18185600  0.37899700  1
  Se  Se11  1  0.78839800  0.81814400  0.62100300  1
  N  N12  1  0.21481800  0.32757800  0.37242300  1
  N  N13  1  0.21481800  0.17242200  0.87242300  1
  N  N14  1  0.78518200  0.82757800  0.12757700  1
  N  N15  1  0.78518200  0.67242200  0.62757700  1
  Cl  Cl16  1  0.16360900  0.58577600  0.82176300  1
  Cl  Cl17  1  0.14213200  0.59710500  0.14273100  1
  Cl  Cl18  1  0.99696400  0.82384100  0.91307200  1
  Cl  Cl19  1  0.00303600  0.17615900  0.08692800  1
  Cl  Cl20  1  0.83639100  0.08577600  0.67823700  1
  Cl  Cl21  1  0.14213200  0.90289500  0.64273100  1
  Cl  Cl22  1  0.63452900  0.63204600  0.92201300  1
  Cl  Cl23  1  0.37773200  0.71200300  0.56697400  1
  Cl  Cl24  1  0.42377800  0.07970600  0.16005200  1
  Cl  Cl25  1  0.83639100  0.41422400  0.17823700  1
  Cl  Cl26  1  0.00303600  0.32384100  0.58692800  1
  Cl  Cl27  1  0.37773200  0.78799700  0.06697400  1
  Cl  Cl28  1  0.36547100  0.13204600  0.57798700  1
  Cl  Cl29  1  0.99696400  0.67615900  0.41307200  1
  Cl  Cl30  1  0.36547100  0.36795400  0.07798700  1
  Cl  Cl31  1  0.85786800  0.40289500  0.85726900  1
  Cl  Cl32  1  0.16360900  0.91422400  0.32176300  1
  Cl  Cl33  1  0.63452900  0.86795400  0.42201300  1
  Cl  Cl34  1  0.57622200  0.92029400  0.83994800  1
  Cl  Cl35  1  0.62226800  0.28799700  0.43302600  1
  Cl  Cl36  1  0.42377800  0.42029400  0.66005200  1
  Cl  Cl37  1  0.62226800  0.21200300  0.93302600  1
  Cl  Cl38  1  0.57622200  0.57970600  0.33994800  1
  Cl  Cl39  1  0.85786800  0.09710500  0.35726900  1
