# generated using pymatgen
data_TeAs(IF2)3
_symmetry_space_group_name_H-M   'P 1'
_cell_length_a   8.46292300
_cell_length_b   11.01216500
_cell_length_c   13.04672555
_cell_angle_alpha   90.00000000
_cell_angle_beta   101.01137438
_cell_angle_gamma   90.00000000
_symmetry_Int_Tables_number   1
_chemical_formula_structural   TeAs(IF2)3
_chemical_formula_sum   'Te4 As4 I12 F24'
_cell_volume   1193.50552832
_cell_formula_units_Z   4
loop_
 _symmetry_equiv_pos_site_id
 _symmetry_equiv_pos_as_xyz
  1  'x, y, z'
loop_
 _atom_site_type_symbol
 _atom_site_label
 _atom_site_symmetry_multiplicity
 _atom_site_fract_x
 _atom_site_fract_y
 _atom_site_fract_z
 _atom_site_occupancy
  Te  Te0  1  0.18690200  0.66604800  0.68996800  1
  Te  Te1  1  0.18690200  0.83395200  0.18996800  1
  Te  Te2  1  0.81309800  0.16604800  0.81003200  1
  Te  Te3  1  0.81309800  0.33395200  0.31003200  1
  As  As4  1  0.17337000  0.27503200  0.58106700  1
  As  As5  1  0.82663000  0.77503200  0.91893300  1
  As  As6  1  0.17337000  0.22496800  0.08106700  1
  As  As7  1  0.82663000  0.72496800  0.41893300  1
  I  I8  1  0.44523600  0.85120500  0.09585300  1
  I  I9  1  0.22521200  0.90180800  0.74627500  1
  I  I10  1  0.22521200  0.59819200  0.24627500  1
  I  I11  1  0.70848900  0.04590400  0.62936500  1
  I  I12  1  0.44523600  0.64879500  0.59585300  1
  I  I13  1  0.29151100  0.54590400  0.87063500  1
  I  I14  1  0.55476400  0.14879500  0.90414700  1
  I  I15  1  0.70848900  0.45409600  0.12936500  1
  I  I16  1  0.77478800  0.09819200  0.25372500  1
  I  I17  1  0.77478800  0.40180800  0.75372500  1
  I  I18  1  0.55476400  0.35120500  0.40414700  1
  I  I19  1  0.29151100  0.95409600  0.37063500  1
  F  F20  1  0.87688000  0.78189400  0.30155700  1
  F  F21  1  0.24157400  0.12915600  0.55262200  1
  F  F22  1  0.10211300  0.42220500  0.60885600  1
  F  F23  1  0.12312000  0.28189400  0.19844300  1
  F  F24  1  0.36843300  0.31413100  0.64709000  1
  F  F25  1  0.12312000  0.21810600  0.69844300  1
  F  F26  1  0.02550800  0.76119600  0.48680000  1
  F  F27  1  0.75842600  0.87084400  0.44737800  1
  F  F28  1  0.89788700  0.92220500  0.89114400  1
  F  F29  1  0.78336600  0.66776200  0.53840200  1
  F  F30  1  0.21663400  0.33223800  0.46159800  1
  F  F31  1  0.63156700  0.81413100  0.85291000  1
  F  F32  1  0.21663400  0.16776200  0.96159800  1
  F  F33  1  0.78336600  0.83223800  0.03840200  1
  F  F34  1  0.02550800  0.73880400  0.98680000  1
  F  F35  1  0.97449200  0.26119600  0.01320000  1
  F  F36  1  0.89788700  0.57779500  0.39114400  1
  F  F37  1  0.10211300  0.07779500  0.10885600  1
  F  F38  1  0.24157400  0.37084400  0.05262200  1
  F  F39  1  0.97449200  0.23880400  0.51320000  1
  F  F40  1  0.75842600  0.62915600  0.94737800  1
  F  F41  1  0.36843300  0.18586900  0.14709000  1
  F  F42  1  0.63156700  0.68586900  0.35291000  1
  F  F43  1  0.87688000  0.71810600  0.80155700  1
