# generated using pymatgen
data_Pb2S(O2F)2
_symmetry_space_group_name_H-M   'P 1'
_cell_length_a   14.55213400
_cell_length_b   4.49722800
_cell_length_c   8.75000394
_cell_angle_alpha   90.00000000
_cell_angle_beta   107.99250288
_cell_angle_gamma   90.00000000
_symmetry_Int_Tables_number   1
_chemical_formula_structural   Pb2S(O2F)2
_chemical_formula_sum   'Pb8 S4 O16 F8'
_cell_volume   544.63384436
_cell_formula_units_Z   4
loop_
 _symmetry_equiv_pos_site_id
 _symmetry_equiv_pos_as_xyz
  1  'x, y, z'
loop_
 _atom_site_type_symbol
 _atom_site_label
 _atom_site_symmetry_multiplicity
 _atom_site_fract_x
 _atom_site_fract_y
 _atom_site_fract_z
 _atom_site_occupancy
  Pb  Pb0  1  0.34573550  0.00456050  0.92399900  1
  Pb  Pb1  1  0.15426450  0.49543950  0.07600100  1
  Pb  Pb2  1  0.15426450  0.50456050  0.57600100  1
  Pb  Pb3  1  0.34573550  0.99543950  0.42399900  1
  Pb  Pb4  1  0.84573550  0.50456050  0.92399900  1
  Pb  Pb5  1  0.65426450  0.99543950  0.07600100  1
  Pb  Pb6  1  0.65426450  0.00456050  0.57600100  1
  Pb  Pb7  1  0.84573550  0.49543950  0.42399900  1
  S  S8  1  0.00000000  0.95130800  0.75000000  1
  S  S9  1  0.00000000  0.04869200  0.25000000  1
  S  S10  1  0.50000000  0.45130800  0.75000000  1
  S  S11  1  0.50000000  0.54869200  0.25000000  1
  O  O12  1  0.41072400  0.36539900  0.20631800  1
  O  O13  1  0.00140500  0.24528800  0.39003800  1
  O  O14  1  0.49859500  0.74528800  0.10996200  1
  O  O15  1  0.08927600  0.86539900  0.29368200  1
  O  O16  1  0.08927600  0.13460100  0.79368200  1
  O  O17  1  0.41072400  0.63460100  0.70631800  1
  O  O18  1  0.00140500  0.75471200  0.89003800  1
  O  O19  1  0.49859500  0.25471200  0.60996200  1
  O  O20  1  0.91072400  0.86539900  0.20631800  1
  O  O21  1  0.50140500  0.74528800  0.39003800  1
  O  O22  1  0.99859500  0.24528800  0.10996200  1
  O  O23  1  0.58927600  0.36539900  0.29368200  1
  O  O24  1  0.58927600  0.63460100  0.79368200  1
  O  O25  1  0.91072400  0.13460100  0.70631800  1
  O  O26  1  0.50140500  0.25471200  0.89003800  1
  O  O27  1  0.99859500  0.75471200  0.60996200  1
  F  F28  1  0.24706100  0.97703900  0.12331300  1
  F  F29  1  0.25293900  0.47703900  0.37668700  1
  F  F30  1  0.25293900  0.52296100  0.87668700  1
  F  F31  1  0.24706100  0.02296100  0.62331300  1
  F  F32  1  0.74706100  0.47703900  0.12331300  1
  F  F33  1  0.75293900  0.97703900  0.37668700  1
  F  F34  1  0.75293900  0.02296100  0.87668700  1
  F  F35  1  0.74706100  0.52296100  0.62331300  1
