# generated using pymatgen
data_CsN3
_symmetry_space_group_name_H-M   'P 1'
_cell_length_a   6.68863200
_cell_length_b   6.68863200
_cell_length_c   8.17244200
_cell_angle_alpha   90.00000000
_cell_angle_beta   90.00000000
_cell_angle_gamma   90.00000000
_symmetry_Int_Tables_number   1
_chemical_formula_structural   CsN3
_chemical_formula_sum   'Cs4 N12'
_cell_volume   365.61705962
_cell_formula_units_Z   4
loop_
 _symmetry_equiv_pos_site_id
 _symmetry_equiv_pos_as_xyz
  1  'x, y, z'
loop_
 _atom_site_type_symbol
 _atom_site_label
 _atom_site_symmetry_multiplicity
 _atom_site_fract_x
 _atom_site_fract_y
 _atom_site_fract_z
 _atom_site_occupancy
  Cs  Cs0  1  0.00000000  0.00000000  0.75000000  1
  Cs  Cs1  1  0.00000000  0.00000000  0.25000000  1
  Cs  Cs2  1  0.50000000  0.50000000  0.25000000  1
  Cs  Cs3  1  0.50000000  0.50000000  0.75000000  1
  N  N4  1  0.00000000  0.50000000  0.00000000  1
  N  N5  1  0.12582200  0.37417800  0.00000000  1
  N  N6  1  0.62582200  0.12582200  0.00000000  1
  N  N7  1  0.87417800  0.37417800  0.50000000  1
  N  N8  1  0.37417800  0.12582200  0.50000000  1
  N  N9  1  0.50000000  0.00000000  0.00000000  1
  N  N10  1  0.50000000  0.00000000  0.50000000  1
  N  N11  1  0.62582200  0.87417800  0.50000000  1
  N  N12  1  0.12582200  0.62582200  0.50000000  1
  N  N13  1  0.37417800  0.87417800  0.00000000  1
  N  N14  1  0.87417800  0.62582200  0.00000000  1
  N  N15  1  0.00000000  0.50000000  0.50000000  1
