# generated using pymatgen
data_SbIrC2(OF3)2
_symmetry_space_group_name_H-M   'P 1'
_cell_length_a   13.23311300
_cell_length_b   13.23311300
_cell_length_c   9.73898300
_cell_angle_alpha   90.00000000
_cell_angle_beta   90.00000000
_cell_angle_gamma   90.00000000
_symmetry_Int_Tables_number   1
_chemical_formula_structural   SbIrC2(OF3)2
_chemical_formula_sum   'Sb8 Ir8 C16 O16 F48'
_cell_volume   1705.44473175
_cell_formula_units_Z   8
loop_
 _symmetry_equiv_pos_site_id
 _symmetry_equiv_pos_as_xyz
  1  'x, y, z'
loop_
 _atom_site_type_symbol
 _atom_site_label
 _atom_site_symmetry_multiplicity
 _atom_site_fract_x
 _atom_site_fract_y
 _atom_site_fract_z
 _atom_site_occupancy
  Sb  Sb0  1  0.70056700  0.94732200  0.39779300  1
  Sb  Sb1  1  0.20056700  0.55267800  0.89779300  1
  Sb  Sb2  1  0.05267800  0.70056700  0.60220700  1
  Sb  Sb3  1  0.44732200  0.20056700  0.10220700  1
  Sb  Sb4  1  0.79943300  0.44732200  0.89779300  1
  Sb  Sb5  1  0.94732200  0.29943300  0.60220700  1
  Sb  Sb6  1  0.29943300  0.05267800  0.39779300  1
  Sb  Sb7  1  0.55267800  0.79943300  0.10220700  1
  Ir  Ir8  1  0.08543100  0.08507100  0.07365400  1
  Ir  Ir9  1  0.91456900  0.91492900  0.07365400  1
  Ir  Ir10  1  0.58507100  0.58543100  0.42634600  1
  Ir  Ir11  1  0.41456900  0.58507100  0.57365400  1
  Ir  Ir12  1  0.58543100  0.41492900  0.57365400  1
  Ir  Ir13  1  0.41492900  0.41456900  0.42634600  1
  Ir  Ir14  1  0.08507100  0.91456900  0.92634600  1
  Ir  Ir15  1  0.91492900  0.08543100  0.92634600  1
  C  C16  1  0.78927600  0.06676500  0.83537100  1
  C  C17  1  0.28927600  0.43323500  0.33537100  1
  C  C18  1  0.64980300  0.65702300  0.56326300  1
  C  C19  1  0.06676500  0.21072400  0.16462900  1
  C  C20  1  0.71072400  0.56676500  0.33537100  1
  C  C21  1  0.21072400  0.93323500  0.83537100  1
  C  C22  1  0.65702300  0.35019700  0.43673700  1
  C  C23  1  0.85019700  0.15702300  0.06326300  1
  C  C24  1  0.14980300  0.84297700  0.06326300  1
  C  C25  1  0.34297700  0.64980300  0.43673700  1
  C  C26  1  0.93323500  0.78927600  0.16462900  1
  C  C27  1  0.56676500  0.28927600  0.66462900  1
  C  C28  1  0.15702300  0.14980300  0.93673700  1
  C  C29  1  0.84297700  0.85019700  0.93673700  1
  C  C30  1  0.43323500  0.71072400  0.66462900  1
  C  C31  1  0.35019700  0.34297700  0.56326300  1
  O  O32  1  0.68813500  0.70067200  0.65150600  1
  O  O33  1  0.78966100  0.55534800  0.28837400  1
  O  O34  1  0.70067200  0.31186500  0.34849400  1
  O  O35  1  0.44465200  0.78966100  0.71162600  1
  O  O36  1  0.28966100  0.94465200  0.78837400  1
  O  O37  1  0.31186500  0.29932800  0.65150600  1
  O  O38  1  0.05534800  0.28966100  0.21162600  1
  O  O39  1  0.20067200  0.18813500  0.84849400  1
  O  O40  1  0.21033900  0.44465200  0.28837400  1
  O  O41  1  0.94465200  0.71033900  0.21162600  1
  O  O42  1  0.29932800  0.68813500  0.34849400  1
  O  O43  1  0.55534800  0.21033900  0.71162600  1
  O  O44  1  0.71033900  0.05534800  0.78837400  1
  O  O45  1  0.79932800  0.81186500  0.84849400  1
  O  O46  1  0.81186500  0.20067200  0.15150600  1
  O  O47  1  0.18813500  0.79932800  0.15150600  1
  F  F48  1  0.90581700  0.40581700  0.75000000  1
  F  F49  1  0.89474200  0.40063400  0.02847400  1
  F  F50  1  0.80179500  0.98706800  0.52374600  1
  F  F51  1  0.00000000  0.00000000  0.78697600  1
  F  F52  1  0.21910000  0.01778500  0.23773300  1
  F  F53  1  0.48221500  0.28090000  0.26226700  1
  F  F54  1  0.50000000  0.50000000  0.28697600  1
  F  F55  1  0.78090000  0.98221500  0.23773300  1
  F  F56  1  0.63917900  0.07628900  0.39164000  1
  F  F57  1  0.90063400  0.39474200  0.47152600  1
  F  F58  1  0.18637500  0.75289000  0.61835400  1
  F  F59  1  0.92371100  0.63917900  0.60836000  1
  F  F60  1  0.81362500  0.24711000  0.61835400  1
  F  F61  1  0.09418300  0.59418300  0.75000000  1
  F  F62  1  0.75289000  0.81362500  0.38164600  1
  F  F63  1  0.42371100  0.86082100  0.10836000  1
  F  F64  1  0.01778500  0.78090000  0.76226700  1
  F  F65  1  0.59418300  0.90581700  0.25000000  1
  F  F66  1  0.40581700  0.09418300  0.25000000  1
  F  F67  1  0.98706800  0.19820500  0.47625400  1
  F  F68  1  0.69820500  0.48706800  0.02374600  1
  F  F69  1  0.09936600  0.60525800  0.47152600  1
  F  F70  1  0.24711000  0.18637500  0.38164600  1
  F  F71  1  0.07628900  0.36082100  0.60836000  1
  F  F72  1  0.00000000  0.00000000  0.21302400  1
  F  F73  1  0.98221500  0.21910000  0.76226700  1
  F  F74  1  0.57628900  0.13917900  0.10836000  1
  F  F75  1  0.51293200  0.69820500  0.97625400  1
  F  F76  1  0.48706800  0.30179500  0.97625400  1
  F  F77  1  0.31362500  0.25289000  0.11835400  1
  F  F78  1  0.59936600  0.89474200  0.97152600  1
  F  F79  1  0.40063400  0.10525800  0.97152600  1
  F  F80  1  0.39474200  0.09936600  0.52847400  1
  F  F81  1  0.01293200  0.80179500  0.47625400  1
  F  F82  1  0.13917900  0.42371100  0.89164000  1
  F  F83  1  0.10525800  0.59936600  0.02847400  1
  F  F84  1  0.30179500  0.51293200  0.02374600  1
  F  F85  1  0.86082100  0.57628900  0.89164000  1
  F  F86  1  0.25289000  0.68637500  0.88164600  1
  F  F87  1  0.74711000  0.31362500  0.88164600  1
  F  F88  1  0.71910000  0.48221500  0.73773300  1
  F  F89  1  0.51778500  0.71910000  0.26226700  1
  F  F90  1  0.19820500  0.01293200  0.52374600  1
  F  F91  1  0.28090000  0.51778500  0.73773300  1
  F  F92  1  0.68637500  0.74711000  0.11835400  1
  F  F93  1  0.50000000  0.50000000  0.71302400  1
  F  F94  1  0.60525800  0.90063400  0.52847400  1
  F  F95  1  0.36082100  0.92371100  0.39164000  1
