# generated using pymatgen
data_K4Ba(GeO3)3
_symmetry_space_group_name_H-M   'P 1'
_cell_length_a   8.50608400
_cell_length_b   12.51956600
_cell_length_c   11.56563123
_cell_angle_alpha   90.00000000
_cell_angle_beta   90.49074122
_cell_angle_gamma   90.00000000
_symmetry_Int_Tables_number   1
_chemical_formula_structural   K4Ba(GeO3)3
_chemical_formula_sum   'K16 Ba4 Ge12 O36'
_cell_volume   1231.60757560
_cell_formula_units_Z   4
loop_
 _symmetry_equiv_pos_site_id
 _symmetry_equiv_pos_as_xyz
  1  'x, y, z'
loop_
 _atom_site_type_symbol
 _atom_site_label
 _atom_site_symmetry_multiplicity
 _atom_site_fract_x
 _atom_site_fract_y
 _atom_site_fract_z
 _atom_site_occupancy
  K  K0  1  0.77444400  0.93227900  0.74907100  1
  K  K1  1  0.50000000  0.44989600  0.00000000  1
  K  K2  1  0.22555600  0.93227900  0.25092900  1
  K  K3  1  0.50000000  0.93319800  0.00000000  1
  K  K4  1  0.50000000  0.91314100  0.50000000  1
  K  K5  1  0.55318600  0.13638800  0.25429600  1
  K  K6  1  0.50000000  0.50155200  0.50000000  1
  K  K7  1  0.44681400  0.13638800  0.74570400  1
  K  K8  1  0.27444400  0.43227900  0.74907100  1
  K  K9  1  0.00000000  0.94989600  0.00000000  1
  K  K10  1  0.72555600  0.43227900  0.25092900  1
  K  K11  1  0.00000000  0.43319800  0.00000000  1
  K  K12  1  0.00000000  0.41314100  0.50000000  1
  K  K13  1  0.05318600  0.63638800  0.25429600  1
  K  K14  1  0.00000000  0.00155200  0.50000000  1
  K  K15  1  0.94681400  0.63638800  0.74570400  1
  Ba  Ba16  1  0.49257050  0.69018050  0.22965300  1
  Ba  Ba17  1  0.50742950  0.69018050  0.77034700  1
  Ba  Ba18  1  0.99257050  0.19018050  0.22965300  1
  Ba  Ba19  1  0.00742950  0.19018050  0.77034700  1
  Ge  Ge20  1  0.22145800  0.88876800  0.74190300  1
  Ge  Ge21  1  0.77854200  0.88876800  0.25809700  1
  Ge  Ge22  1  0.30297000  0.21062600  0.47564000  1
  Ge  Ge23  1  0.69600100  0.20351400  0.96911100  1
  Ge  Ge24  1  0.69703000  0.21062600  0.52436000  1
  Ge  Ge25  1  0.30399900  0.20351400  0.03088900  1
  Ge  Ge26  1  0.72145800  0.38876800  0.74190300  1
  Ge  Ge27  1  0.27854200  0.38876800  0.25809700  1
  Ge  Ge28  1  0.80297000  0.71062600  0.47564000  1
  Ge  Ge29  1  0.19600100  0.70351400  0.96911100  1
  Ge  Ge30  1  0.19703000  0.71062600  0.52436000  1
  Ge  Ge31  1  0.80399900  0.70351400  0.03088900  1
  O  O32  1  0.50000000  0.15394000  0.50000000  1
  O  O33  1  0.90029000  0.99770700  0.23916900  1
  O  O34  1  0.09971000  0.99770700  0.76083100  1
  O  O35  1  0.16994850  0.83846250  0.59814000  1
  O  O36  1  0.50000000  0.15093300  0.00000000  1
  O  O37  1  0.72958450  0.78064650  0.91769000  1
  O  O38  1  0.34591350  0.28606750  0.15863600  1
  O  O39  1  0.83005150  0.83846250  0.40186000  1
  O  O40  1  0.65408650  0.28606750  0.84136400  1
  O  O41  1  0.19962600  0.09308300  0.07816300  1
  O  O42  1  0.57448900  0.90785700  0.24905900  1
  O  O43  1  0.78711200  0.11693200  0.61435700  1
  O  O44  1  0.21288800  0.11693200  0.38564300  1
  O  O45  1  0.71809650  0.74351050  0.60781600  1
  O  O46  1  0.27041550  0.78064650  0.08231000  1
  O  O47  1  0.80037400  0.09308300  0.92183700  1
  O  O48  1  0.28190350  0.74351050  0.39218400  1
  O  O49  1  0.42551100  0.90785700  0.75094100  1
  O  O50  1  0.00000000  0.65394000  0.50000000  1
  O  O51  1  0.40029000  0.49770700  0.23916900  1
  O  O52  1  0.59971000  0.49770700  0.76083100  1
  O  O53  1  0.66994850  0.33846250  0.59814000  1
  O  O54  1  0.00000000  0.65093300  0.00000000  1
  O  O55  1  0.22958450  0.28064650  0.91769000  1
  O  O56  1  0.84591350  0.78606750  0.15863600  1
  O  O57  1  0.33005150  0.33846250  0.40186000  1
  O  O58  1  0.15408650  0.78606750  0.84136400  1
  O  O59  1  0.69962600  0.59308300  0.07816300  1
  O  O60  1  0.07448900  0.40785700  0.24905900  1
  O  O61  1  0.28711200  0.61693200  0.61435700  1
  O  O62  1  0.71288800  0.61693200  0.38564300  1
  O  O63  1  0.21809650  0.24351050  0.60781600  1
  O  O64  1  0.77041550  0.28064650  0.08231000  1
  O  O65  1  0.30037400  0.59308300  0.92183700  1
  O  O66  1  0.78190350  0.24351050  0.39218400  1
  O  O67  1  0.92551100  0.40785700  0.75094100  1
