# generated using pymatgen
data_Na2CaSiO4
_symmetry_space_group_name_H-M   'P 1'
_cell_length_a   7.54125000
_cell_length_b   7.54125000
_cell_length_c   7.54125000
_cell_angle_alpha   90.00000000
_cell_angle_beta   90.00000000
_cell_angle_gamma   90.00000000
_symmetry_Int_Tables_number   1
_chemical_formula_structural   Na2CaSiO4
_chemical_formula_sum   'Na8 Ca4 Si4 O16'
_cell_volume   428.87429285
_cell_formula_units_Z   4
loop_
 _symmetry_equiv_pos_site_id
 _symmetry_equiv_pos_as_xyz
  1  'x, y, z'
loop_
 _atom_site_type_symbol
 _atom_site_label
 _atom_site_symmetry_multiplicity
 _atom_site_fract_x
 _atom_site_fract_y
 _atom_site_fract_z
 _atom_site_occupancy
  Na  Na0  1  0.99263600  0.00736400  0.50736400  1
  Na  Na1  1  0.22513600  0.77486400  0.27486400  1
  Na  Na2  1  0.72513600  0.72513600  0.72513600  1
  Na  Na3  1  0.00736400  0.50736400  0.99263600  1
  Na  Na4  1  0.49263600  0.49263600  0.49263600  1
  Na  Na5  1  0.77486400  0.27486400  0.22513600  1
  Na  Na6  1  0.50736400  0.99263600  0.00736400  1
  Na  Na7  1  0.27486400  0.22513600  0.77486400  1
  Ca  Ca8  1  0.03778600  0.46221400  0.53778600  1
  Ca  Ca9  1  0.96221400  0.96221400  0.96221400  1
  Ca  Ca10  1  0.46221400  0.53778600  0.03778600  1
  Ca  Ca11  1  0.53778600  0.03778600  0.46221400  1
  Si  Si12  1  0.25792200  0.25792200  0.25792200  1
  Si  Si13  1  0.74207800  0.75792200  0.24207800  1
  Si  Si14  1  0.24207800  0.74207800  0.75792200  1
  Si  Si15  1  0.75792200  0.24207800  0.74207800  1
  O  O16  1  0.86645300  0.63354700  0.36645300  1
  O  O17  1  0.47094000  0.23498900  0.20951000  1
  O  O18  1  0.76501100  0.70951000  0.02906000  1
  O  O19  1  0.23498900  0.20951000  0.47094000  1
  O  O20  1  0.13354700  0.13354700  0.13354700  1
  O  O21  1  0.97094000  0.26501100  0.79049000  1
  O  O22  1  0.02906000  0.76501100  0.70951000  1
  O  O23  1  0.52906000  0.73498900  0.29049000  1
  O  O24  1  0.63354700  0.36645300  0.86645300  1
  O  O25  1  0.79049000  0.97094000  0.26501100  1
  O  O26  1  0.29049000  0.52906000  0.73498900  1
  O  O27  1  0.70951000  0.02906000  0.76501100  1
  O  O28  1  0.36645300  0.86645300  0.63354700  1
  O  O29  1  0.26501100  0.79049000  0.97094000  1
  O  O30  1  0.20951000  0.47094000  0.23498900  1
  O  O31  1  0.73498900  0.29049000  0.52906000  1
