# generated using pymatgen
data_SrBiClO2
_symmetry_space_group_name_H-M   'P 1'
_cell_length_a   5.79314400
_cell_length_b   12.71781800
_cell_length_c   5.68054400
_cell_angle_alpha   90.00000000
_cell_angle_beta   90.00000000
_cell_angle_gamma   90.00000000
_symmetry_Int_Tables_number   1
_chemical_formula_structural   SrBiClO2
_chemical_formula_sum   'Sr4 Bi4 Cl4 O8'
_cell_volume   418.52061773
_cell_formula_units_Z   4
loop_
 _symmetry_equiv_pos_site_id
 _symmetry_equiv_pos_as_xyz
  1  'x, y, z'
loop_
 _atom_site_type_symbol
 _atom_site_label
 _atom_site_symmetry_multiplicity
 _atom_site_fract_x
 _atom_site_fract_y
 _atom_site_fract_z
 _atom_site_occupancy
  Sr  Sr0  1  0.00000000  0.10797800  0.25000000  1
  Sr  Sr1  1  0.50000000  0.39202200  0.75000000  1
  Sr  Sr2  1  0.50000000  0.60797800  0.25000000  1
  Sr  Sr3  1  0.00000000  0.89202200  0.75000000  1
  Bi  Bi4  1  0.50000000  0.08071200  0.75000000  1
  Bi  Bi5  1  0.00000000  0.41928800  0.25000000  1
  Bi  Bi6  1  0.00000000  0.58071200  0.75000000  1
  Bi  Bi7  1  0.50000000  0.91928800  0.25000000  1
  Cl  Cl8  1  0.00000000  0.24438500  0.75000000  1
  Cl  Cl9  1  0.50000000  0.25561500  0.25000000  1
  Cl  Cl10  1  0.50000000  0.74438500  0.75000000  1
  Cl  Cl11  1  0.00000000  0.75561500  0.25000000  1
  O  O12  1  0.73541900  0.00000000  0.50000000  1
  O  O13  1  0.73541900  0.00000000  0.00000000  1
  O  O14  1  0.26458100  0.00000000  0.00000000  1
  O  O15  1  0.26458100  0.00000000  0.50000000  1
  O  O16  1  0.23541900  0.50000000  0.50000000  1
  O  O17  1  0.23541900  0.50000000  0.00000000  1
  O  O18  1  0.76458100  0.50000000  0.00000000  1
  O  O19  1  0.76458100  0.50000000  0.50000000  1
