# generated using pymatgen
data_RbNa3SnO4
_symmetry_space_group_name_H-M   'P 1'
_cell_length_a   12.96651200
_cell_length_b   12.96651200
_cell_length_c   15.26187000
_cell_angle_alpha   90.00000000
_cell_angle_beta   90.00000000
_cell_angle_gamma   90.00000000
_symmetry_Int_Tables_number   1
_chemical_formula_structural   RbNa3SnO4
_chemical_formula_sum   'Rb16 Na48 Sn16 O64'
_cell_volume   2565.98481830
_cell_formula_units_Z   16
loop_
 _symmetry_equiv_pos_site_id
 _symmetry_equiv_pos_as_xyz
  1  'x, y, z'
loop_
 _atom_site_type_symbol
 _atom_site_label
 _atom_site_symmetry_multiplicity
 _atom_site_fract_x
 _atom_site_fract_y
 _atom_site_fract_z
 _atom_site_occupancy
  Rb  Rb0  1  0.23071300  0.23635700  0.70861500  1
  Rb  Rb1  1  0.23635700  0.26928700  0.95861500  1
  Rb  Rb2  1  0.26928700  0.26364300  0.20861500  1
  Rb  Rb3  1  0.23635700  0.76928700  0.29138500  1
  Rb  Rb4  1  0.76928700  0.26364300  0.54138500  1
  Rb  Rb5  1  0.26364300  0.73071300  0.79138500  1
  Rb  Rb6  1  0.73071300  0.23635700  0.04138500  1
  Rb  Rb7  1  0.26364300  0.23071300  0.45861500  1
  Rb  Rb8  1  0.73071300  0.73635700  0.20861500  1
  Rb  Rb9  1  0.73635700  0.76928700  0.45861500  1
  Rb  Rb10  1  0.76928700  0.76364300  0.70861500  1
  Rb  Rb11  1  0.73635700  0.26928700  0.79138500  1
  Rb  Rb12  1  0.26928700  0.76364300  0.04138500  1
  Rb  Rb13  1  0.76364300  0.23071300  0.29138500  1
  Rb  Rb14  1  0.23071300  0.73635700  0.54138500  1
  Rb  Rb15  1  0.76364300  0.73071300  0.95861500  1
  Na  Na16  1  0.46972900  0.84066800  0.18911400  1
  Na  Na17  1  0.49666250  0.36337750  0.30393050  1
  Na  Na18  1  0.36337750  0.00333750  0.55393050  1
  Na  Na19  1  0.15933200  0.96972900  0.43911400  1
  Na  Na20  1  0.99666250  0.36337750  0.44606950  1
  Na  Na21  1  0.84185200  0.52203300  0.31813900  1
  Na  Na22  1  0.46972900  0.34066800  0.06088600  1
  Na  Na23  1  0.65814800  0.47796700  0.43186100  1
  Na  Na24  1  0.65933200  0.96972900  0.31088600  1
  Na  Na25  1  0.13662250  0.99666250  0.19606950  1
  Na  Na26  1  0.50333750  0.13662250  0.94606950  1
  Na  Na27  1  0.02203300  0.65814800  0.18186100  1
  Na  Na28  1  0.97796700  0.84185200  0.06813900  1
  Na  Na29  1  0.15814800  0.47796700  0.31813900  1
  Na  Na30  1  0.00333750  0.13662250  0.80393050  1
  Na  Na31  1  0.34185200  0.52203300  0.43186100  1
  Na  Na32  1  0.34066800  0.53027100  0.93911400  1
  Na  Na33  1  0.36337750  0.50333750  0.69606950  1
  Na  Na34  1  0.13662250  0.49666250  0.05393050  1
  Na  Na35  1  0.03027100  0.15933200  0.56088600  1
  Na  Na36  1  0.34066800  0.03027100  0.31088600  1
  Na  Na37  1  0.53027100  0.15933200  0.18911400  1
  Na  Na38  1  0.97796700  0.34185200  0.18186100  1
  Na  Na39  1  0.02203300  0.15814800  0.06813900  1
  Na  Na40  1  0.96972900  0.34066800  0.68911400  1
  Na  Na41  1  0.99666250  0.86337750  0.80393050  1
  Na  Na42  1  0.86337750  0.50333750  0.05393050  1
  Na  Na43  1  0.65933200  0.46972900  0.93911400  1
  Na  Na44  1  0.49666250  0.86337750  0.94606950  1
  Na  Na45  1  0.34185200  0.02203300  0.81813900  1
  Na  Na46  1  0.96972900  0.84066800  0.56088600  1
  Na  Na47  1  0.15814800  0.97796700  0.93186100  1
  Na  Na48  1  0.15933200  0.46972900  0.81088600  1
  Na  Na49  1  0.63662250  0.49666250  0.69606950  1
  Na  Na50  1  0.00333750  0.63662250  0.44606950  1
  Na  Na51  1  0.52203300  0.15814800  0.68186100  1
  Na  Na52  1  0.47796700  0.34185200  0.56813900  1
  Na  Na53  1  0.65814800  0.97796700  0.81813900  1
  Na  Na54  1  0.50333750  0.63662250  0.30393050  1
  Na  Na55  1  0.84185200  0.02203300  0.93186100  1
  Na  Na56  1  0.84066800  0.03027100  0.43911400  1
  Na  Na57  1  0.86337750  0.00333750  0.19606950  1
  Na  Na58  1  0.63662250  0.99666250  0.55393050  1
  Na  Na59  1  0.53027100  0.65933200  0.06088600  1
  Na  Na60  1  0.84066800  0.53027100  0.81088600  1
  Na  Na61  1  0.03027100  0.65933200  0.68911400  1
  Na  Na62  1  0.47796700  0.84185200  0.68186100  1
  Na  Na63  1  0.52203300  0.65814800  0.56813900  1
  Sn  Sn64  1  0.17654350  0.96294450  0.67966950  1
  Sn  Sn65  1  0.46294450  0.82345650  0.42966950  1
  Sn  Sn66  1  0.32345650  0.53705550  0.17966950  1
  Sn  Sn67  1  0.46294450  0.32345650  0.82033050  1
  Sn  Sn68  1  0.32345650  0.03705550  0.07033050  1
  Sn  Sn69  1  0.53705550  0.17654350  0.42966950  1
  Sn  Sn70  1  0.67654350  0.96294450  0.07033050  1
  Sn  Sn71  1  0.03705550  0.17654350  0.32033050  1
  Sn  Sn72  1  0.67654350  0.46294450  0.17966950  1
  Sn  Sn73  1  0.96294450  0.32345650  0.92966950  1
  Sn  Sn74  1  0.82345650  0.03705550  0.67966950  1
  Sn  Sn75  1  0.96294450  0.82345650  0.32033050  1
  Sn  Sn76  1  0.82345650  0.53705550  0.57033050  1
  Sn  Sn77  1  0.03705550  0.67654350  0.92966950  1
  Sn  Sn78  1  0.17654350  0.46294450  0.57033050  1
  Sn  Sn79  1  0.53705550  0.67654350  0.82033050  1
  O  O80  1  0.15050600  0.03976700  0.79067000  1
  O  O81  1  0.94627000  0.17434000  0.42574800  1
  O  O82  1  0.33577950  0.40934250  0.82661150  1
  O  O83  1  0.33577950  0.90934250  0.42338850  1
  O  O84  1  0.96023300  0.15050600  0.20933000  1
  O  O85  1  0.53976700  0.34949400  0.70933000  1
  O  O86  1  0.90934250  0.16422050  0.67338850  1
  O  O87  1  0.32566000  0.44627000  0.07425200  1
  O  O88  1  0.96023300  0.65050600  0.04067000  1
  O  O89  1  0.55373000  0.82566000  0.32425200  1
  O  O90  1  0.07934500  0.82445400  0.94001900  1
  O  O91  1  0.44627000  0.17434000  0.32425200  1
  O  O92  1  0.55373000  0.32566000  0.92574800  1
  O  O93  1  0.15050600  0.53976700  0.45933000  1
  O  O94  1  0.40934250  0.16422050  0.07661150  1
  O  O95  1  0.17554600  0.57934500  0.19001900  1
  O  O96  1  0.34949400  0.46023300  0.29067000  1
  O  O97  1  0.32445400  0.42065500  0.55998100  1
  O  O98  1  0.42065500  0.67554600  0.44001900  1
  O  O99  1  0.84949400  0.46023300  0.45933000  1
  O  O100  1  0.09065750  0.33577950  0.57661150  1
  O  O101  1  0.07934500  0.32445400  0.30998100  1
  O  O102  1  0.82445400  0.42065500  0.19001900  1
  O  O103  1  0.17554600  0.07934500  0.05998100  1
  O  O104  1  0.67434000  0.05373000  0.17574800  1
  O  O105  1  0.17434000  0.05373000  0.57425200  1
  O  O106  1  0.59065750  0.33577950  0.17338850  1
  O  O107  1  0.92065500  0.67554600  0.30998100  1
  O  O108  1  0.16422050  0.09065750  0.32661150  1
  O  O109  1  0.32566000  0.94627000  0.17574800  1
  O  O110  1  0.03976700  0.34949400  0.04067000  1
  O  O111  1  0.16422050  0.59065750  0.92338850  1
  O  O112  1  0.65050600  0.53976700  0.29067000  1
  O  O113  1  0.44627000  0.67434000  0.92574800  1
  O  O114  1  0.83577950  0.90934250  0.32661150  1
  O  O115  1  0.83577950  0.40934250  0.92338850  1
  O  O116  1  0.46023300  0.65050600  0.70933000  1
  O  O117  1  0.03976700  0.84949400  0.20933000  1
  O  O118  1  0.40934250  0.66422050  0.17338850  1
  O  O119  1  0.82566000  0.94627000  0.57425200  1
  O  O120  1  0.46023300  0.15050600  0.54067000  1
  O  O121  1  0.05373000  0.32566000  0.82425200  1
  O  O122  1  0.57934500  0.32445400  0.44001900  1
  O  O123  1  0.94627000  0.67434000  0.82425200  1
  O  O124  1  0.05373000  0.82566000  0.42574800  1
  O  O125  1  0.65050600  0.03976700  0.95933000  1
  O  O126  1  0.90934250  0.66422050  0.57661150  1
  O  O127  1  0.67554600  0.07934500  0.69001900  1
  O  O128  1  0.84949400  0.96023300  0.79067000  1
  O  O129  1  0.82445400  0.92065500  0.05998100  1
  O  O130  1  0.92065500  0.17554600  0.94001900  1
  O  O131  1  0.34949400  0.96023300  0.95933000  1
  O  O132  1  0.59065750  0.83577950  0.07661150  1
  O  O133  1  0.57934500  0.82445400  0.80998100  1
  O  O134  1  0.32445400  0.92065500  0.69001900  1
  O  O135  1  0.67554600  0.57934500  0.55998100  1
  O  O136  1  0.17434000  0.55373000  0.67574800  1
  O  O137  1  0.67434000  0.55373000  0.07425200  1
  O  O138  1  0.09065750  0.83577950  0.67338850  1
  O  O139  1  0.42065500  0.17554600  0.80998100  1
  O  O140  1  0.66422050  0.59065750  0.82661150  1
  O  O141  1  0.82566000  0.44627000  0.67574800  1
  O  O142  1  0.53976700  0.84949400  0.54067000  1
  O  O143  1  0.66422050  0.09065750  0.42338850  1
