# generated using pymatgen
data_Ba3Lu4O9
_symmetry_space_group_name_H-M   'P 1'
_cell_length_a   6.02772510
_cell_length_b   6.02772510
_cell_length_c   25.06488738
_cell_angle_alpha   90.00000000
_cell_angle_beta   90.00000000
_cell_angle_gamma   120.00000000
_symmetry_Int_Tables_number   1
_chemical_formula_structural   Ba3Lu4O9
_chemical_formula_sum   'Ba9 Lu12 O27'
_cell_volume   788.68442607
_cell_formula_units_Z   3
loop_
 _symmetry_equiv_pos_site_id
 _symmetry_equiv_pos_as_xyz
  1  'x, y, z'
loop_
 _atom_site_type_symbol
 _atom_site_label
 _atom_site_symmetry_multiplicity
 _atom_site_fract_x
 _atom_site_fract_y
 _atom_site_fract_z
 _atom_site_occupancy
  Ba  Ba0  1  0.66666667  0.33333333  0.33065533  1
  Ba  Ba1  1  0.00000000  0.00000000  0.16133700  1
  Ba  Ba2  1  0.33333333  0.66666667  0.24814767  1
  Ba  Ba3  1  0.33333333  0.66666667  0.66398867  1
  Ba  Ba4  1  0.66666667  0.33333333  0.49467033  1
  Ba  Ba5  1  0.00000000  0.00000000  0.58148100  1
  Ba  Ba6  1  0.00000000  0.00000000  0.99732200  1
  Ba  Ba7  1  0.33333333  0.66666667  0.82800367  1
  Ba  Ba8  1  0.66666667  0.33333333  0.91481433  1
  Lu  Lu9  1  0.33333333  0.66666667  0.08882367  1
  Lu  Lu10  1  0.66666667  0.33333333  0.19402833  1
  Lu  Lu11  1  0.66666667  0.33333333  0.06985233  1
  Lu  Lu12  1  0.00000000  0.00000000  0.29784500  1
  Lu  Lu13  1  0.00000000  0.00000000  0.42215700  1
  Lu  Lu14  1  0.33333333  0.66666667  0.52736167  1
  Lu  Lu15  1  0.33333333  0.66666667  0.40318567  1
  Lu  Lu16  1  0.66666667  0.33333333  0.63117833  1
  Lu  Lu17  1  0.66666667  0.33333333  0.75549033  1
  Lu  Lu18  1  0.00000000  0.00000000  0.86069500  1
  Lu  Lu19  1  0.00000000  0.00000000  0.73651900  1
  Lu  Lu20  1  0.33333333  0.66666667  0.96451167  1
  O  O21  1  0.82848800  0.16152900  0.24586000  1
  O  O22  1  0.33304100  0.17151200  0.24586000  1
  O  O23  1  0.83847100  0.66695900  0.24586000  1
  O  O24  1  0.98759633  0.51660267  0.13519667  1
  O  O25  1  0.52900633  0.01240367  0.13519667  1
  O  O26  1  0.48339733  0.47099367  0.13519667  1
  O  O27  1  0.01129400  0.54010600  0.02272500  1
  O  O28  1  0.52881200  0.98870600  0.02272500  1
  O  O29  1  0.45989400  0.47118800  0.02272500  1
  O  O30  1  0.49515467  0.49486233  0.57919333  1
  O  O31  1  0.99970767  0.50484533  0.57919333  1
  O  O32  1  0.50513767  0.00029233  0.57919333  1
  O  O33  1  0.65426300  0.84993600  0.46853000  1
  O  O34  1  0.19567300  0.34573700  0.46853000  1
  O  O35  1  0.15006400  0.80432700  0.46853000  1
  O  O36  1  0.67796067  0.87343933  0.35605833  1
  O  O37  1  0.19547867  0.32203933  0.35605833  1
  O  O38  1  0.12656067  0.80452133  0.35605833  1
  O  O39  1  0.16182133  0.82819567  0.91252667  1
  O  O40  1  0.66637433  0.83817867  0.91252667  1
  O  O41  1  0.17180433  0.33362567  0.91252667  1
  O  O42  1  0.32092967  0.18326933  0.80186333  1
  O  O43  1  0.86233967  0.67907033  0.80186333  1
  O  O44  1  0.81673067  0.13766033  0.80186333  1
  O  O45  1  0.34462733  0.20677267  0.68939167  1
  O  O46  1  0.86214533  0.65537267  0.68939167  1
  O  O47  1  0.79322733  0.13785467  0.68939167  1
