# generated using pymatgen
data_Cs3Zr7BCl20
_symmetry_space_group_name_H-M   'P 1'
_cell_length_a   13.14032990
_cell_length_b   13.14032990
_cell_length_c   35.41583904
_cell_angle_alpha   90.00000000
_cell_angle_beta   90.00000000
_cell_angle_gamma   120.00000000
_symmetry_Int_Tables_number   1
_chemical_formula_structural   Cs3Zr7BCl20
_chemical_formula_sum   'Cs18 Zr42 B6 Cl120'
_cell_volume   5295.91131847
_cell_formula_units_Z   6
loop_
 _symmetry_equiv_pos_site_id
 _symmetry_equiv_pos_as_xyz
  1  'x, y, z'
loop_
 _atom_site_type_symbol
 _atom_site_label
 _atom_site_symmetry_multiplicity
 _atom_site_fract_x
 _atom_site_fract_y
 _atom_site_fract_z
 _atom_site_occupancy
  Cs  Cs0  1  0.00000000  0.50000000  0.00000000  1
  Cs  Cs1  1  0.50000000  0.50000000  0.00000000  1
  Cs  Cs2  1  0.83333333  0.16666667  0.16666667  1
  Cs  Cs3  1  0.50000000  0.00000000  0.00000000  1
  Cs  Cs4  1  0.83333333  0.66666667  0.16666667  1
  Cs  Cs5  1  0.33333333  0.16666667  0.16666667  1
  Cs  Cs6  1  0.66666667  0.83333333  0.33333333  1
  Cs  Cs7  1  0.16666667  0.83333333  0.33333333  1
  Cs  Cs8  1  0.50000000  0.50000000  0.50000000  1
  Cs  Cs9  1  0.16666667  0.33333333  0.33333333  1
  Cs  Cs10  1  0.50000000  0.00000000  0.50000000  1
  Cs  Cs11  1  0.00000000  0.50000000  0.50000000  1
  Cs  Cs12  1  0.33333333  0.16666667  0.66666667  1
  Cs  Cs13  1  0.83333333  0.16666667  0.66666667  1
  Cs  Cs14  1  0.16666667  0.83333333  0.83333333  1
  Cs  Cs15  1  0.83333333  0.66666667  0.66666667  1
  Cs  Cs16  1  0.16666667  0.33333333  0.83333333  1
  Cs  Cs17  1  0.66666667  0.83333333  0.83333333  1
  Zr  Zr18  1  0.32150200  0.51691700  0.12861100  1
  Zr  Zr19  1  0.47125167  0.65483533  0.20472233  1
  Zr  Zr20  1  0.18358367  0.52874833  0.20472233  1
  Zr  Zr21  1  0.52874833  0.18358367  0.29527767  1
  Zr  Zr22  1  0.00000000  0.00000000  0.25000000  1
  Zr  Zr23  1  0.19541500  0.67849800  0.12861100  1
  Zr  Zr24  1  0.85025033  0.98816867  0.03805567  1
  Zr  Zr25  1  0.13791833  0.14974967  0.03805567  1
  Zr  Zr26  1  0.01183133  0.86208167  0.03805567  1
  Zr  Zr27  1  0.34516467  0.81641633  0.20472233  1
  Zr  Zr28  1  0.81641633  0.34516467  0.29527767  1
  Zr  Zr29  1  0.48308300  0.80458500  0.12861100  1
  Zr  Zr30  1  0.65483533  0.47125167  0.29527767  1
  Zr  Zr31  1  0.66666667  0.33333333  0.08333333  1
  Zr  Zr32  1  0.98816867  0.85025033  0.46194433  1
  Zr  Zr33  1  0.13791833  0.98816867  0.53805567  1
  Zr  Zr34  1  0.85025033  0.86208167  0.53805567  1
  Zr  Zr35  1  0.19541500  0.51691700  0.62861100  1
  Zr  Zr36  1  0.66666667  0.33333333  0.58333333  1
  Zr  Zr37  1  0.86208167  0.01183133  0.46194433  1
  Zr  Zr38  1  0.51691700  0.32150200  0.37138900  1
  Zr  Zr39  1  0.80458500  0.48308300  0.37138900  1
  Zr  Zr40  1  0.67849800  0.19541500  0.37138900  1
  Zr  Zr41  1  0.01183133  0.14974967  0.53805567  1
  Zr  Zr42  1  0.48308300  0.67849800  0.62861100  1
  Zr  Zr43  1  0.14974967  0.13791833  0.46194433  1
  Zr  Zr44  1  0.32150200  0.80458500  0.62861100  1
  Zr  Zr45  1  0.33333333  0.66666667  0.41666667  1
  Zr  Zr46  1  0.65483533  0.18358367  0.79527767  1
  Zr  Zr47  1  0.80458500  0.32150200  0.87138900  1
  Zr  Zr48  1  0.51691700  0.19541500  0.87138900  1
  Zr  Zr49  1  0.86208167  0.85025033  0.96194433  1
  Zr  Zr50  1  0.33333333  0.66666667  0.91666667  1
  Zr  Zr51  1  0.52874833  0.34516467  0.79527767  1
  Zr  Zr52  1  0.18358367  0.65483533  0.70472233  1
  Zr  Zr53  1  0.47125167  0.81641633  0.70472233  1
  Zr  Zr54  1  0.34516467  0.52874833  0.70472233  1
  Zr  Zr55  1  0.67849800  0.48308300  0.87138900  1
  Zr  Zr56  1  0.14974967  0.01183133  0.96194433  1
  Zr  Zr57  1  0.81641633  0.47125167  0.79527767  1
  Zr  Zr58  1  0.98816867  0.13791833  0.96194433  1
  Zr  Zr59  1  0.00000000  0.00000000  0.75000000  1
  B  B60  1  0.00000000  0.00000000  0.00000000  1
  B  B61  1  0.33333333  0.66666667  0.16666667  1
  B  B62  1  0.66666667  0.33333333  0.33333333  1
  B  B63  1  0.00000000  0.00000000  0.50000000  1
  B  B64  1  0.33333333  0.66666667  0.66666667  1
  B  B65  1  0.66666667  0.33333333  0.83333333  1
  Cl  Cl66  1  0.31769833  0.17574867  0.00057867  1
  Cl  Cl67  1  0.84241533  0.19138367  0.33275467  1
  Cl  Cl68  1  0.32072533  0.50229667  0.24999967  1
  Cl  Cl69  1  0.66666667  0.33333333  0.15302533  1
  Cl  Cl70  1  0.16896333  0.51490467  0.08333367  1
  Cl  Cl71  1  0.49770333  0.81842867  0.24999967  1
  Cl  Cl72  1  0.34594133  0.83103667  0.08333367  1
  Cl  Cl73  1  0.65103167  0.80861633  0.16724533  1
  Cl  Cl74  1  0.98739200  0.15176200  0.08333300  1
  Cl  Cl75  1  0.36156600  0.00000000  0.25000000  1
  Cl  Cl76  1  0.18157133  0.67927467  0.24999967  1
  Cl  Cl77  1  0.18193300  0.18193300  0.25000000  1
  Cl  Cl78  1  0.81806700  0.00000000  0.25000000  1
  Cl  Cl79  1  0.00000000  0.00000000  0.18030800  1
  Cl  Cl80  1  0.34896833  0.15758467  0.33275467  1
  Cl  Cl81  1  0.00000000  0.36156600  0.25000000  1
  Cl  Cl82  1  0.66666667  0.51526633  0.08333333  1
  Cl  Cl83  1  0.80861633  0.65103167  0.33275467  1
  Cl  Cl84  1  0.50908200  0.98436500  0.16608800  1
  Cl  Cl85  1  0.01563500  0.52471700  0.16608800  1
  Cl  Cl86  1  0.50229667  0.32072533  0.25000033  1
  Cl  Cl87  1  0.48473367  0.15140033  0.08333333  1
  Cl  Cl88  1  0.00000000  0.81806700  0.25000000  1
  Cl  Cl89  1  0.47528300  0.49091800  0.16608800  1
  Cl  Cl90  1  0.84859967  0.33333333  0.08333333  1
  Cl  Cl91  1  0.67927467  0.18157133  0.25000033  1
  Cl  Cl92  1  0.16437000  0.01260800  0.08333300  1
  Cl  Cl93  1  0.19138367  0.84241533  0.16724533  1
  Cl  Cl94  1  0.00000000  0.00000000  0.31969200  1
  Cl  Cl95  1  0.63843400  0.63843400  0.25000000  1
  Cl  Cl96  1  0.66666667  0.33333333  0.01364133  1
  Cl  Cl97  1  0.48509533  0.65405867  0.08333367  1
  Cl  Cl98  1  0.30510067  0.33333333  0.08333333  1
  Cl  Cl99  1  0.84823800  0.83563000  0.08333300  1
  Cl  Cl100  1  0.81842867  0.49770333  0.25000033  1
  Cl  Cl101  1  0.66666667  0.97176733  0.08333333  1
  Cl  Cl102  1  0.02823267  0.69489933  0.08333333  1
  Cl  Cl103  1  0.82425133  0.14194967  0.00057867  1
  Cl  Cl104  1  0.15758467  0.34896833  0.16724533  1
  Cl  Cl105  1  0.85805033  0.68230167  0.00057867  1
  Cl  Cl106  1  0.98436500  0.50908200  0.33391200  1
  Cl  Cl107  1  0.50908200  0.52471700  0.66608800  1
  Cl  Cl108  1  0.98739200  0.83563000  0.58333300  1
  Cl  Cl109  1  0.33333333  0.66666667  0.48635867  1
  Cl  Cl110  1  0.83563000  0.84823800  0.41666700  1
  Cl  Cl111  1  0.16437000  0.15176200  0.58333300  1
  Cl  Cl112  1  0.01260800  0.16437000  0.41666700  1
  Cl  Cl113  1  0.31769833  0.14194967  0.50057867  1
  Cl  Cl114  1  0.65405867  0.48509533  0.41666633  1
  Cl  Cl115  1  0.02823267  0.33333333  0.58333333  1
  Cl  Cl116  1  0.84823800  0.01260800  0.58333300  1
  Cl  Cl117  1  0.84859967  0.51526633  0.58333333  1
  Cl  Cl118  1  0.48473367  0.33333333  0.58333333  1
  Cl  Cl119  1  0.66666667  0.33333333  0.51364133  1
  Cl  Cl120  1  0.01563500  0.49091800  0.66608800  1
  Cl  Cl121  1  0.66666667  0.69489933  0.58333333  1
  Cl  Cl122  1  0.33333333  0.84859967  0.41666667  1
  Cl  Cl123  1  0.47528300  0.98436500  0.66608800  1
  Cl  Cl124  1  0.17574867  0.31769833  0.49942133  1
  Cl  Cl125  1  0.68230167  0.85805033  0.49942133  1
  Cl  Cl126  1  0.16896333  0.65405867  0.58333367  1
  Cl  Cl127  1  0.15140033  0.48473367  0.41666667  1
  Cl  Cl128  1  0.66666667  0.15140033  0.58333333  1
  Cl  Cl129  1  0.14194967  0.82425133  0.49942133  1
  Cl  Cl130  1  0.51526633  0.66666667  0.41666667  1
  Cl  Cl131  1  0.34594133  0.51490467  0.58333367  1
  Cl  Cl132  1  0.83103667  0.34594133  0.41666633  1
  Cl  Cl133  1  0.85805033  0.17574867  0.50057867  1
  Cl  Cl134  1  0.66666667  0.33333333  0.65302533  1
  Cl  Cl135  1  0.30510067  0.97176733  0.58333333  1
  Cl  Cl136  1  0.33333333  0.66666667  0.34697467  1
  Cl  Cl137  1  0.15176200  0.98739200  0.41666700  1
  Cl  Cl138  1  0.97176733  0.66666667  0.41666667  1
  Cl  Cl139  1  0.51490467  0.16896333  0.41666633  1
  Cl  Cl140  1  0.48509533  0.83103667  0.58333367  1
  Cl  Cl141  1  0.33333333  0.30510067  0.41666667  1
  Cl  Cl142  1  0.69489933  0.02823267  0.41666667  1
  Cl  Cl143  1  0.49091800  0.47528300  0.33391200  1
  Cl  Cl144  1  0.82425133  0.68230167  0.50057867  1
  Cl  Cl145  1  0.52471700  0.01563500  0.33391200  1
  Cl  Cl146  1  0.65103167  0.84241533  0.66724533  1
  Cl  Cl147  1  0.17574867  0.85805033  0.99942133  1
  Cl  Cl148  1  0.65405867  0.16896333  0.91666633  1
  Cl  Cl149  1  0.00000000  0.00000000  0.81969200  1
  Cl  Cl150  1  0.50229667  0.18157133  0.75000033  1
  Cl  Cl151  1  0.83103667  0.48509533  0.91666633  1
  Cl  Cl152  1  0.67927467  0.49770333  0.75000033  1
  Cl  Cl153  1  0.98436500  0.47528300  0.83391200  1
  Cl  Cl154  1  0.32072533  0.81842867  0.74999967  1
  Cl  Cl155  1  0.69489933  0.66666667  0.91666667  1
  Cl  Cl156  1  0.51490467  0.34594133  0.91666633  1
  Cl  Cl157  1  0.51526633  0.84859967  0.91666667  1
  Cl  Cl158  1  0.15140033  0.66666667  0.91666667  1
  Cl  Cl159  1  0.33333333  0.66666667  0.84697467  1
  Cl  Cl160  1  0.68230167  0.82425133  0.99942133  1
  Cl  Cl161  1  0.33333333  0.02823267  0.91666667  1
  Cl  Cl162  1  0.00000000  0.18193300  0.75000000  1
  Cl  Cl163  1  0.14194967  0.31769833  0.99942133  1
  Cl  Cl164  1  0.84241533  0.65103167  0.83275467  1
  Cl  Cl165  1  0.34896833  0.19138367  0.83275467  1
  Cl  Cl166  1  0.83563000  0.98739200  0.91666700  1
  Cl  Cl167  1  0.81806700  0.81806700  0.75000000  1
  Cl  Cl168  1  0.33333333  0.48473367  0.91666667  1
  Cl  Cl169  1  0.80861633  0.15758467  0.83275467  1
  Cl  Cl170  1  0.18193300  0.00000000  0.75000000  1
  Cl  Cl171  1  0.01260800  0.84823800  0.91666700  1
  Cl  Cl172  1  0.49770333  0.67927467  0.74999967  1
  Cl  Cl173  1  0.52471700  0.50908200  0.83391200  1
  Cl  Cl174  1  0.33333333  0.66666667  0.98635867  1
  Cl  Cl175  1  0.97176733  0.30510067  0.91666667  1
  Cl  Cl176  1  0.00000000  1.00000000  0.68030800  1
  Cl  Cl177  1  0.81842867  0.32072533  0.75000033  1
  Cl  Cl178  1  0.63843400  0.00000000  0.75000000  1
  Cl  Cl179  1  0.18157133  0.50229667  0.74999967  1
  Cl  Cl180  1  0.15176200  0.16437000  0.91666700  1
  Cl  Cl181  1  0.00000000  0.63843400  0.75000000  1
  Cl  Cl182  1  0.36156600  0.36156600  0.75000000  1
  Cl  Cl183  1  0.15758467  0.80861633  0.66724533  1
  Cl  Cl184  1  0.49091800  0.01563500  0.83391200  1
  Cl  Cl185  1  0.19138367  0.34896833  0.66724533  1
