# generated using pymatgen
data_AlPO4
_symmetry_space_group_name_H-M   'P 1'
_cell_length_a   9.80533000
_cell_length_b   14.13297200
_cell_length_c   18.27797500
_cell_angle_alpha   90.00000000
_cell_angle_beta   90.00000000
_cell_angle_gamma   90.00000000
_symmetry_Int_Tables_number   1
_chemical_formula_structural   AlPO4
_chemical_formula_sum   'Al24 P24 O96'
_cell_volume   2532.93352398
_cell_formula_units_Z   24
loop_
 _symmetry_equiv_pos_site_id
 _symmetry_equiv_pos_as_xyz
  1  'x, y, z'
loop_
 _atom_site_type_symbol
 _atom_site_label
 _atom_site_symmetry_multiplicity
 _atom_site_fract_x
 _atom_site_fract_y
 _atom_site_fract_z
 _atom_site_occupancy
  Al  Al0  1  0.83923100  0.75668800  0.79942800  1
  Al  Al1  1  0.33923100  0.24331200  0.70057200  1
  Al  Al2  1  0.66076900  0.25668800  0.20057200  1
  Al  Al3  1  0.16076900  0.74331200  0.29942800  1
  Al  Al4  1  0.16076900  0.24331200  0.20057200  1
  Al  Al5  1  0.66076900  0.75668800  0.29942800  1
  Al  Al6  1  0.33923100  0.74331200  0.79942800  1
  Al  Al7  1  0.83923100  0.25668800  0.70057200  1
  Al  Al8  1  0.15454300  0.96340700  0.67874100  1
  Al  Al9  1  0.65454300  0.03659300  0.82125900  1
  Al  Al10  1  0.34545700  0.46340700  0.32125900  1
  Al  Al11  1  0.84545700  0.53659300  0.17874100  1
  Al  Al12  1  0.84545700  0.03659300  0.32125900  1
  Al  Al13  1  0.34545700  0.96340700  0.17874100  1
  Al  Al14  1  0.65454300  0.53659300  0.67874100  1
  Al  Al15  1  0.15454300  0.46340700  0.82125900  1
  Al  Al16  1  0.62815000  0.92969200  0.58596900  1
  Al  Al17  1  0.12815000  0.07030800  0.91403100  1
  Al  Al18  1  0.87185000  0.42969200  0.41403100  1
  Al  Al19  1  0.37185000  0.57030800  0.08596900  1
  Al  Al20  1  0.37185000  0.07030800  0.41403100  1
  Al  Al21  1  0.87185000  0.92969200  0.08596900  1
  Al  Al22  1  0.12815000  0.57030800  0.58596900  1
  Al  Al23  1  0.62815000  0.42969200  0.91403100  1
  P  P24  1  0.59314100  0.75259200  0.69704600  1
  P  P25  1  0.09314100  0.24740800  0.80295400  1
  P  P26  1  0.90685900  0.25259200  0.30295400  1
  P  P27  1  0.40685900  0.74740800  0.19704600  1
  P  P28  1  0.40685900  0.24740800  0.30295400  1
  P  P29  1  0.90685900  0.75259200  0.19704600  1
  P  P30  1  0.09314100  0.74740800  0.69704600  1
  P  P31  1  0.59314100  0.25259200  0.80295400  1
  P  P32  1  0.34168200  0.96291700  0.82388200  1
  P  P33  1  0.84168200  0.03708300  0.67611800  1
  P  P34  1  0.15831800  0.46291700  0.17611800  1
  P  P35  1  0.65831800  0.53708300  0.32388200  1
  P  P36  1  0.65831800  0.03708300  0.17611800  1
  P  P37  1  0.15831800  0.96291700  0.32388200  1
  P  P38  1  0.84168200  0.53708300  0.82388200  1
  P  P39  1  0.34168200  0.46291700  0.67611800  1
  P  P40  1  0.86966300  0.92816000  0.91305700  1
  P  P41  1  0.36966300  0.07184000  0.58694300  1
  P  P42  1  0.63033700  0.42816000  0.08694300  1
  P  P43  1  0.13033700  0.57184000  0.41305700  1
  P  P44  1  0.13033700  0.07184000  0.08694300  1
  P  P45  1  0.63033700  0.92816000  0.41305700  1
  P  P46  1  0.36966300  0.57184000  0.91305700  1
  P  P47  1  0.86966300  0.42816000  0.58694300  1
  O  O48  1  0.67657500  0.78335800  0.76479100  1
  O  O49  1  0.17657500  0.21664200  0.73520900  1
  O  O50  1  0.82342500  0.28335800  0.23520900  1
  O  O51  1  0.32342500  0.71664200  0.26479100  1
  O  O52  1  0.32342500  0.21664200  0.23520900  1
  O  O53  1  0.82342500  0.78335800  0.26479100  1
  O  O54  1  0.17657500  0.71664200  0.76479100  1
  O  O55  1  0.67657500  0.28335800  0.73520900  1
  O  O56  1  0.59963700  0.82780400  0.63724900  1
  O  O57  1  0.09963700  0.17219600  0.86275100  1
  O  O58  1  0.90036300  0.32780400  0.36275100  1
  O  O59  1  0.40036300  0.67219600  0.13724900  1
  O  O60  1  0.40036300  0.17219600  0.36275100  1
  O  O61  1  0.90036300  0.82780400  0.13724900  1
  O  O62  1  0.09963700  0.67219600  0.63724900  1
  O  O63  1  0.59963700  0.32780400  0.86275100  1
  O  O64  1  0.44447100  0.73916200  0.72180000  1
  O  O65  1  0.94447100  0.26083800  0.77820000  1
  O  O66  1  0.05552900  0.23916200  0.27820000  1
  O  O67  1  0.55552900  0.76083800  0.22180000  1
  O  O68  1  0.55552900  0.26083800  0.27820000  1
  O  O69  1  0.05552900  0.73916200  0.22180000  1
  O  O70  1  0.94447100  0.76083800  0.72180000  1
  O  O71  1  0.44447100  0.23916200  0.77820000  1
  O  O72  1  0.64880900  0.65941300  0.66515200  1
  O  O73  1  0.14880900  0.34058700  0.83484800  1
  O  O74  1  0.85119100  0.15941300  0.33484800  1
  O  O75  1  0.35119100  0.84058700  0.16515200  1
  O  O76  1  0.35119100  0.34058700  0.33484800  1
  O  O77  1  0.85119100  0.65941300  0.16515200  1
  O  O78  1  0.14880900  0.84058700  0.66515200  1
  O  O79  1  0.64880900  0.15941300  0.83484800  1
  O  O80  1  0.48890100  0.99427000  0.80947000  1
  O  O81  1  0.98890100  0.00573000  0.69053000  1
  O  O82  1  0.01109900  0.49427000  0.19053000  1
  O  O83  1  0.25363800  0.98658400  0.75654800  1
  O  O84  1  0.51109900  0.50573000  0.30947000  1
  O  O85  1  0.01109900  0.99427000  0.30947000  1
  O  O86  1  0.98890100  0.50573000  0.80947000  1
  O  O87  1  0.48890100  0.49427000  0.69053000  1
  O  O88  1  0.33937500  0.85594900  0.83958500  1
  O  O89  1  0.83937500  0.14405100  0.66041500  1
  O  O90  1  0.16062500  0.35594900  0.16041500  1
  O  O91  1  0.66062500  0.64405100  0.33958500  1
  O  O92  1  0.66062500  0.14405100  0.16041500  1
  O  O93  1  0.16062500  0.85594900  0.33958500  1
  O  O94  1  0.83937500  0.64405100  0.83958500  1
  O  O95  1  0.33937500  0.35594900  0.66041500  1
  O  O96  1  0.88397100  0.33879300  0.63400400  1
  O  O97  1  0.38397100  0.66120700  0.86599600  1
  O  O98  1  0.61602900  0.83879300  0.36599600  1
  O  O99  1  0.11602900  0.16120700  0.13400400  1
  O  O100  1  0.11602900  0.66120700  0.36599600  1
  O  O101  1  0.61602900  0.33879300  0.13400400  1
  O  O102  1  0.38397100  0.16120700  0.63400400  1
  O  O103  1  0.88397100  0.83879300  0.86599600  1
  O  O104  1  0.86594700  0.39825300  0.50633500  1
  O  O105  1  0.36594700  0.60174700  0.99366500  1
  O  O106  1  0.63405300  0.89825300  0.49366500  1
  O  O107  1  0.13405300  0.10174700  0.00633500  1
  O  O108  1  0.13405300  0.60174700  0.49366500  1
  O  O109  1  0.63405300  0.39825300  0.00633500  1
  O  O110  1  0.36594700  0.10174700  0.50633500  1
  O  O111  1  0.86594700  0.89825300  0.99366500  1
  O  O112  1  0.73634100  0.48113200  0.60506000  1
  O  O113  1  0.23634100  0.51886800  0.89494000  1
  O  O114  1  0.76365900  0.98113200  0.39494000  1
  O  O115  1  0.26365900  0.01886800  0.10506000  1
  O  O116  1  0.26365900  0.51886800  0.39494000  1
  O  O117  1  0.76365900  0.48113200  0.10506000  1
  O  O118  1  0.23634100  0.01886800  0.60506000  1
  O  O119  1  0.73634100  0.98113200  0.89494000  1
  O  O120  1  0.99319100  0.49203100  0.60212400  1
  O  O121  1  0.49319100  0.50796900  0.89787600  1
  O  O122  1  0.50680900  0.99203100  0.39787600  1
  O  O123  1  0.00680900  0.00796900  0.10212400  1
  O  O124  1  0.00680900  0.50796900  0.39787600  1
  O  O125  1  0.50680900  0.49203100  0.10212400  1
  O  O126  1  0.49319100  0.00796900  0.60212400  1
  O  O127  1  0.99319100  0.99203100  0.89787600  1
  O  O128  1  0.28383400  0.51625100  0.60956400  1
  O  O129  1  0.78383400  0.48374900  0.89043600  1
  O  O130  1  0.21616600  0.01625100  0.39043600  1
  O  O131  1  0.71616600  0.98374900  0.10956400  1
  O  O132  1  0.71616600  0.48374900  0.39043600  1
  O  O133  1  0.21616600  0.51625100  0.10956400  1
  O  O134  1  0.78383400  0.98374900  0.60956400  1
  O  O135  1  0.28383400  0.01625100  0.89043600  1
  O  O136  1  0.25363800  0.48658400  0.74345200  1
  O  O137  1  0.75363800  0.51341600  0.75654800  1
  O  O138  1  0.24636200  0.98658400  0.25654800  1
  O  O139  1  0.74636200  0.01341600  0.24345200  1
  O  O140  1  0.74636200  0.51341600  0.25654800  1
  O  O141  1  0.24636200  0.48658400  0.24345200  1
  O  O142  1  0.75363800  0.01341600  0.74345200  1
  O  O143  1  0.51109900  0.00573000  0.19053000  1
