# generated using pymatgen
data_CaMnF5
_symmetry_space_group_name_H-M   'P 1'
_cell_length_a   9.13493000
_cell_length_b   6.48840600
_cell_length_c   7.96975298
_cell_angle_alpha   90.00000000
_cell_angle_beta   116.01492843
_cell_angle_gamma   90.00000000
_symmetry_Int_Tables_number   1
_chemical_formula_structural   CaMnF5
_chemical_formula_sum   'Ca4 Mn4 F20'
_cell_volume   424.51503957
_cell_formula_units_Z   4
loop_
 _symmetry_equiv_pos_site_id
 _symmetry_equiv_pos_as_xyz
  1  'x, y, z'
loop_
 _atom_site_type_symbol
 _atom_site_label
 _atom_site_symmetry_multiplicity
 _atom_site_fract_x
 _atom_site_fract_y
 _atom_site_fract_z
 _atom_site_occupancy
  Ca  Ca0  1  0.00000000  0.45589400  0.25000000  1
  Ca  Ca1  1  0.50000000  0.04410600  0.75000000  1
  Ca  Ca2  1  0.50000000  0.95589400  0.25000000  1
  Ca  Ca3  1  0.00000000  0.54410600  0.75000000  1
  Mn  Mn4  1  0.00000000  0.00000000  0.00000000  1
  Mn  Mn5  1  0.00000000  0.00000000  0.50000000  1
  Mn  Mn6  1  0.50000000  0.50000000  0.00000000  1
  Mn  Mn7  1  0.50000000  0.50000000  0.50000000  1
  F  F8  1  0.00000000  0.90340400  0.75000000  1
  F  F9  1  0.50000000  0.59659600  0.25000000  1
  F  F10  1  0.22588500  0.01659200  0.61667800  1
  F  F11  1  0.77411500  0.01659200  0.88332200  1
  F  F12  1  0.51054400  0.79778400  0.96759900  1
  F  F13  1  0.48945600  0.79778400  0.53240100  1
  F  F14  1  0.98945600  0.70221600  0.03240100  1
  F  F15  1  0.01054400  0.70221600  0.46759900  1
  F  F16  1  0.72588500  0.48340800  0.11667800  1
  F  F17  1  0.27411500  0.48340800  0.38332200  1
  F  F18  1  0.50000000  0.40340400  0.75000000  1
  F  F19  1  0.00000000  0.09659600  0.25000000  1
  F  F20  1  0.72588500  0.51659200  0.61667800  1
  F  F21  1  0.27411500  0.51659200  0.88332200  1
  F  F22  1  0.01054400  0.29778400  0.96759900  1
  F  F23  1  0.98945600  0.29778400  0.53240100  1
  F  F24  1  0.48945600  0.20221600  0.03240100  1
  F  F25  1  0.51054400  0.20221600  0.46759900  1
  F  F26  1  0.22588500  0.98340800  0.11667800  1
  F  F27  1  0.77411500  0.98340800  0.38332200  1
