# generated using pymatgen
data_CdPH6NO5
_symmetry_space_group_name_H-M   'P 1'
_cell_length_a   4.99488600
_cell_length_b   5.87990500
_cell_length_c   18.31688100
_cell_angle_alpha   90.00000000
_cell_angle_beta   90.00000000
_cell_angle_gamma   90.00000000
_symmetry_Int_Tables_number   1
_chemical_formula_structural   CdPH6NO5
_chemical_formula_sum   'Cd4 P4 H24 N4 O20'
_cell_volume   537.95681531
_cell_formula_units_Z   4
loop_
 _symmetry_equiv_pos_site_id
 _symmetry_equiv_pos_as_xyz
  1  'x, y, z'
loop_
 _atom_site_type_symbol
 _atom_site_label
 _atom_site_symmetry_multiplicity
 _atom_site_fract_x
 _atom_site_fract_y
 _atom_site_fract_z
 _atom_site_occupancy
  Cd  Cd0  1  0.85994000  0.75000000  0.73465300  1
  Cd  Cd1  1  0.35994000  0.25000000  0.76534700  1
  Cd  Cd2  1  0.14006000  0.25000000  0.26534700  1
  Cd  Cd3  1  0.64006000  0.75000000  0.23465300  1
  P  P4  1  0.28361700  0.75000000  0.85364000  1
  P  P5  1  0.78361700  0.25000000  0.64636000  1
  P  P6  1  0.71638300  0.25000000  0.14636000  1
  P  P7  1  0.21638300  0.75000000  0.35364000  1
  H  H8  1  0.55826200  0.75000000  0.47727100  1
  H  H9  1  0.05826200  0.25000000  0.02272900  1
  H  H10  1  0.44173800  0.25000000  0.52272900  1
  H  H11  1  0.94173800  0.75000000  0.97727100  1
  H  H12  1  0.90912400  0.75000000  0.47605800  1
  H  H13  1  0.40912400  0.25000000  0.02394200  1
  H  H14  1  0.09087600  0.25000000  0.52394200  1
  H  H15  1  0.59087600  0.75000000  0.97605800  1
  H  H16  1  0.31737600  0.88313600  0.65006600  1
  H  H17  1  0.81737600  0.11686400  0.84993400  1
  H  H18  1  0.68262400  0.38313600  0.34993400  1
  H  H19  1  0.18262400  0.61686400  0.15006600  1
  H  H20  1  0.68262400  0.11686400  0.34993400  1
  H  H21  1  0.18262400  0.88313600  0.15006600  1
  H  H22  1  0.31737600  0.61686400  0.65006600  1
  H  H23  1  0.81737600  0.38313600  0.84993400  1
  H  H24  1  0.74058300  0.89497800  0.54091100  1
  H  H25  1  0.24058300  0.10502200  0.95908900  1
  H  H26  1  0.25941700  0.39497800  0.45908900  1
  H  H27  1  0.75941700  0.60502200  0.04091100  1
  H  H28  1  0.25941700  0.10502200  0.45908900  1
  H  H29  1  0.75941700  0.89497800  0.04091100  1
  H  H30  1  0.74058300  0.60502200  0.54091100  1
  H  H31  1  0.24058300  0.39497800  0.95908900  1
  N  N32  1  0.73646000  0.75000000  0.50888100  1
  N  N33  1  0.23646000  0.25000000  0.99111900  1
  N  N34  1  0.26354000  0.25000000  0.49111900  1
  N  N35  1  0.76354000  0.75000000  0.00888100  1
  O  O36  1  0.57999100  0.75000000  0.83282800  1
  O  O37  1  0.07999100  0.25000000  0.66717200  1
  O  O38  1  0.42000900  0.25000000  0.16717200  1
  O  O39  1  0.92000900  0.75000000  0.33282800  1
  O  O40  1  0.13273800  0.96281000  0.82046800  1
  O  O41  1  0.63273800  0.03719000  0.67953200  1
  O  O42  1  0.86726200  0.46281000  0.17953200  1
  O  O43  1  0.36726200  0.53719000  0.32046800  1
  O  O44  1  0.86726200  0.03719000  0.17953200  1
  O  O45  1  0.36726200  0.96281000  0.32046800  1
  O  O46  1  0.13273800  0.53719000  0.82046800  1
  O  O47  1  0.63273800  0.46281000  0.67953200  1
  O  O48  1  0.25337100  0.75000000  0.93818400  1
  O  O49  1  0.75337100  0.25000000  0.56181600  1
  O  O50  1  0.74662900  0.25000000  0.06181600  1
  O  O51  1  0.24662900  0.75000000  0.43818400  1
  O  O52  1  0.19828100  0.75000000  0.64326800  1
  O  O53  1  0.69828100  0.25000000  0.85673200  1
  O  O54  1  0.80171900  0.25000000  0.35673200  1
  O  O55  1  0.30171900  0.75000000  0.14326800  1
