# generated using pymatgen
data_NaAsH4O5
_symmetry_space_group_name_H-M   'P 1'
_cell_length_a   5.31001700
_cell_length_b   8.59267300
_cell_length_c   10.53027600
_cell_angle_alpha   90.00000000
_cell_angle_beta   90.00000000
_cell_angle_gamma   90.00000000
_symmetry_Int_Tables_number   1
_chemical_formula_structural   NaAsH4O5
_chemical_formula_sum   'Na4 As4 H16 O20'
_cell_volume   480.46742722
_cell_formula_units_Z   4
loop_
 _symmetry_equiv_pos_site_id
 _symmetry_equiv_pos_as_xyz
  1  'x, y, z'
loop_
 _atom_site_type_symbol
 _atom_site_label
 _atom_site_symmetry_multiplicity
 _atom_site_fract_x
 _atom_site_fract_y
 _atom_site_fract_z
 _atom_site_occupancy
  Na  Na0  1  0.42391600  0.59253100  0.90677900  1
  Na  Na1  1  0.57608400  0.09253100  0.59322100  1
  Na  Na2  1  0.92391600  0.90746900  0.09322100  1
  Na  Na3  1  0.07608400  0.40746900  0.40677900  1
  As  As4  1  0.08218400  0.19436900  0.84224400  1
  As  As5  1  0.91781600  0.69436900  0.65775600  1
  As  As6  1  0.41781600  0.80563100  0.34224400  1
  As  As7  1  0.58218400  0.30563100  0.15775600  1
  H  H8  1  0.96182900  0.48900100  0.79694000  1
  H  H9  1  0.46182900  0.01099900  0.20306000  1
  H  H10  1  0.44591300  0.94509900  0.95072700  1
  H  H11  1  0.18706800  0.23270000  0.10531100  1
  H  H12  1  0.64200500  0.88171400  0.85251100  1
  H  H13  1  0.35799500  0.38171400  0.64748900  1
  H  H14  1  0.03817100  0.98900100  0.70306000  1
  H  H15  1  0.85799500  0.11828600  0.35251100  1
  H  H16  1  0.55408700  0.44509900  0.54927300  1
  H  H17  1  0.14200500  0.61828600  0.14748900  1
  H  H18  1  0.81293200  0.73270000  0.39468900  1
  H  H19  1  0.31293200  0.76730000  0.60531100  1
  H  H20  1  0.68706800  0.26730000  0.89468900  1
  H  H21  1  0.05408700  0.05490100  0.45072700  1
  H  H22  1  0.53817100  0.51099900  0.29694000  1
  H  H23  1  0.94591300  0.55490100  0.04927300  1
  O  O24  1  0.67111700  0.42405200  0.28699700  1
  O  O25  1  0.17250500  0.11023700  0.98051300  1
  O  O26  1  0.74978300  0.19591300  0.82650200  1
  O  O27  1  0.17111700  0.07594800  0.71300300  1
  O  O28  1  0.57196600  0.86299000  0.93807100  1
  O  O29  1  0.42803400  0.36299000  0.56192900  1
  O  O30  1  0.24978300  0.30408700  0.17349800  1
  O  O31  1  0.80762100  0.87593000  0.69051600  1
  O  O32  1  0.19237900  0.37593000  0.80948400  1
  O  O33  1  0.75021700  0.80408700  0.32650200  1
  O  O34  1  0.69237900  0.12407000  0.19051600  1
  O  O35  1  0.92803400  0.13701000  0.43807100  1
  O  O36  1  0.82888300  0.57594800  0.78699700  1
  O  O37  1  0.82749500  0.61023700  0.51948700  1
  O  O38  1  0.25021700  0.69591300  0.67349800  1
  O  O39  1  0.67250500  0.38976300  0.01948700  1
  O  O40  1  0.07196600  0.63701000  0.06192900  1
  O  O41  1  0.32888300  0.92405200  0.21300300  1
  O  O42  1  0.30762100  0.62407000  0.30948400  1
  O  O43  1  0.32749500  0.88976300  0.48051300  1
