# generated using pymatgen
data_Na3Fe2Mo5O16
_symmetry_space_group_name_H-M   'P 1'
_cell_length_a   6.12318186
_cell_length_b   6.12318186
_cell_length_c   21.48574200
_cell_angle_alpha   90.00000000
_cell_angle_beta   90.00000000
_cell_angle_gamma   120.00000000
_symmetry_Int_Tables_number   1
_chemical_formula_structural   Na3Fe2Mo5O16
_chemical_formula_sum   'Na6 Fe4 Mo10 O32'
_cell_volume   697.64631467
_cell_formula_units_Z   2
loop_
 _symmetry_equiv_pos_site_id
 _symmetry_equiv_pos_as_xyz
  1  'x, y, z'
loop_
 _atom_site_type_symbol
 _atom_site_label
 _atom_site_symmetry_multiplicity
 _atom_site_fract_x
 _atom_site_fract_y
 _atom_site_fract_z
 _atom_site_occupancy
  Na  Na0  1  0.33333333  0.66666667  0.61543100  1
  Na  Na1  1  0.66666667  0.33333333  0.38456900  1
  Na  Na2  1  0.00000000  0.00000000  0.00000000  1
  Na  Na3  1  0.66666667  0.33333333  0.88878300  1
  Na  Na4  1  0.33333333  0.66666667  0.11121700  1
  Na  Na5  1  0.00000000  0.00000000  0.50000000  1
  Fe  Fe6  1  0.00000000  0.00000000  0.35249900  1
  Fe  Fe7  1  0.00000000  0.00000000  0.84930800  1
  Fe  Fe8  1  0.00000000  0.00000000  0.64750100  1
  Fe  Fe9  1  0.00000000  0.00000000  0.15069200  1
  Mo  Mo10  1  0.66666667  0.33333333  0.56897000  1
  Mo  Mo11  1  0.99754200  0.49877100  0.24765400  1
  Mo  Mo12  1  0.33333333  0.66666667  0.43103000  1
  Mo  Mo13  1  0.49877100  0.50122900  0.75234600  1
  Mo  Mo14  1  0.50122900  0.49877100  0.24765400  1
  Mo  Mo15  1  0.49877100  0.99754200  0.75234600  1
  Mo  Mo16  1  0.66666667  0.33333333  0.07604100  1
  Mo  Mo17  1  0.00245800  0.50122900  0.75234600  1
  Mo  Mo18  1  0.50122900  0.00245800  0.24765400  1
  Mo  Mo19  1  0.33333333  0.66666667  0.92395900  1
  O  O20  1  0.33360100  0.16680050  0.59007000  1
  O  O21  1  0.66639900  0.83319950  0.40993000  1
  O  O22  1  0.32356400  0.16178200  0.09072500  1
  O  O23  1  0.16178200  0.32356400  0.90927500  1
  O  O24  1  0.65996600  0.82998300  0.19465900  1
  O  O25  1  0.17707200  0.82292800  0.70183700  1
  O  O26  1  0.83319950  0.66639900  0.59007000  1
  O  O27  1  0.33333333  0.66666667  0.51292900  1
  O  O28  1  0.83821800  0.16178200  0.09072500  1
  O  O29  1  0.16680050  0.33360100  0.40993000  1
  O  O30  1  0.17001700  0.34003400  0.19465900  1
  O  O31  1  0.67643600  0.83821800  0.90927500  1
  O  O32  1  0.66666667  0.33333333  0.19179000  1
  O  O33  1  0.82292800  0.17707200  0.29816300  1
  O  O34  1  0.82998300  0.17001700  0.80534100  1
  O  O35  1  0.66666667  0.33333333  0.48707100  1
  O  O36  1  0.33333333  0.66666667  0.80821000  1
  O  O37  1  0.17707200  0.35414400  0.70183700  1
  O  O38  1  0.83319950  0.16680050  0.59007000  1
  O  O39  1  0.33333333  0.66666667  0.29839800  1
  O  O40  1  0.17001700  0.82998300  0.19465900  1
  O  O41  1  0.33333333  0.66666667  0.00574800  1
  O  O42  1  0.82998300  0.65996600  0.80534100  1
  O  O43  1  0.66666667  0.33333333  0.70160200  1
  O  O44  1  0.35414400  0.17707200  0.29816300  1
  O  O45  1  0.64585600  0.82292800  0.70183700  1
  O  O46  1  0.82292800  0.64585600  0.29816300  1
  O  O47  1  0.16680050  0.83319950  0.40993000  1
  O  O48  1  0.16178200  0.83821800  0.90927500  1
  O  O49  1  0.34003400  0.17001700  0.80534100  1
  O  O50  1  0.66666667  0.33333333  0.99425200  1
  O  O51  1  0.83821800  0.67643600  0.09072500  1
