# generated using pymatgen
data_CaB3H5O8
_symmetry_space_group_name_H-M   'P 1'
_cell_length_a   6.14122300
_cell_length_b   11.31061200
_cell_length_c   8.82133486
_cell_angle_alpha   90.00000000
_cell_angle_beta   110.12245742
_cell_angle_gamma   90.00000000
_symmetry_Int_Tables_number   1
_chemical_formula_structural   CaB3H5O8
_chemical_formula_sum   'Ca4 B12 H20 O32'
_cell_volume   575.33677163
_cell_formula_units_Z   4
loop_
 _symmetry_equiv_pos_site_id
 _symmetry_equiv_pos_as_xyz
  1  'x, y, z'
loop_
 _atom_site_type_symbol
 _atom_site_label
 _atom_site_symmetry_multiplicity
 _atom_site_fract_x
 _atom_site_fract_y
 _atom_site_fract_z
 _atom_site_occupancy
  Ca  Ca0  1  0.25949200  0.29419700  0.11363800  1
  Ca  Ca1  1  0.74298900  0.71222800  0.38404000  1
  Ca  Ca2  1  0.25701100  0.21222800  0.61596000  1
  Ca  Ca3  1  0.74050800  0.79419700  0.88636200  1
  B  B4  1  0.16592100  0.82814500  0.28759500  1
  B  B5  1  0.31622500  0.78513300  0.58292800  1
  B  B6  1  0.68377500  0.28513300  0.41707200  1
  B  B7  1  0.83545900  0.16865500  0.21199100  1
  B  B8  1  0.83407900  0.32814500  0.71240500  1
  B  B9  1  0.49684700  0.94976400  0.47076900  1
  B  B10  1  0.50315300  0.44976400  0.52923100  1
  B  B11  1  0.50135600  0.04899300  0.03080400  1
  B  B12  1  0.68643200  0.20633500  0.91560700  1
  B  B13  1  0.16454100  0.66865500  0.78800900  1
  B  B14  1  0.49864400  0.54899300  0.96919600  1
  B  B15  1  0.31356800  0.70633500  0.08439300  1
  H  H16  1  0.86621400  0.91862400  0.17147900  1
  H  H17  1  0.04261500  0.01797900  0.95719700  1
  H  H18  1  0.67476500  0.39770300  0.07307400  1
  H  H19  1  0.96012700  0.97810100  0.54374800  1
  H  H20  1  0.30043700  0.47589700  0.67307600  1
  H  H21  1  0.13742000  0.08243200  0.33056700  1
  H  H22  1  0.13378600  0.41862400  0.82852100  1
  H  H23  1  0.86258000  0.58243200  0.66943300  1
  H  H24  1  0.30424500  0.02678200  0.17743100  1
  H  H25  1  0.02061000  0.49103200  0.22411900  1
  H  H26  1  0.23205600  0.97045600  0.65441800  1
  H  H27  1  0.69575500  0.52678200  0.82256900  1
  H  H28  1  0.03987300  0.47810100  0.45625200  1
  H  H29  1  0.76794400  0.47045600  0.34558200  1
  H  H30  1  0.32523500  0.89770300  0.92692600  1
  H  H31  1  0.95738500  0.51797900  0.04280300  1
  H  H32  1  0.34441800  0.58884700  0.38140900  1
  H  H33  1  0.97939000  0.99103200  0.77588100  1
  H  H34  1  0.65558200  0.08884700  0.61859100  1
  H  H35  1  0.69956300  0.97589700  0.32692400  1
  O  O36  1  0.30170400  0.07745500  0.08414200  1
  O  O37  1  0.93033100  0.66211100  0.66844900  1
  O  O38  1  0.14264500  0.76823900  0.43684100  1
  O  O39  1  0.27728700  0.94387000  0.33424100  1
  O  O40  1  0.70504500  0.92620000  0.42249400  1
  O  O41  1  0.49525500  0.56895900  0.46018400  1
  O  O42  1  0.29495500  0.42620000  0.57750600  1
  O  O43  1  0.27385200  0.55270000  0.83382700  1
  O  O44  1  0.91946800  0.97875100  0.86613200  1
  O  O45  1  0.08053200  0.47875100  0.13386800  1
  O  O46  1  0.06966900  0.16211100  0.33155100  1
  O  O47  1  0.51738400  0.42904500  0.03835900  1
  O  O48  1  0.14289900  0.72786300  0.93766200  1
  O  O49  1  0.90877100  0.51784200  0.36802100  1
  O  O50  1  0.68396200  0.24492300  0.27078600  1
  O  O51  1  0.93057400  0.83758000  0.17060000  1
  O  O52  1  0.06942600  0.33758000  0.82940000  1
  O  O53  1  0.09122900  0.01784200  0.63197900  1
  O  O54  1  0.31603800  0.74492300  0.72921400  1
  O  O55  1  0.49295000  0.35559900  0.40650700  1
  O  O56  1  0.69829600  0.57745500  0.91585800  1
  O  O57  1  0.72271300  0.44387000  0.66575900  1
  O  O58  1  0.50474500  0.06895900  0.53981600  1
  O  O59  1  0.50705000  0.85559900  0.59349300  1
  O  O60  1  0.68418400  0.25065600  0.76986500  1
  O  O61  1  0.49150300  0.14110300  0.90634400  1
  O  O62  1  0.72614800  0.05270000  0.16617300  1
  O  O63  1  0.48261600  0.92904500  0.96164100  1
  O  O64  1  0.85735500  0.26823900  0.56315900  1
  O  O65  1  0.31581600  0.75065600  0.23013500  1
  O  O66  1  0.50849700  0.64110300  0.09365600  1
  O  O67  1  0.85710100  0.22786300  0.06233800  1
