# generated using pymatgen
data_Rb2Pd(IBr2)2
_symmetry_space_group_name_H-M   'P 1'
_cell_length_a   8.53098200
_cell_length_b   8.53098200
_cell_length_c   9.01909000
_cell_angle_alpha   90.00000000
_cell_angle_beta   90.00000000
_cell_angle_gamma   90.00000000
_symmetry_Int_Tables_number   1
_chemical_formula_structural   Rb2Pd(IBr2)2
_chemical_formula_sum   'Rb4 Pd2 I4 Br8'
_cell_volume   656.38821037
_cell_formula_units_Z   2
loop_
 _symmetry_equiv_pos_site_id
 _symmetry_equiv_pos_as_xyz
  1  'x, y, z'
loop_
 _atom_site_type_symbol
 _atom_site_label
 _atom_site_symmetry_multiplicity
 _atom_site_fract_x
 _atom_site_fract_y
 _atom_site_fract_z
 _atom_site_occupancy
  Rb  Rb0  1  0.50000000  0.00000000  0.25000000  1
  Rb  Rb1  1  0.00000000  0.50000000  0.25000000  1
  Rb  Rb2  1  0.00000000  0.50000000  0.75000000  1
  Rb  Rb3  1  0.50000000  0.00000000  0.75000000  1
  Pd  Pd4  1  0.00000000  0.00000000  0.00000000  1
  Pd  Pd5  1  0.50000000  0.50000000  0.50000000  1
  I  I6  1  0.00000000  0.00000000  0.33979600  1
  I  I7  1  0.00000000  0.00000000  0.66020400  1
  I  I8  1  0.50000000  0.50000000  0.83979600  1
  I  I9  1  0.50000000  0.50000000  0.16020400  1
  Br  Br10  1  0.70571300  0.29428700  0.50000000  1
  Br  Br11  1  0.29428700  0.29428700  0.50000000  1
  Br  Br12  1  0.29428700  0.70571300  0.50000000  1
  Br  Br13  1  0.20571300  0.20571300  0.00000000  1
  Br  Br14  1  0.20571300  0.79428700  0.00000000  1
  Br  Br15  1  0.79428700  0.79428700  0.00000000  1
  Br  Br16  1  0.79428700  0.20571300  0.00000000  1
  Br  Br17  1  0.70571300  0.70571300  0.50000000  1
