# generated using pymatgen
data_SrLi2Nb2O7
_symmetry_space_group_name_H-M   'P 1'
_cell_length_a   4.01301600
_cell_length_b   4.01301600
_cell_length_c   18.41884200
_cell_angle_alpha   90.00000000
_cell_angle_beta   90.00000000
_cell_angle_gamma   90.00000000
_symmetry_Int_Tables_number   1
_chemical_formula_structural   SrLi2Nb2O7
_chemical_formula_sum   'Sr2 Li4 Nb4 O14'
_cell_volume   296.62250963
_cell_formula_units_Z   2
loop_
 _symmetry_equiv_pos_site_id
 _symmetry_equiv_pos_as_xyz
  1  'x, y, z'
loop_
 _atom_site_type_symbol
 _atom_site_label
 _atom_site_symmetry_multiplicity
 _atom_site_fract_x
 _atom_site_fract_y
 _atom_site_fract_z
 _atom_site_occupancy
  Sr  Sr0  1  0.00000000  0.00000000  0.00000000  1
  Sr  Sr1  1  0.50000000  0.50000000  0.50000000  1
  Li  Li2  1  0.00000000  0.50000000  0.25000000  1
  Li  Li3  1  0.50000000  0.00000000  0.25000000  1
  Li  Li4  1  0.50000000  0.00000000  0.75000000  1
  Li  Li5  1  0.00000000  0.50000000  0.75000000  1
  Nb  Nb6  1  0.00000000  0.00000000  0.38443500  1
  Nb  Nb7  1  0.50000000  0.50000000  0.11556500  1
  Nb  Nb8  1  0.50000000  0.50000000  0.88443500  1
  Nb  Nb9  1  0.00000000  0.00000000  0.61556500  1
  O  O10  1  0.00000000  0.50000000  0.10539500  1
  O  O11  1  0.50000000  0.00000000  0.10539500  1
  O  O12  1  0.50000000  0.50000000  0.21876900  1
  O  O13  1  0.00000000  0.50000000  0.39460500  1
  O  O14  1  0.00000000  0.00000000  0.28123100  1
  O  O15  1  0.50000000  0.50000000  0.00000000  1
  O  O16  1  0.50000000  0.00000000  0.39460500  1
  O  O17  1  0.50000000  0.00000000  0.60539500  1
  O  O18  1  0.00000000  0.50000000  0.60539500  1
  O  O19  1  0.00000000  0.00000000  0.71876900  1
  O  O20  1  0.50000000  0.00000000  0.89460500  1
  O  O21  1  0.50000000  0.50000000  0.78123100  1
  O  O22  1  0.00000000  0.00000000  0.50000000  1
  O  O23  1  0.00000000  0.50000000  0.89460500  1
