# generated using pymatgen
data_LiSb(PO3)4
_symmetry_space_group_name_H-M   'P 1'
_cell_length_a   12.30495400
_cell_length_b   8.72698600
_cell_length_c   10.35860978
_cell_angle_alpha   90.00000000
_cell_angle_beta   118.94643777
_cell_angle_gamma   90.00000000
_symmetry_Int_Tables_number   1
_chemical_formula_structural   LiSb(PO3)4
_chemical_formula_sum   'Li4 Sb4 P16 O48'
_cell_volume   973.39655298
_cell_formula_units_Z   4
loop_
 _symmetry_equiv_pos_site_id
 _symmetry_equiv_pos_as_xyz
  1  'x, y, z'
loop_
 _atom_site_type_symbol
 _atom_site_label
 _atom_site_symmetry_multiplicity
 _atom_site_fract_x
 _atom_site_fract_y
 _atom_site_fract_z
 _atom_site_occupancy
  Li  Li0  1  0.75000000  0.75000000  0.00000000  1
  Li  Li1  1  0.25000000  0.75000000  0.50000000  1
  Li  Li2  1  0.25000000  0.25000000  0.00000000  1
  Li  Li3  1  0.75000000  0.25000000  0.50000000  1
  Sb  Sb4  1  0.00000000  0.95672300  0.25000000  1
  Sb  Sb5  1  0.50000000  0.54327700  0.75000000  1
  Sb  Sb6  1  0.50000000  0.45672300  0.25000000  1
  Sb  Sb7  1  0.00000000  0.04327700  0.75000000  1
  P  P8  1  0.99631350  0.72312350  0.52706200  1
  P  P9  1  0.80702600  0.51065400  0.30388400  1
  P  P10  1  0.19297400  0.51065400  0.19611600  1
  P  P11  1  0.50368650  0.22312350  0.97293800  1
  P  P12  1  0.99631350  0.27687650  0.02706200  1
  P  P13  1  0.30702600  0.98934600  0.80388400  1
  P  P14  1  0.69297400  0.98934600  0.69611600  1
  P  P15  1  0.50368650  0.77687650  0.47293800  1
  P  P16  1  0.49631350  0.22312350  0.52706200  1
  P  P17  1  0.30702600  0.01065400  0.30388400  1
  P  P18  1  0.69297400  0.01065400  0.19611600  1
  P  P19  1  0.00368650  0.72312350  0.97293800  1
  P  P20  1  0.49631350  0.77687650  0.02706200  1
  P  P21  1  0.80702600  0.48934600  0.80388400  1
  P  P22  1  0.19297400  0.48934600  0.69611600  1
  P  P23  1  0.00368650  0.27687650  0.47293800  1
  O  O24  1  0.72662600  0.91308700  0.83743100  1
  O  O25  1  0.05306950  0.75243150  0.42867000  1
  O  O26  1  0.08344900  0.61337000  0.66197900  1
  O  O27  1  0.96383100  0.86069400  0.58991300  1
  O  O28  1  0.29184400  0.42867600  0.17332600  1
  O  O29  1  0.87055350  0.62697850  0.44382900  1
  O  O30  1  0.55306950  0.74756850  0.92867000  1
  O  O31  1  0.53616900  0.36069400  0.91008700  1
  O  O32  1  0.12944650  0.62697850  0.05617100  1
  O  O33  1  0.22662600  0.58691300  0.33743100  1
  O  O34  1  0.41655100  0.11337000  0.83802100  1
  O  O35  1  0.20815600  0.92867600  0.32667400  1
  O  O36  1  0.29184400  0.57132400  0.67332600  1
  O  O37  1  0.08344900  0.38663000  0.16197900  1
  O  O38  1  0.27337400  0.91308700  0.66256900  1
  O  O39  1  0.37055350  0.87302150  0.94382900  1
  O  O40  1  0.96383100  0.13930600  0.08991300  1
  O  O41  1  0.94693050  0.75243150  0.07133000  1
  O  O42  1  0.62944650  0.87302150  0.55617100  1
  O  O43  1  0.20815600  0.07132400  0.82667400  1
  O  O44  1  0.53616900  0.63930600  0.41008700  1
  O  O45  1  0.41655100  0.88663000  0.33802100  1
  O  O46  1  0.44693050  0.74756850  0.57133000  1
  O  O47  1  0.77337400  0.58691300  0.16256900  1
  O  O48  1  0.22662600  0.41308700  0.83743100  1
  O  O49  1  0.55306950  0.25243150  0.42867000  1
  O  O50  1  0.58344900  0.11337000  0.66197900  1
  O  O51  1  0.46383100  0.36069400  0.58991300  1
  O  O52  1  0.79184400  0.92867600  0.17332600  1
  O  O53  1  0.37055350  0.12697850  0.44382900  1
  O  O54  1  0.05306950  0.24756850  0.92867000  1
  O  O55  1  0.03616900  0.86069400  0.91008700  1
  O  O56  1  0.62944650  0.12697850  0.05617100  1
  O  O57  1  0.72662600  0.08691300  0.33743100  1
  O  O58  1  0.91655100  0.61337000  0.83802100  1
  O  O59  1  0.70815600  0.42867600  0.32667400  1
  O  O60  1  0.79184400  0.07132400  0.67332600  1
  O  O61  1  0.58344900  0.88663000  0.16197900  1
  O  O62  1  0.77337400  0.41308700  0.66256900  1
  O  O63  1  0.87055350  0.37302150  0.94382900  1
  O  O64  1  0.46383100  0.63930600  0.08991300  1
  O  O65  1  0.44693050  0.25243150  0.07133000  1
  O  O66  1  0.12944650  0.37302150  0.55617100  1
  O  O67  1  0.70815600  0.57132400  0.82667400  1
  O  O68  1  0.03616900  0.13930600  0.41008700  1
  O  O69  1  0.91655100  0.38663000  0.33802100  1
  O  O70  1  0.94693050  0.24756850  0.57133000  1
  O  O71  1  0.27337400  0.08691300  0.16256900  1
