# generated using pymatgen
data_K3Hg3S2Br5O6
_symmetry_space_group_name_H-M   'P 1'
_cell_length_a   6.31507400
_cell_length_b   12.91028000
_cell_length_c   23.01724200
_cell_angle_alpha   90.00000000
_cell_angle_beta   90.00000000
_cell_angle_gamma   90.00000000
_symmetry_Int_Tables_number   1
_chemical_formula_structural   K3Hg3S2Br5O6
_chemical_formula_sum   'K12 Hg12 S8 Br20 O24'
_cell_volume   1876.58132136
_cell_formula_units_Z   4
loop_
 _symmetry_equiv_pos_site_id
 _symmetry_equiv_pos_as_xyz
  1  'x, y, z'
loop_
 _atom_site_type_symbol
 _atom_site_label
 _atom_site_symmetry_multiplicity
 _atom_site_fract_x
 _atom_site_fract_y
 _atom_site_fract_z
 _atom_site_occupancy
  K  K0  1  0.75000000  0.63235500  0.88246500  1
  K  K1  1  0.25000000  0.12673200  0.99513000  1
  K  K2  1  0.25000000  0.37326800  0.49513000  1
  K  K3  1  0.75000000  0.13362300  0.49017100  1
  K  K4  1  0.25000000  0.86637700  0.50982900  1
  K  K5  1  0.25000000  0.63362300  0.00982900  1
  K  K6  1  0.25000000  0.36764500  0.11753500  1
  K  K7  1  0.75000000  0.62673200  0.50487000  1
  K  K8  1  0.75000000  0.86764500  0.38246500  1
  K  K9  1  0.75000000  0.36637700  0.99017100  1
  K  K10  1  0.25000000  0.13235500  0.61753500  1
  K  K11  1  0.75000000  0.87326800  0.00487000  1
  Hg  Hg12  1  0.75000000  0.85387900  0.68160600  1
  Hg  Hg13  1  0.25000000  0.62061100  0.68967300  1
  Hg  Hg14  1  0.25000000  0.62072600  0.30979800  1
  Hg  Hg15  1  0.25000000  0.87938900  0.18967300  1
  Hg  Hg16  1  0.75000000  0.12061100  0.81032700  1
  Hg  Hg17  1  0.75000000  0.64612100  0.18160600  1
  Hg  Hg18  1  0.25000000  0.87927400  0.80979800  1
  Hg  Hg19  1  0.75000000  0.37927400  0.69020200  1
  Hg  Hg20  1  0.75000000  0.12072600  0.19020200  1
  Hg  Hg21  1  0.25000000  0.35387900  0.81839400  1
  Hg  Hg22  1  0.75000000  0.37938900  0.31032700  1
  Hg  Hg23  1  0.25000000  0.14612100  0.31839400  1
  S  S24  1  0.25000000  0.42104400  0.92018600  1
  S  S25  1  0.25000000  0.07895600  0.42018600  1
  S  S26  1  0.75000000  0.15948000  0.08500200  1
  S  S27  1  0.25000000  0.65948000  0.41499800  1
  S  S28  1  0.75000000  0.57895600  0.07981400  1
  S  S29  1  0.75000000  0.34052000  0.58500200  1
  S  S30  1  0.25000000  0.84052000  0.91499800  1
  S  S31  1  0.75000000  0.92104400  0.57981400  1
  Br  Br32  1  0.25000000  0.12879500  0.81368100  1
  Br  Br33  1  0.75000000  0.12429100  0.70082100  1
  Br  Br34  1  0.25000000  0.87741200  0.08048200  1
  Br  Br35  1  0.75000000  0.11260700  0.30358200  1
  Br  Br36  1  0.25000000  0.13392800  0.20278000  1
  Br  Br37  1  0.75000000  0.62879500  0.68631900  1
  Br  Br38  1  0.25000000  0.62429100  0.79917900  1
  Br  Br39  1  0.75000000  0.37741200  0.41951800  1
  Br  Br40  1  0.75000000  0.63392800  0.29722000  1
  Br  Br41  1  0.25000000  0.36607200  0.70278000  1
  Br  Br42  1  0.25000000  0.37120500  0.31368100  1
  Br  Br43  1  0.75000000  0.87120500  0.18631900  1
  Br  Br44  1  0.25000000  0.61260700  0.19641800  1
  Br  Br45  1  0.25000000  0.87570900  0.29917900  1
  Br  Br46  1  0.25000000  0.88739300  0.69641800  1
  Br  Br47  1  0.75000000  0.37570900  0.20082100  1
  Br  Br48  1  0.75000000  0.38739300  0.80358200  1
  Br  Br49  1  0.75000000  0.12258800  0.91951800  1
  Br  Br50  1  0.75000000  0.86607200  0.79722000  1
  Br  Br51  1  0.25000000  0.62258800  0.58048200  1
  O  O52  1  0.75000000  0.66810300  0.03880400  1
  O  O53  1  0.05572100  0.72138100  0.42756700  1
  O  O54  1  0.94472000  0.98518300  0.57234000  1
  O  O55  1  0.05528000  0.48518300  0.92766000  1
  O  O56  1  0.55572100  0.22138100  0.07243300  1
  O  O57  1  0.94427900  0.22138100  0.07243300  1
  O  O58  1  0.75000000  0.44003800  0.55354100  1
  O  O59  1  0.25000000  0.55996200  0.44645900  1
  O  O60  1  0.05572100  0.77861900  0.92756700  1
  O  O61  1  0.44472000  0.01481700  0.42766000  1
  O  O62  1  0.05528000  0.01481700  0.42766000  1
  O  O63  1  0.25000000  0.94003800  0.94645900  1
  O  O64  1  0.94472000  0.51481700  0.07234000  1
  O  O65  1  0.75000000  0.05996200  0.05354100  1
  O  O66  1  0.75000000  0.83189700  0.53880400  1
  O  O67  1  0.55572100  0.27861900  0.57243300  1
  O  O68  1  0.44427900  0.77861900  0.92756700  1
  O  O69  1  0.25000000  0.33189700  0.96119600  1
  O  O70  1  0.25000000  0.16810300  0.46119600  1
  O  O71  1  0.44427900  0.72138100  0.42756700  1
  O  O72  1  0.94427900  0.27861900  0.57243300  1
  O  O73  1  0.44472000  0.48518300  0.92766000  1
  O  O74  1  0.55528000  0.98518300  0.57234000  1
  O  O75  1  0.55528000  0.51481700  0.07234000  1
