# generated using pymatgen
data_Ga(BiCl)4
_symmetry_space_group_name_H-M   'P 1'
_cell_length_a   18.29661377
_cell_length_b   18.29661377
_cell_length_c   13.49375600
_cell_angle_alpha   90.00000000
_cell_angle_beta   90.00000000
_cell_angle_gamma   120.00000000
_symmetry_Int_Tables_number   1
_chemical_formula_structural   Ga(BiCl)4
_chemical_formula_sum   'Ga12 Bi48 Cl48'
_cell_volume   3912.05476215
_cell_formula_units_Z   12
loop_
 _symmetry_equiv_pos_site_id
 _symmetry_equiv_pos_as_xyz
  1  'x, y, z'
loop_
 _atom_site_type_symbol
 _atom_site_label
 _atom_site_symmetry_multiplicity
 _atom_site_fract_x
 _atom_site_fract_y
 _atom_site_fract_z
 _atom_site_occupancy
  Ga  Ga0  1  0.33333333  0.66666667  0.23217400  1
  Ga  Ga1  1  0.66666667  0.33333333  0.73217400  1
  Ga  Ga2  1  0.33333333  0.66666667  0.69929900  1
  Ga  Ga3  1  0.69471800  0.05525200  0.50764200  1
  Ga  Ga4  1  0.30528200  0.94474800  0.00764200  1
  Ga  Ga5  1  0.94474800  0.63946600  0.50764200  1
  Ga  Ga6  1  0.00000000  0.00000000  0.79142100  1
  Ga  Ga7  1  0.00000000  0.00000000  0.29142100  1
  Ga  Ga8  1  0.63946600  0.69471800  0.00764200  1
  Ga  Ga9  1  0.66666667  0.33333333  0.19929900  1
  Ga  Ga10  1  0.05525200  0.36053400  0.00764200  1
  Ga  Ga11  1  0.36053400  0.30528200  0.50764200  1
  Bi  Bi12  1  0.76911200  0.14309400  0.14939800  1
  Bi  Bi13  1  0.77737800  0.14520000  0.92078100  1
  Bi  Bi14  1  0.53897700  0.58229800  0.41012400  1
  Bi  Bi15  1  0.63217800  0.77737800  0.42078100  1
  Bi  Bi16  1  0.14309400  0.37398200  0.64939800  1
  Bi  Bi17  1  0.41770200  0.95667900  0.41012400  1
  Bi  Bi18  1  0.22262200  0.85480000  0.42078100  1
  Bi  Bi19  1  0.46103900  0.12497000  0.52603600  1
  Bi  Bi20  1  0.31524400  0.05098800  0.37215400  1
  Bi  Bi21  1  0.85690600  0.62601800  0.14939800  1
  Bi  Bi22  1  0.32705300  0.05429500  0.69218500  1
  Bi  Bi23  1  0.53206600  0.57397800  0.63997900  1
  Bi  Bi24  1  0.85480000  0.63217800  0.92078100  1
  Bi  Bi25  1  0.66393100  0.53896100  0.52603600  1
  Bi  Bi26  1  0.87503000  0.33606900  0.52603600  1
  Bi  Bi27  1  0.20138700  0.18168300  0.03906600  1
  Bi  Bi28  1  0.37398200  0.23088800  0.14939800  1
  Bi  Bi29  1  0.95808800  0.53206600  0.13997900  1
  Bi  Bi30  1  0.58229800  0.04332100  0.91012400  1
  Bi  Bi31  1  0.72724200  0.67294700  0.69218500  1
  Bi  Bi32  1  0.67294700  0.94570500  0.19218500  1
  Bi  Bi33  1  0.94901200  0.26425600  0.37215400  1
  Bi  Bi34  1  0.04332100  0.46102300  0.41012400  1
  Bi  Bi35  1  0.05098800  0.73574400  0.87215400  1
  Bi  Bi36  1  0.26425600  0.31524400  0.87215400  1
  Bi  Bi37  1  0.01970400  0.20138700  0.53906600  1
  Bi  Bi38  1  0.79861300  0.81831700  0.53906600  1
  Bi  Bi39  1  0.94570500  0.27275800  0.69218500  1
  Bi  Bi40  1  0.46793400  0.42602200  0.13997900  1
  Bi  Bi41  1  0.62601800  0.76911200  0.64939800  1
  Bi  Bi42  1  0.36782200  0.22262200  0.92078100  1
  Bi  Bi43  1  0.04191200  0.46793400  0.63997900  1
  Bi  Bi44  1  0.12497000  0.66393100  0.02603600  1
  Bi  Bi45  1  0.73574400  0.68475600  0.37215400  1
  Bi  Bi46  1  0.33606900  0.46103900  0.02603600  1
  Bi  Bi47  1  0.95667900  0.53897700  0.91012400  1
  Bi  Bi48  1  0.14520000  0.36782200  0.42078100  1
  Bi  Bi49  1  0.42602200  0.95808800  0.63997900  1
  Bi  Bi50  1  0.46102300  0.41770200  0.91012400  1
  Bi  Bi51  1  0.18168300  0.98029600  0.53906600  1
  Bi  Bi52  1  0.27275800  0.32705300  0.19218500  1
  Bi  Bi53  1  0.57397800  0.04191200  0.13997900  1
  Bi  Bi54  1  0.23088800  0.85690600  0.64939800  1
  Bi  Bi55  1  0.81831700  0.01970400  0.03906600  1
  Bi  Bi56  1  0.53896100  0.87503000  0.02603600  1
  Bi  Bi57  1  0.68475600  0.94901200  0.87215400  1
  Bi  Bi58  1  0.05429500  0.72724200  0.19218500  1
  Bi  Bi59  1  0.98029600  0.79861300  0.03906600  1
  Cl  Cl60  1  0.54371600  0.67528500  0.89623900  1
  Cl  Cl61  1  0.65330100  0.58068500  0.01643100  1
  Cl  Cl62  1  0.33900200  0.55505700  0.75381100  1
  Cl  Cl63  1  0.67528500  0.13156900  0.39623900  1
  Cl  Cl64  1  0.44494300  0.78394500  0.75381100  1
  Cl  Cl65  1  0.21555400  0.65961500  0.28615300  1
  Cl  Cl66  1  0.80063900  0.03753100  0.46565200  1
  Cl  Cl67  1  0.34038500  0.55593900  0.28615300  1
  Cl  Cl68  1  0.96246900  0.76310800  0.46565200  1
  Cl  Cl69  1  0.32471500  0.86843100  0.89623900  1
  Cl  Cl70  1  0.40531400  0.28846500  0.65262900  1
  Cl  Cl71  1  0.66666667  0.33333333  0.56903800  1
  Cl  Cl72  1  0.34669900  0.41931500  0.51643100  1
  Cl  Cl73  1  0.44406100  0.78444600  0.28615300  1
  Cl  Cl74  1  0.86843100  0.54371600  0.39623900  1
  Cl  Cl75  1  0.13156900  0.45628400  0.89623900  1
  Cl  Cl76  1  0.23689200  0.19936100  0.46565200  1
  Cl  Cl77  1  0.66099800  0.44494300  0.25381100  1
  Cl  Cl78  1  0.19936100  0.96246900  0.96565200  1
  Cl  Cl79  1  0.07261600  0.65330100  0.51643100  1
  Cl  Cl80  1  0.55505700  0.21605500  0.25381100  1
  Cl  Cl81  1  0.78444600  0.34038500  0.78615300  1
  Cl  Cl82  1  0.10143300  0.97823600  0.23734300  1
  Cl  Cl83  1  0.45628400  0.32471500  0.39623900  1
  Cl  Cl84  1  0.92738400  0.34669900  0.01643100  1
  Cl  Cl85  1  0.21605500  0.66099800  0.75381100  1
  Cl  Cl86  1  0.58068500  0.92738400  0.51643100  1
  Cl  Cl87  1  0.89856700  0.02176400  0.73734300  1
  Cl  Cl88  1  0.87680300  0.89856700  0.23734300  1
  Cl  Cl89  1  0.11684900  0.40531400  0.15262900  1
  Cl  Cl90  1  0.66666667  0.33333333  0.03793900  1
  Cl  Cl91  1  0.03753100  0.23689200  0.96565200  1
  Cl  Cl92  1  0.00000000  0.00000000  0.45558100  1
  Cl  Cl93  1  0.78394500  0.33900200  0.25381100  1
  Cl  Cl94  1  0.00000000  0.00000000  0.95558100  1
  Cl  Cl95  1  0.02176400  0.12319700  0.23734300  1
  Cl  Cl96  1  0.28846500  0.88315100  0.15262900  1
  Cl  Cl97  1  0.41931500  0.07261600  0.01643100  1
  Cl  Cl98  1  0.88315100  0.59468600  0.65262900  1
  Cl  Cl99  1  0.33333333  0.66666667  0.53793900  1
  Cl  Cl100  1  0.12319700  0.10143300  0.73734300  1
  Cl  Cl101  1  0.33333333  0.66666667  0.06903800  1
  Cl  Cl102  1  0.71153500  0.11684900  0.65262900  1
  Cl  Cl103  1  0.76310800  0.80063900  0.96565200  1
  Cl  Cl104  1  0.65961500  0.44406100  0.78615300  1
  Cl  Cl105  1  0.59468600  0.71153500  0.15262900  1
  Cl  Cl106  1  0.55593900  0.21555400  0.78615300  1
  Cl  Cl107  1  0.97823600  0.87680300  0.73734300  1
