# generated using pymatgen
data_Mg2SiO4
_symmetry_space_group_name_H-M   'P 1'
_cell_length_a   5.77250580
_cell_length_b   5.77250580
_cell_length_c   71.33917230
_cell_angle_alpha   90.00000000
_cell_angle_beta   90.00000000
_cell_angle_gamma   120.00000000
_symmetry_Int_Tables_number   1
_chemical_formula_structural   Mg2SiO4
_chemical_formula_sum   'Mg60 Si30 O120'
_cell_volume   2058.67340041
_cell_formula_units_Z   30
loop_
 _symmetry_equiv_pos_site_id
 _symmetry_equiv_pos_as_xyz
  1  'x, y, z'
loop_
 _atom_site_type_symbol
 _atom_site_label
 _atom_site_symmetry_multiplicity
 _atom_site_fract_x
 _atom_site_fract_y
 _atom_site_fract_z
 _atom_site_occupancy
  Mg  Mg0  1  0.33333333  0.66666667  0.31975967  1
  Mg  Mg1  1  0.83672767  0.16327233  0.29142833  1
  Mg  Mg2  1  0.83672767  0.67345533  0.29142833  1
  Mg  Mg3  1  0.00000000  0.00000000  0.25065700  1
  Mg  Mg4  1  0.32654467  0.16327233  0.29142833  1
  Mg  Mg5  1  0.50227133  0.49772867  0.22396867  1
  Mg  Mg6  1  0.50227133  0.00454267  0.22396867  1
  Mg  Mg7  1  0.99545733  0.49772867  0.22396867  1
  Mg  Mg8  1  0.16700000  0.83300000  0.15792500  1
  Mg  Mg9  1  0.16700000  0.33400000  0.15792500  1
  Mg  Mg10  1  0.33333333  0.66666667  0.19122567  1
  Mg  Mg11  1  0.66600000  0.83300000  0.15792500  1
  Mg  Mg12  1  0.83326467  0.16673533  0.09178433  1
  Mg  Mg13  1  0.83326467  0.66652933  0.09178433  1
  Mg  Mg14  1  0.00000000  0.00000000  0.12484300  1
  Mg  Mg15  1  0.33347067  0.16673533  0.09178433  1
  Mg  Mg16  1  0.50035567  0.49964433  0.02609033  1
  Mg  Mg17  1  0.66666667  0.33333333  0.05844833  1
  Mg  Mg18  1  0.50035567  0.00071133  0.02609033  1
  Mg  Mg19  1  0.99928867  0.49964433  0.02609033  1
  Mg  Mg20  1  0.00000000  0.00000000  0.65309300  1
  Mg  Mg21  1  0.50339433  0.49660567  0.62476167  1
  Mg  Mg22  1  0.50339433  0.00678867  0.62476167  1
  Mg  Mg23  1  0.66666667  0.33333333  0.58399033  1
  Mg  Mg24  1  0.99321133  0.49660567  0.62476167  1
  Mg  Mg25  1  0.16893800  0.83106200  0.55730200  1
  Mg  Mg26  1  0.16893800  0.33787600  0.55730200  1
  Mg  Mg27  1  0.66212400  0.83106200  0.55730200  1
  Mg  Mg28  1  0.83366667  0.16633333  0.49125833  1
  Mg  Mg29  1  0.83366667  0.66733333  0.49125833  1
  Mg  Mg30  1  0.00000000  0.00000000  0.52455900  1
  Mg  Mg31  1  0.33266667  0.16633333  0.49125833  1
  Mg  Mg32  1  0.49993133  0.50006867  0.42511767  1
  Mg  Mg33  1  0.49993133  0.99986267  0.42511767  1
  Mg  Mg34  1  0.66666667  0.33333333  0.45817633  1
  Mg  Mg35  1  0.00013733  0.50006867  0.42511767  1
  Mg  Mg36  1  0.16702233  0.83297767  0.35942367  1
  Mg  Mg37  1  0.33333333  0.66666667  0.39178167  1
  Mg  Mg38  1  0.16702233  0.33404467  0.35942367  1
  Mg  Mg39  1  0.66595533  0.83297767  0.35942367  1
  Mg  Mg40  1  0.66666667  0.33333333  0.98642633  1
  Mg  Mg41  1  0.17006100  0.82993900  0.95809500  1
  Mg  Mg42  1  0.17006100  0.34012200  0.95809500  1
  Mg  Mg43  1  0.33333333  0.66666667  0.91732367  1
  Mg  Mg44  1  0.65987800  0.82993900  0.95809500  1
  Mg  Mg45  1  0.83560467  0.16439533  0.89063533  1
  Mg  Mg46  1  0.83560467  0.67120933  0.89063533  1
  Mg  Mg47  1  0.32879067  0.16439533  0.89063533  1
  Mg  Mg48  1  0.50033333  0.49966667  0.82459167  1
  Mg  Mg49  1  0.50033333  0.00066667  0.82459167  1
  Mg  Mg50  1  0.66666667  0.33333333  0.85789233  1
  Mg  Mg51  1  0.99933333  0.49966667  0.82459167  1
  Mg  Mg52  1  0.16659800  0.83340200  0.75845100  1
  Mg  Mg53  1  0.16659800  0.33319600  0.75845100  1
  Mg  Mg54  1  0.33333333  0.66666667  0.79150967  1
  Mg  Mg55  1  0.66680400  0.83340200  0.75845100  1
  Mg  Mg56  1  0.83368900  0.16631100  0.69275700  1
  Mg  Mg57  1  0.00000000  0.00000000  0.72511500  1
  Mg  Mg58  1  0.83368900  0.66737800  0.69275700  1
  Mg  Mg59  1  0.33262200  0.16631100  0.69275700  1
  Si  Si60  1  0.66666667  0.33333333  0.33217433  1
  Si  Si61  1  0.33333333  0.66666667  0.26488967  1
  Si  Si62  1  0.00000000  0.00000000  0.32200500  1
  Si  Si63  1  0.00000000  0.00000000  0.19963800  1
  Si  Si64  1  0.66666667  0.33333333  0.25463733  1
  Si  Si65  1  0.66666667  0.33333333  0.18254233  1
  Si  Si66  1  0.33333333  0.66666667  0.11669567  1
  Si  Si67  1  0.33333333  0.66666667  0.06702867  1
  Si  Si68  1  0.00000000  0.00000000  0.05120300  1
  Si  Si69  1  0.66666667  0.33333333  0.13322833  1
  Si  Si70  1  0.33333333  0.66666667  0.66550767  1
  Si  Si71  1  0.00000000  0.00000000  0.59822300  1
  Si  Si72  1  0.66666667  0.33333333  0.65533833  1
  Si  Si73  1  0.66666667  0.33333333  0.53297133  1
  Si  Si74  1  0.33333333  0.66666667  0.58797067  1
  Si  Si75  1  0.33333333  0.66666667  0.51587567  1
  Si  Si76  1  0.00000000  0.00000000  0.45002900  1
  Si  Si77  1  0.00000000  0.00000000  0.40036200  1
  Si  Si78  1  0.66666667  0.33333333  0.38453633  1
  Si  Si79  1  0.33333333  0.66666667  0.46656167  1
  Si  Si80  1  0.00000000  0.00000000  0.99884100  1
  Si  Si81  1  0.66666667  0.33333333  0.93155633  1
  Si  Si82  1  0.33333333  0.66666667  0.98867167  1
  Si  Si83  1  0.33333333  0.66666667  0.86630467  1
  Si  Si84  1  0.00000000  0.00000000  0.92130400  1
  Si  Si85  1  0.00000000  0.00000000  0.84920900  1
  Si  Si86  1  0.66666667  0.33333333  0.78336233  1
  Si  Si87  1  0.66666667  0.33333333  0.73369533  1
  Si  Si88  1  0.33333333  0.66666667  0.71786967  1
  Si  Si89  1  0.00000000  0.00000000  0.79989500  1
  O  O90  1  0.70406933  0.85203467  0.31012467  1
  O  O91  1  0.14796533  0.29593067  0.31012467  1
  O  O92  1  0.00000000  0.00000000  0.27685300  1
  O  O93  1  0.49701600  0.50298400  0.27290900  1
  O  O94  1  0.37641667  0.18820833  0.24224133  1
  O  O95  1  0.14796533  0.85203467  0.31012467  1
  O  O96  1  0.66666667  0.33333333  0.30875833  1
  O  O97  1  0.49701600  0.99403200  0.27290900  1
  O  O98  1  0.66666667  0.33333333  0.20582933  1
  O  O99  1  0.81179167  0.62358333  0.24224133  1
  O  O100  1  0.15735533  0.84264467  0.20799967  1
  O  O101  1  0.98585600  0.49292800  0.17502900  1
  O  O102  1  0.81179167  0.18820833  0.24224133  1
  O  O103  1  0.00596800  0.50298400  0.27290900  1
  O  O104  1  0.33333333  0.66666667  0.24169267  1
  O  O105  1  0.15735533  0.31471067  0.20799967  1
  O  O106  1  0.50707200  0.01414400  0.17502900  1
  O  O107  1  0.33333333  0.66666667  0.14037067  1
  O  O108  1  0.82522133  0.17477867  0.14127267  1
  O  O109  1  0.65060000  0.82530000  0.10896900  1
  O  O110  1  0.50707200  0.49292800  0.17502900  1
  O  O111  1  0.68528933  0.84264467  0.20799967  1
  O  O112  1  0.82522133  0.65044267  0.14127267  1
  O  O113  1  0.00000000  0.00000000  0.17618600  1
  O  O114  1  0.17470000  0.34940000  0.10896900  1
  O  O115  1  0.00000000  0.00000000  0.07485600  1
  O  O116  1  0.49179133  0.50820867  0.07497067  1
  O  O117  1  0.31191400  0.15595700  0.04316100  1
  O  O118  1  0.17470000  0.82530000  0.10896900  1
  O  O119  1  0.34955733  0.17477867  0.14127267  1
  O  O120  1  0.49179133  0.98358267  0.07497067  1
  O  O121  1  0.66666667  0.33333333  0.10973433  1
  O  O122  1  0.84404300  0.68808600  0.04316100  1
  O  O123  1  0.66666667  0.33333333  0.01290933  1
  O  O124  1  0.16436200  0.83563800  0.00674500  1
  O  O125  1  0.84404300  0.15595700  0.04316100  1
  O  O126  1  0.01641733  0.50820867  0.07497067  1
  O  O127  1  0.33333333  0.66666667  0.04335667  1
  O  O128  1  0.16436200  0.32872400  0.00674500  1
  O  O129  1  0.67127600  0.83563800  0.00674500  1
  O  O130  1  0.37073600  0.18536800  0.64345800  1
  O  O131  1  0.81463200  0.62926400  0.64345800  1
  O  O132  1  0.66666667  0.33333333  0.61018633  1
  O  O133  1  0.16368267  0.83631733  0.60624233  1
  O  O134  1  0.04308333  0.52154167  0.57557467  1
  O  O135  1  0.81463200  0.18536800  0.64345800  1
  O  O136  1  0.33333333  0.66666667  0.64209167  1
  O  O137  1  0.16368267  0.32736533  0.60624233  1
  O  O138  1  0.33333333  0.66666667  0.53916267  1
  O  O139  1  0.47845833  0.95691667  0.57557467  1
  O  O140  1  0.82402200  0.17597800  0.54133300  1
  O  O141  1  0.65252267  0.82626133  0.50836233  1
  O  O142  1  0.47845833  0.52154167  0.57557467  1
  O  O143  1  0.67263467  0.83631733  0.60624233  1
  O  O144  1  0.00000000  0.00000000  0.57502600  1
  O  O145  1  0.82402200  0.64804400  0.54133300  1
  O  O146  1  0.17373867  0.34747733  0.50836233  1
  O  O147  1  0.00000000  0.00000000  0.47370400  1
  O  O148  1  0.49188800  0.50811200  0.47460600  1
  O  O149  1  0.31726667  0.15863333  0.44230233  1
  O  O150  1  0.17373867  0.82626133  0.50836233  1
  O  O151  1  0.35195600  0.17597800  0.54133300  1
  O  O152  1  0.49188800  0.98377600  0.47460600  1
  O  O153  1  0.66666667  0.33333333  0.50951933  1
  O  O154  1  0.84136667  0.68273333  0.44230233  1
  O  O155  1  0.66666667  0.33333333  0.40818933  1
  O  O156  1  0.15845800  0.84154200  0.40830400  1
  O  O157  1  0.97858067  0.48929033  0.37649433  1
  O  O158  1  0.84136667  0.15863333  0.44230233  1
  O  O159  1  0.01622400  0.50811200  0.47460600  1
  O  O160  1  0.15845800  0.31691600  0.40830400  1
  O  O161  1  0.33333333  0.66666667  0.44306767  1
  O  O162  1  0.51070967  0.02141933  0.37649433  1
  O  O163  1  0.33333333  0.66666667  0.34624267  1
  O  O164  1  0.83102867  0.16897133  0.34007833  1
  O  O165  1  0.51070967  0.48929033  0.37649433  1
  O  O166  1  0.68308400  0.84154200  0.40830400  1
  O  O167  1  0.00000000  0.00000000  0.37669000  1
  O  O168  1  0.83102867  0.66205733  0.34007833  1
  O  O169  1  0.33794267  0.16897133  0.34007833  1
  O  O170  1  0.03740267  0.51870133  0.97679133  1
  O  O171  1  0.48129867  0.96259733  0.97679133  1
  O  O172  1  0.33333333  0.66666667  0.94351967  1
  O  O173  1  0.83034933  0.16965067  0.93957567  1
  O  O174  1  0.70975000  0.85487500  0.90890800  1
  O  O175  1  0.48129867  0.51870133  0.97679133  1
  O  O176  1  0.00000000  0.00000000  0.97542500  1
  O  O177  1  0.83034933  0.66069867  0.93957567  1
  O  O178  1  0.00000000  0.00000000  0.87249600  1
  O  O179  1  0.14512500  0.29025000  0.90890800  1
  O  O180  1  0.49068867  0.50931133  0.87466633  1
  O  O181  1  0.31918933  0.15959467  0.84169567  1
  O  O182  1  0.14512500  0.85487500  0.90890800  1
  O  O183  1  0.33930133  0.16965067  0.93957567  1
  O  O184  1  0.66666667  0.33333333  0.90835933  1
  O  O185  1  0.49068867  0.98137733  0.87466633  1
  O  O186  1  0.84040533  0.68081067  0.84169567  1
  O  O187  1  0.66666667  0.33333333  0.80703733  1
  O  O188  1  0.15855467  0.84144533  0.80793933  1
  O  O189  1  0.98393333  0.49196667  0.77563567  1
  O  O190  1  0.84040533  0.15959467  0.84169567  1
  O  O191  1  0.01862267  0.50931133  0.87466633  1
  O  O192  1  0.15855467  0.31710933  0.80793933  1
  O  O193  1  0.33333333  0.66666667  0.84285267  1
  O  O194  1  0.50803333  0.01606667  0.77563567  1
  O  O195  1  0.33333333  0.66666667  0.74152267  1
  O  O196  1  0.82512467  0.17487533  0.74163733  1
  O  O197  1  0.64524733  0.82262367  0.70982767  1
  O  O198  1  0.50803333  0.49196667  0.77563567  1
  O  O199  1  0.68289067  0.84144533  0.80793933  1
  O  O200  1  0.82512467  0.65024933  0.74163733  1
  O  O201  1  0.00000000  0.00000000  0.77640100  1
  O  O202  1  0.17737633  0.35475267  0.70982767  1
  O  O203  1  0.00000000  0.00000000  0.67957600  1
  O  O204  1  0.49769533  0.50230467  0.67341167  1
  O  O205  1  0.17737633  0.82262367  0.70982767  1
  O  O206  1  0.34975067  0.17487533  0.74163733  1
  O  O207  1  0.66666667  0.33333333  0.71002333  1
  O  O208  1  0.49769533  0.99539067  0.67341167  1
  O  O209  1  0.00460933  0.50230467  0.67341167  1
