# generated using pymatgen
data_CdSbS2Br
_symmetry_space_group_name_H-M   'P 1'
_cell_length_a   13.20089000
_cell_length_b   3.97388200
_cell_length_c   9.84493534
_cell_angle_alpha   90.00000000
_cell_angle_beta   91.60664460
_cell_angle_gamma   90.00000000
_symmetry_Int_Tables_number   1
_chemical_formula_structural   CdSbS2Br
_chemical_formula_sum   'Cd4 Sb4 S8 Br4'
_cell_volume   516.25025548
_cell_formula_units_Z   4
loop_
 _symmetry_equiv_pos_site_id
 _symmetry_equiv_pos_as_xyz
  1  'x, y, z'
loop_
 _atom_site_type_symbol
 _atom_site_label
 _atom_site_symmetry_multiplicity
 _atom_site_fract_x
 _atom_site_fract_y
 _atom_site_fract_z
 _atom_site_occupancy
  Cd  Cd0  1  0.00000000  0.00000000  0.00000000  1
  Cd  Cd1  1  0.00000000  0.00000000  0.50000000  1
  Cd  Cd2  1  0.50000000  0.50000000  0.00000000  1
  Cd  Cd3  1  0.50000000  0.50000000  0.50000000  1
  Sb  Sb4  1  0.71385800  0.00000000  0.31525900  1
  Sb  Sb5  1  0.78614200  0.50000000  0.68474100  1
  Sb  Sb6  1  0.21385800  0.50000000  0.31525900  1
  Sb  Sb7  1  0.28614200  0.00000000  0.68474100  1
  S  S8  1  0.58594200  0.50000000  0.26116100  1
  S  S9  1  0.64642100  0.00000000  0.55048600  1
  S  S10  1  0.85357900  0.50000000  0.44951400  1
  S  S11  1  0.91405800  0.00000000  0.73883900  1
  S  S12  1  0.08594200  0.00000000  0.26116100  1
  S  S13  1  0.14642100  0.50000000  0.55048600  1
  S  S14  1  0.35357900  0.00000000  0.44951400  1
  S  S15  1  0.41405800  0.50000000  0.73883900  1
  Br  Br16  1  0.63447800  0.00000000  0.92444500  1
  Br  Br17  1  0.86552200  0.50000000  0.07555500  1
  Br  Br18  1  0.13447800  0.50000000  0.92444500  1
  Br  Br19  1  0.36552200  0.00000000  0.07555500  1
