# generated using pymatgen
data_NaLi3(H2N)4
_symmetry_space_group_name_H-M   'P 1'
_cell_length_a   5.11684200
_cell_length_b   5.11684200
_cell_length_c   11.69413200
_cell_angle_alpha   90.00000000
_cell_angle_beta   90.00000000
_cell_angle_gamma   90.00000000
_symmetry_Int_Tables_number   1
_chemical_formula_structural   NaLi3(H2N)4
_chemical_formula_sum   'Na2 Li6 H16 N8'
_cell_volume   306.17660662
_cell_formula_units_Z   2
loop_
 _symmetry_equiv_pos_site_id
 _symmetry_equiv_pos_as_xyz
  1  'x, y, z'
loop_
 _atom_site_type_symbol
 _atom_site_label
 _atom_site_symmetry_multiplicity
 _atom_site_fract_x
 _atom_site_fract_y
 _atom_site_fract_z
 _atom_site_occupancy
  Na  Na0  1  0.50000000  0.00000000  0.25000000  1
  Na  Na1  1  0.00000000  0.50000000  0.75000000  1
  Li  Li2  1  0.00000000  0.00000000  0.00000000  1
  Li  Li3  1  0.50000000  0.00000000  0.01018100  1
  Li  Li4  1  0.50000000  0.00000000  0.48981900  1
  Li  Li5  1  0.50000000  0.50000000  0.50000000  1
  Li  Li6  1  0.00000000  0.50000000  0.51018100  1
  Li  Li7  1  0.00000000  0.50000000  0.98981900  1
  H  H8  1  0.66778050  0.41293950  0.10807150  1
  H  H9  1  0.91293950  0.83221950  0.39192850  1
  H  H10  1  0.08706050  0.16778050  0.39192850  1
  H  H11  1  0.33221950  0.58706050  0.10807150  1
  H  H12  1  0.89204450  0.24252750  0.16794850  1
  H  H13  1  0.74252750  0.60795550  0.33205150  1
  H  H14  1  0.25747250  0.39204450  0.33205150  1
  H  H15  1  0.10795550  0.75747250  0.16794850  1
  H  H16  1  0.16778050  0.91293950  0.60807150  1
  H  H17  1  0.41293950  0.33221950  0.89192850  1
  H  H18  1  0.58706050  0.66778050  0.89192850  1
  H  H19  1  0.83221950  0.08706050  0.60807150  1
  H  H20  1  0.39204450  0.74252750  0.66794850  1
  H  H21  1  0.24252750  0.10795550  0.83205150  1
  H  H22  1  0.75747250  0.89204450  0.83205150  1
  H  H23  1  0.60795550  0.25747250  0.66794850  1
  N  N24  1  0.76423350  0.23763050  0.10002850  1
  N  N25  1  0.73763050  0.73576650  0.39997150  1
  N  N26  1  0.26236950  0.26423350  0.39997150  1
  N  N27  1  0.23576650  0.76236950  0.10002850  1
  N  N28  1  0.26423350  0.73763050  0.60002850  1
  N  N29  1  0.23763050  0.23576650  0.89997150  1
  N  N30  1  0.76236950  0.76423350  0.89997150  1
  N  N31  1  0.73576650  0.26236950  0.60002850  1
