# generated using pymatgen
data_SrU(SeO4)2
_symmetry_space_group_name_H-M   'P 1'
_cell_length_a   5.81231554
_cell_length_b   6.88887030
_cell_length_c   11.47307514
_cell_angle_alpha   104.76538182
_cell_angle_beta   94.04440200
_cell_angle_gamma   109.42835871
_symmetry_Int_Tables_number   1
_chemical_formula_structural   SrU(SeO4)2
_chemical_formula_sum   'Sr2 U2 Se4 O16'
_cell_volume   412.80094035
_cell_formula_units_Z   2
loop_
 _symmetry_equiv_pos_site_id
 _symmetry_equiv_pos_as_xyz
  1  'x, y, z'
loop_
 _atom_site_type_symbol
 _atom_site_label
 _atom_site_symmetry_multiplicity
 _atom_site_fract_x
 _atom_site_fract_y
 _atom_site_fract_z
 _atom_site_occupancy
  Sr  Sr0  1  0.76937877  0.18871751  0.56254769  1
  Sr  Sr1  1  0.23062123  0.81128249  0.43745231  1
  U  U2  1  0.00572770  0.09945261  0.16320381  1
  U  U3  1  0.99427230  0.90054739  0.83679619  1
  Se  Se4  1  0.82099544  0.31341863  0.87767135  1
  Se  Se5  1  0.38582790  0.35007722  0.34168873  1
  Se  Se6  1  0.17900456  0.68658137  0.12232865  1
  Se  Se7  1  0.61417210  0.64992278  0.65831127  1
  O  O8  1  0.06346752  0.83542018  0.02969157  1
  O  O9  1  0.96175396  0.42575300  0.15765905  1
  O  O10  1  0.65181918  0.75436005  0.91095172  1
  O  O11  1  0.34818082  0.24563995  0.08904828  1
  O  O12  1  0.49299100  0.19520745  0.42684466  1
  O  O13  1  0.92871721  0.22722837  0.75273620  1
  O  O14  1  0.33863853  0.05300240  0.75704686  1
  O  O15  1  0.23191229  0.45151451  0.44253204  1
  O  O16  1  0.66136147  0.94699760  0.24295314  1
  O  O17  1  0.93653248  0.16457982  0.97030843  1
  O  O18  1  0.50700900  0.80479255  0.57315534  1
  O  O19  1  0.07128279  0.77277163  0.24726380  1
  O  O20  1  0.76808771  0.54848549  0.55746796  1
  O  O21  1  0.90106621  0.86273635  0.65858760  1
  O  O22  1  0.09893379  0.13726365  0.34141240  1
  O  O23  1  0.03824604  0.57424700  0.84234095  1
