# generated using pymatgen
data_BPBr2NCl3
_symmetry_space_group_name_H-M   'P 1'
_cell_length_a   12.56322600
_cell_length_b   13.73014000
_cell_length_c   10.49192300
_cell_angle_alpha   90.00000000
_cell_angle_beta   90.00000000
_cell_angle_gamma   90.00000000
_symmetry_Int_Tables_number   1
_chemical_formula_structural   BPBr2NCl3
_chemical_formula_sum   'B8 P8 Br16 N8 Cl24'
_cell_volume   1809.80270331
_cell_formula_units_Z   8
loop_
 _symmetry_equiv_pos_site_id
 _symmetry_equiv_pos_as_xyz
  1  'x, y, z'
loop_
 _atom_site_type_symbol
 _atom_site_label
 _atom_site_symmetry_multiplicity
 _atom_site_fract_x
 _atom_site_fract_y
 _atom_site_fract_z
 _atom_site_occupancy
  B  B0  1  0.50000000  0.91975500  0.00000000  1
  B  B1  1  0.50000000  0.58024500  0.50000000  1
  B  B2  1  0.50000000  0.08024500  0.00000000  1
  B  B3  1  0.50000000  0.41975500  0.50000000  1
  B  B4  1  0.00000000  0.41975500  0.00000000  1
  B  B5  1  0.00000000  0.08024500  0.50000000  1
  B  B6  1  0.00000000  0.58024500  0.00000000  1
  B  B7  1  0.00000000  0.91975500  0.50000000  1
  P  P8  1  0.99921900  0.00000000  0.24651100  1
  P  P9  1  0.00078100  0.00000000  0.75348900  1
  P  P10  1  0.49921900  0.00000000  0.25348900  1
  P  P11  1  0.50078100  0.00000000  0.74651100  1
  P  P12  1  0.49921900  0.50000000  0.24651100  1
  P  P13  1  0.50078100  0.50000000  0.75348900  1
  P  P14  1  0.99921900  0.50000000  0.25348900  1
  P  P15  1  0.00078100  0.50000000  0.74651100  1
  Br  Br16  1  0.63139000  0.33452800  0.48002700  1
  Br  Br17  1  0.36861000  0.16547200  0.98002700  1
  Br  Br18  1  0.36861000  0.83452800  0.98002700  1
  Br  Br19  1  0.63139000  0.83452800  0.01997300  1
  Br  Br20  1  0.63139000  0.16547200  0.01997300  1
  Br  Br21  1  0.36861000  0.66547200  0.51997300  1
  Br  Br22  1  0.36861000  0.33452800  0.51997300  1
  Br  Br23  1  0.63139000  0.66547200  0.48002700  1
  Br  Br24  1  0.13139000  0.83452800  0.48002700  1
  Br  Br25  1  0.86861000  0.66547200  0.98002700  1
  Br  Br26  1  0.86861000  0.33452800  0.98002700  1
  Br  Br27  1  0.13139000  0.33452800  0.01997300  1
  Br  Br28  1  0.13139000  0.66547200  0.01997300  1
  Br  Br29  1  0.86861000  0.16547200  0.51997300  1
  Br  Br30  1  0.86861000  0.83452800  0.51997300  1
  Br  Br31  1  0.13139000  0.16547200  0.48002700  1
  N  N32  1  0.48877100  0.00000000  0.10390500  1
  N  N33  1  0.01122900  0.00000000  0.60390500  1
  N  N34  1  0.51122900  0.00000000  0.89609500  1
  N  N35  1  0.98877100  0.00000000  0.39609500  1
  N  N36  1  0.98877100  0.50000000  0.10390500  1
  N  N37  1  0.51122900  0.50000000  0.60390500  1
  N  N38  1  0.01122900  0.50000000  0.89609500  1
  N  N39  1  0.48877100  0.50000000  0.39609500  1
  Cl  Cl40  1  0.56884450  0.11676650  0.67142000  1
  Cl  Cl41  1  0.35308800  0.00000000  0.67485900  1
  Cl  Cl42  1  0.56884450  0.38323350  0.82858000  1
  Cl  Cl43  1  0.64691200  0.00000000  0.32514100  1
  Cl  Cl44  1  0.43115550  0.61676650  0.17142000  1
  Cl  Cl45  1  0.43115550  0.88323350  0.32858000  1
  Cl  Cl46  1  0.56884450  0.61676650  0.82858000  1
  Cl  Cl47  1  0.43115550  0.38323350  0.17142000  1
  Cl  Cl48  1  0.14691200  0.00000000  0.17485900  1
  Cl  Cl49  1  0.56884450  0.88323350  0.67142000  1
  Cl  Cl50  1  0.85308800  0.00000000  0.82514100  1
  Cl  Cl51  1  0.43115550  0.11676650  0.32858000  1
  Cl  Cl52  1  0.06884450  0.61676650  0.67142000  1
  Cl  Cl53  1  0.85308800  0.50000000  0.67485900  1
  Cl  Cl54  1  0.06884450  0.88323350  0.82858000  1
  Cl  Cl55  1  0.14691200  0.50000000  0.32514100  1
  Cl  Cl56  1  0.93115550  0.11676650  0.17142000  1
  Cl  Cl57  1  0.93115550  0.38323350  0.32858000  1
  Cl  Cl58  1  0.06884450  0.11676650  0.82858000  1
  Cl  Cl59  1  0.93115550  0.88323350  0.17142000  1
  Cl  Cl60  1  0.64691200  0.50000000  0.17485900  1
  Cl  Cl61  1  0.06884450  0.38323350  0.67142000  1
  Cl  Cl62  1  0.35308800  0.50000000  0.82514100  1
  Cl  Cl63  1  0.93115550  0.61676650  0.32858000  1
