# generated using pymatgen
data_K2PuCl6
_symmetry_space_group_name_H-M   'P 1'
_cell_length_a   12.81230000
_cell_length_b   7.44392000
_cell_length_c   7.45741023
_cell_angle_alpha   90.00000000
_cell_angle_beta   125.34614749
_cell_angle_gamma   90.00000000
_symmetry_Int_Tables_number   1
_chemical_formula_structural   K2PuCl6
_chemical_formula_sum   'K4 Pu2 Cl12'
_cell_volume   580.13936265
_cell_formula_units_Z   2
loop_
 _symmetry_equiv_pos_site_id
 _symmetry_equiv_pos_as_xyz
  1  'x, y, z'
loop_
 _atom_site_type_symbol
 _atom_site_label
 _atom_site_symmetry_multiplicity
 _atom_site_fract_x
 _atom_site_fract_y
 _atom_site_fract_z
 _atom_site_occupancy
  K  K0  1  0.22737300  0.50000000  0.21818300  1
  K  K1  1  0.27262700  0.00000000  0.78181700  1
  K  K2  1  0.72737300  0.00000000  0.21818300  1
  K  K3  1  0.77262700  0.50000000  0.78181700  1
  Pu  Pu4  1  0.00000000  0.00000000  0.00000000  1
  Pu  Pu5  1  0.50000000  0.50000000  0.00000000  1
  Cl  Cl6  1  0.75234000  0.00000000  0.76165600  1
  Cl  Cl7  1  0.74766000  0.50000000  0.23834400  1
  Cl  Cl8  1  0.00262100  0.25000200  0.24433700  1
  Cl  Cl9  1  0.49737900  0.75000200  0.75566300  1
  Cl  Cl10  1  0.49737900  0.24999800  0.75566300  1
  Cl  Cl11  1  0.00262100  0.74999800  0.24433700  1
  Cl  Cl12  1  0.25234000  0.50000000  0.76165600  1
  Cl  Cl13  1  0.24766000  0.00000000  0.23834400  1
  Cl  Cl14  1  0.50262100  0.75000200  0.24433700  1
  Cl  Cl15  1  0.99737900  0.25000200  0.75566300  1
  Cl  Cl16  1  0.99737900  0.74999800  0.75566300  1
  Cl  Cl17  1  0.50262100  0.24999800  0.24433700  1
