# generated using pymatgen
data_KGd(PO3)4
_symmetry_space_group_name_H-M   'P 1'
_cell_length_a   7.96579200
_cell_length_b   12.59285200
_cell_length_c   10.63716490
_cell_angle_alpha   90.00000000
_cell_angle_beta   110.77535076
_cell_angle_gamma   90.00000000
_symmetry_Int_Tables_number   1
_chemical_formula_structural   KGd(PO3)4
_chemical_formula_sum   'K4 Gd4 P16 O48'
_cell_volume   997.65529695
_cell_formula_units_Z   4
loop_
 _symmetry_equiv_pos_site_id
 _symmetry_equiv_pos_as_xyz
  1  'x, y, z'
loop_
 _atom_site_type_symbol
 _atom_site_label
 _atom_site_symmetry_multiplicity
 _atom_site_fract_x
 _atom_site_fract_y
 _atom_site_fract_z
 _atom_site_occupancy
  K  K0  1  0.50000000  0.68437600  0.75000000  1
  K  K1  1  0.50000000  0.31562400  0.25000000  1
  K  K2  1  0.00000000  0.18437600  0.75000000  1
  K  K3  1  0.00000000  0.81562400  0.25000000  1
  Gd  Gd4  1  0.50000000  0.62026100  0.25000000  1
  Gd  Gd5  1  0.50000000  0.37973900  0.75000000  1
  Gd  Gd6  1  0.00000000  0.12026100  0.25000000  1
  Gd  Gd7  1  0.00000000  0.87973900  0.75000000  1
  P  P8  1  0.28013900  0.97635800  0.55666500  1
  P  P9  1  0.71986100  0.02364200  0.44333500  1
  P  P10  1  0.45648700  0.16981200  0.50231700  1
  P  P11  1  0.45648700  0.83018800  0.00231700  1
  P  P12  1  0.71986100  0.97635800  0.94333500  1
  P  P13  1  0.54351300  0.83018800  0.49768300  1
  P  P14  1  0.28013900  0.02364200  0.05666500  1
  P  P15  1  0.54351300  0.16981200  0.99768300  1
  P  P16  1  0.78013900  0.47635800  0.55666500  1
  P  P17  1  0.21986100  0.52364200  0.44333500  1
  P  P18  1  0.95648700  0.66981200  0.50231700  1
  P  P19  1  0.95648700  0.33018800  0.00231700  1
  P  P20  1  0.21986100  0.47635800  0.94333500  1
  P  P21  1  0.04351300  0.33018800  0.49768300  1
  P  P22  1  0.78013900  0.52364200  0.05666500  1
  P  P23  1  0.04351300  0.66981200  0.99768300  1
  O  O24  1  0.85071050  0.01214050  0.58498700  1
  O  O25  1  0.85071050  0.98785950  0.08498700  1
  O  O26  1  0.44563650  0.74547350  0.39947000  1
  O  O27  1  0.42787150  0.07098650  0.58778400  1
  O  O28  1  0.21602300  0.02977600  0.17212000  1
  O  O29  1  0.55436350  0.25452650  0.60053000  1
  O  O30  1  0.57212850  0.07098650  0.91221600  1
  O  O31  1  0.78397700  0.02977600  0.32788000  1
  O  O32  1  0.59678650  0.12726050  0.43386700  1
  O  O33  1  0.78397700  0.97022400  0.82788000  1
  O  O34  1  0.44563650  0.25452650  0.89947000  1
  O  O35  1  0.40321350  0.12726050  0.06613300  1
  O  O36  1  0.59678650  0.87273950  0.93386700  1
  O  O37  1  0.21602300  0.97022400  0.67212000  1
  O  O38  1  0.14928950  0.98785950  0.41501300  1
  O  O39  1  0.55436350  0.74547350  0.10053000  1
  O  O40  1  0.70989500  0.80124200  0.61393900  1
  O  O41  1  0.29010500  0.19875800  0.38606100  1
  O  O42  1  0.40321350  0.87273950  0.56613300  1
  O  O43  1  0.70989500  0.19875800  0.11393900  1
  O  O44  1  0.14928950  0.01214050  0.91501300  1
  O  O45  1  0.42787150  0.92901350  0.08778400  1
  O  O46  1  0.57212850  0.92901350  0.41221600  1
  O  O47  1  0.29010500  0.80124200  0.88606100  1
  O  O48  1  0.35071050  0.51214050  0.58498700  1
  O  O49  1  0.35071050  0.48785950  0.08498700  1
  O  O50  1  0.94563650  0.24547350  0.39947000  1
  O  O51  1  0.92787150  0.57098650  0.58778400  1
  O  O52  1  0.71602300  0.52977600  0.17212000  1
  O  O53  1  0.05436350  0.75452650  0.60053000  1
  O  O54  1  0.07212850  0.57098650  0.91221600  1
  O  O55  1  0.28397700  0.52977600  0.32788000  1
  O  O56  1  0.09678650  0.62726050  0.43386700  1
  O  O57  1  0.28397700  0.47022400  0.82788000  1
  O  O58  1  0.94563650  0.75452650  0.89947000  1
  O  O59  1  0.90321350  0.62726050  0.06613300  1
  O  O60  1  0.09678650  0.37273950  0.93386700  1
  O  O61  1  0.71602300  0.47022400  0.67212000  1
  O  O62  1  0.64928950  0.48785950  0.41501300  1
  O  O63  1  0.05436350  0.24547350  0.10053000  1
  O  O64  1  0.20989500  0.30124200  0.61393900  1
  O  O65  1  0.79010500  0.69875800  0.38606100  1
  O  O66  1  0.90321350  0.37273950  0.56613300  1
  O  O67  1  0.20989500  0.69875800  0.11393900  1
  O  O68  1  0.64928950  0.51214050  0.91501300  1
  O  O69  1  0.92787150  0.42901350  0.08778400  1
  O  O70  1  0.07212850  0.42901350  0.41221600  1
  O  O71  1  0.79010500  0.30124200  0.88606100  1
