# generated using pymatgen
data_Ba6Hf5S16
_symmetry_space_group_name_H-M   'P 1'
_cell_length_a   5.00518400
_cell_length_b   5.00518400
_cell_length_c   55.76950400
_cell_angle_alpha   90.00000000
_cell_angle_beta   90.00000000
_cell_angle_gamma   90.00000000
_symmetry_Int_Tables_number   1
_chemical_formula_structural   Ba6Hf5S16
_chemical_formula_sum   'Ba12 Hf10 S32'
_cell_volume   1397.13018983
_cell_formula_units_Z   2
loop_
 _symmetry_equiv_pos_site_id
 _symmetry_equiv_pos_as_xyz
  1  'x, y, z'
loop_
 _atom_site_type_symbol
 _atom_site_label
 _atom_site_symmetry_multiplicity
 _atom_site_fract_x
 _atom_site_fract_y
 _atom_site_fract_z
 _atom_site_occupancy
  Ba  Ba0  1  0.50000000  0.50000000  0.21789200  1
  Ba  Ba1  1  0.00000000  0.00000000  0.36723000  1
  Ba  Ba2  1  0.50000000  0.50000000  0.04450400  1
  Ba  Ba3  1  0.50000000  0.50000000  0.13277000  1
  Ba  Ba4  1  0.00000000  0.00000000  0.45549600  1
  Ba  Ba5  1  0.00000000  0.00000000  0.28210800  1
  Ba  Ba6  1  0.00000000  0.00000000  0.71789200  1
  Ba  Ba7  1  0.50000000  0.50000000  0.86723000  1
  Ba  Ba8  1  0.00000000  0.00000000  0.54450400  1
  Ba  Ba9  1  0.00000000  0.00000000  0.63277000  1
  Ba  Ba10  1  0.50000000  0.50000000  0.95549600  1
  Ba  Ba11  1  0.50000000  0.50000000  0.78210800  1
  Hf  Hf12  1  0.50000000  0.50000000  0.40958900  1
  Hf  Hf13  1  0.00000000  0.00000000  0.00000000  1
  Hf  Hf14  1  0.50000000  0.50000000  0.31863800  1
  Hf  Hf15  1  0.00000000  0.00000000  0.18136200  1
  Hf  Hf16  1  0.00000000  0.00000000  0.09041100  1
  Hf  Hf17  1  0.00000000  0.00000000  0.90958900  1
  Hf  Hf18  1  0.50000000  0.50000000  0.50000000  1
  Hf  Hf19  1  0.00000000  0.00000000  0.81863800  1
  Hf  Hf20  1  0.50000000  0.50000000  0.68136200  1
  Hf  Hf21  1  0.50000000  0.50000000  0.59041100  1
  S  S22  1  0.50000000  0.50000000  0.27407800  1
  S  S23  1  0.50000000  0.50000000  0.45494500  1
  S  S24  1  0.50000000  0.00000000  0.17895000  1
  S  S25  1  0.00000000  0.50000000  0.41013300  1
  S  S26  1  0.50000000  0.00000000  0.41013300  1
  S  S27  1  0.00000000  0.50000000  0.32105000  1
  S  S28  1  0.00000000  0.50000000  0.17895000  1
  S  S29  1  0.50000000  0.00000000  0.32105000  1
  S  S30  1  0.50000000  0.00000000  0.08986700  1
  S  S31  1  0.00000000  0.00000000  0.13498600  1
  S  S32  1  0.50000000  0.50000000  0.36501400  1
  S  S33  1  0.00000000  0.00000000  0.22592200  1
  S  S34  1  0.00000000  0.50000000  0.08986700  1
  S  S35  1  0.00000000  0.50000000  0.00000000  1
  S  S36  1  0.00000000  0.00000000  0.04505500  1
  S  S37  1  0.50000000  0.00000000  0.00000000  1
  S  S38  1  0.00000000  0.00000000  0.77407800  1
  S  S39  1  0.00000000  0.00000000  0.95494500  1
  S  S40  1  0.00000000  0.50000000  0.67895000  1
  S  S41  1  0.50000000  0.00000000  0.91013300  1
  S  S42  1  0.00000000  0.50000000  0.91013300  1
  S  S43  1  0.50000000  0.00000000  0.82105000  1
  S  S44  1  0.50000000  0.00000000  0.67895000  1
  S  S45  1  0.00000000  0.50000000  0.82105000  1
  S  S46  1  0.00000000  0.50000000  0.58986700  1
  S  S47  1  0.50000000  0.50000000  0.63498600  1
  S  S48  1  0.00000000  0.00000000  0.86501400  1
  S  S49  1  0.50000000  0.50000000  0.72592200  1
  S  S50  1  0.50000000  0.00000000  0.58986700  1
  S  S51  1  0.50000000  0.00000000  0.50000000  1
  S  S52  1  0.50000000  0.50000000  0.54505500  1
  S  S53  1  0.00000000  0.50000000  0.50000000  1
