# generated using pymatgen
data_ZnB4O7
_symmetry_space_group_name_H-M   'P 1'
_cell_length_a   6.54869200
_cell_length_b   10.91369200
_cell_length_c   5.22112800
_cell_angle_alpha   90.00000000
_cell_angle_beta   90.00000000
_cell_angle_gamma   90.00000000
_symmetry_Int_Tables_number   1
_chemical_formula_structural   ZnB4O7
_chemical_formula_sum   'Zn4 B16 O28'
_cell_volume   373.15614572
_cell_formula_units_Z   4
loop_
 _symmetry_equiv_pos_site_id
 _symmetry_equiv_pos_as_xyz
  1  'x, y, z'
loop_
 _atom_site_type_symbol
 _atom_site_label
 _atom_site_symmetry_multiplicity
 _atom_site_fract_x
 _atom_site_fract_y
 _atom_site_fract_z
 _atom_site_occupancy
  Zn  Zn0  1  0.76610300  0.00000000  0.75000000  1
  Zn  Zn1  1  0.23389700  0.00000000  0.25000000  1
  Zn  Zn2  1  0.26610300  0.50000000  0.75000000  1
  Zn  Zn3  1  0.73389700  0.50000000  0.25000000  1
  B  B4  1  0.50000000  0.20242900  0.50000000  1
  B  B5  1  0.50000000  0.79757100  0.00000000  1
  B  B6  1  0.50000000  0.20242900  0.00000000  1
  B  B7  1  0.80709750  0.88246650  0.25000000  1
  B  B8  1  0.80709750  0.11753350  0.25000000  1
  B  B9  1  0.50000000  0.79757100  0.50000000  1
  B  B10  1  0.19290250  0.88246650  0.75000000  1
  B  B11  1  0.19290250  0.11753350  0.75000000  1
  B  B12  1  0.00000000  0.70242900  0.50000000  1
  B  B13  1  0.00000000  0.29757100  0.00000000  1
  B  B14  1  0.00000000  0.70242900  0.00000000  1
  B  B15  1  0.30709750  0.38246650  0.25000000  1
  B  B16  1  0.30709750  0.61753350  0.25000000  1
  B  B17  1  0.00000000  0.29757100  0.50000000  1
  B  B18  1  0.69290250  0.38246650  0.75000000  1
  B  B19  1  0.69290250  0.61753350  0.75000000  1
  O  O20  1  0.92034100  0.00000000  0.25000000  1
  O  O21  1  0.31755650  0.12824950  0.97694100  1
  O  O22  1  0.07965900  0.00000000  0.75000000  1
  O  O23  1  0.68244350  0.87175050  0.02305900  1
  O  O24  1  0.68244350  0.12824950  0.47694100  1
  O  O25  1  0.47521450  0.72028850  0.25000000  1
  O  O26  1  0.31755650  0.12824950  0.52305900  1
  O  O27  1  0.31755650  0.87175050  0.97694100  1
  O  O28  1  0.52478550  0.72028850  0.75000000  1
  O  O29  1  0.68244350  0.12824950  0.02305900  1
  O  O30  1  0.47521450  0.27971150  0.25000000  1
  O  O31  1  0.31755650  0.87175050  0.52305900  1
  O  O32  1  0.52478550  0.27971150  0.75000000  1
  O  O33  1  0.68244350  0.87175050  0.47694100  1
  O  O34  1  0.42034100  0.50000000  0.25000000  1
  O  O35  1  0.81755650  0.62824950  0.97694100  1
  O  O36  1  0.57965900  0.50000000  0.75000000  1
  O  O37  1  0.18244350  0.37175050  0.02305900  1
  O  O38  1  0.18244350  0.62824950  0.47694100  1
  O  O39  1  0.97521450  0.22028850  0.25000000  1
  O  O40  1  0.81755650  0.62824950  0.52305900  1
  O  O41  1  0.81755650  0.37175050  0.97694100  1
  O  O42  1  0.02478550  0.22028850  0.75000000  1
  O  O43  1  0.18244350  0.62824950  0.02305900  1
  O  O44  1  0.97521450  0.77971150  0.25000000  1
  O  O45  1  0.81755650  0.37175050  0.52305900  1
  O  O46  1  0.02478550  0.77971150  0.75000000  1
  O  O47  1  0.18244350  0.37175050  0.47694100  1
