# generated using pymatgen
data_Sn3PO4F3
_symmetry_space_group_name_H-M   'P 1'
_cell_length_a   12.16982206
_cell_length_b   12.16982206
_cell_length_c   4.71527152
_cell_angle_alpha   90.00000000
_cell_angle_beta   90.00000000
_cell_angle_gamma   120.00000000
_symmetry_Int_Tables_number   1
_chemical_formula_structural   Sn3PO4F3
_chemical_formula_sum   'Sn9 P3 O12 F9'
_cell_volume   604.79166132
_cell_formula_units_Z   3
loop_
 _symmetry_equiv_pos_site_id
 _symmetry_equiv_pos_as_xyz
  1  'x, y, z'
loop_
 _atom_site_type_symbol
 _atom_site_label
 _atom_site_symmetry_multiplicity
 _atom_site_fract_x
 _atom_site_fract_y
 _atom_site_fract_z
 _atom_site_occupancy
  Sn  Sn0  1  0.54911200  0.09916000  0.82247800  1
  Sn  Sn1  1  0.21671467  0.78422133  0.15581133  1
  Sn  Sn2  1  0.23417333  0.11661867  0.48914467  1
  Sn  Sn3  1  0.21577867  0.43249333  0.15581133  1
  Sn  Sn4  1  0.88338133  0.11755467  0.48914467  1
  Sn  Sn5  1  0.90084000  0.44995200  0.82247800  1
  Sn  Sn6  1  0.88244533  0.76582667  0.48914467  1
  Sn  Sn7  1  0.55004800  0.45088800  0.82247800  1
  Sn  Sn8  1  0.56750667  0.78328533  0.15581133  1
  P  P9  1  0.00000000  0.00000000  0.99140700  1
  P  P10  1  0.66666667  0.33333333  0.32474033  1
  P  P11  1  0.33333333  0.66666667  0.65807367  1
  O  O12  1  0.00000000  0.00000000  0.32538100  1
  O  O13  1  0.59623867  0.19271033  0.22835733  1
  O  O14  1  0.14062300  0.07019500  0.89502400  1
  O  O15  1  0.26313833  0.73709467  0.56169067  1
  O  O16  1  0.66666667  0.33333333  0.65871433  1
  O  O17  1  0.26290533  0.52604367  0.56169067  1
  O  O18  1  0.80728967  0.40352833  0.22835733  1
  O  O19  1  0.92980500  0.07042800  0.89502400  1
  O  O20  1  0.33333333  0.66666667  0.99204767  1
  O  O21  1  0.92957200  0.85937700  0.89502400  1
  O  O22  1  0.47395633  0.73686167  0.56169067  1
  O  O23  1  0.59647167  0.40376133  0.22835733  1
  F  F24  1  0.19562100  0.26774300  0.44323600  1
  F  F25  1  0.40545533  0.47104567  0.10990267  1
  F  F26  1  0.39892367  0.26121133  0.77656933  1
  F  F27  1  0.86228767  0.60107633  0.77656933  1
  F  F28  1  0.07212200  0.80437900  0.44323600  1
  F  F29  1  0.06559033  0.59454467  0.10990267  1
  F  F30  1  0.52895433  0.93440967  0.10990267  1
  F  F31  1  0.73878867  0.13771233  0.77656933  1
  F  F32  1  0.73225700  0.92787800  0.44323600  1
