# generated using pymatgen
data_Al22PbO34
_symmetry_space_group_name_H-M   'P 1'
_cell_length_a   9.78194400
_cell_length_b   11.30684600
_cell_length_c   11.89227608
_cell_angle_alpha   90.00000000
_cell_angle_beta   105.70615971
_cell_angle_gamma   90.00000000
_symmetry_Int_Tables_number   1
_chemical_formula_structural   Al22PbO34
_chemical_formula_sum   'Al44 Pb2 O68'
_cell_volume   1266.21004361
_cell_formula_units_Z   2
loop_
 _symmetry_equiv_pos_site_id
 _symmetry_equiv_pos_as_xyz
  1  'x, y, z'
loop_
 _atom_site_type_symbol
 _atom_site_label
 _atom_site_symmetry_multiplicity
 _atom_site_fract_x
 _atom_site_fract_y
 _atom_site_fract_z
 _atom_site_occupancy
  Al  Al0  1  0.00000000  0.00000000  0.00000000  1
  Al  Al1  1  0.34366200  0.87556000  0.78441200  1
  Al  Al2  1  0.09649100  0.99995800  0.78397500  1
  Al  Al3  1  0.35015100  0.99932400  0.04894400  1
  Al  Al4  1  0.45013600  0.99879700  0.35065900  1
  Al  Al5  1  0.54986400  0.00120300  0.64934100  1
  Al  Al6  1  0.84803100  0.62380800  0.79457000  1
  Al  Al7  1  0.84803100  0.87619200  0.79457000  1
  Al  Al8  1  0.59678200  0.75000000  0.79053000  1
  Al  Al9  1  0.64984900  0.00067600  0.95105600  1
  Al  Al10  1  0.85131200  0.75000000  0.05278300  1
  Al  Al11  1  0.49980100  0.75000000  0.99873100  1
  Al  Al12  1  0.90350900  0.00004200  0.21602500  1
  Al  Al13  1  0.65406700  0.87655000  0.21077800  1
  Al  Al14  1  0.94555100  0.75000000  0.35216000  1
  Al  Al15  1  0.05017500  0.75000000  0.64784800  1
  Al  Al16  1  0.34366200  0.62444000  0.78441200  1
  Al  Al17  1  0.34593300  0.37655000  0.78922200  1
  Al  Al18  1  0.09649100  0.50004200  0.78397500  1
  Al  Al19  1  0.15139200  0.75000000  0.95159700  1
  Al  Al20  1  0.35015100  0.50067600  0.04894400  1
  Al  Al21  1  0.00000000  0.50000000  0.00000000  1
  Al  Al22  1  0.40126600  0.75000000  0.21156700  1
  Al  Al23  1  0.15388800  0.62686000  0.21703800  1
  Al  Al24  1  0.15388800  0.87314000  0.21703800  1
  Al  Al25  1  0.45013600  0.50120300  0.35065900  1
  Al  Al26  1  0.54986400  0.49879700  0.64934100  1
  Al  Al27  1  0.84611200  0.12686000  0.78296200  1
  Al  Al28  1  0.84611200  0.37314000  0.78296200  1
  Al  Al29  1  0.59873400  0.25000000  0.78843300  1
  Al  Al30  1  0.64984900  0.49932400  0.95105600  1
  Al  Al31  1  0.84860800  0.25000000  0.04840300  1
  Al  Al32  1  0.50019900  0.25000000  0.00126900  1
  Al  Al33  1  0.90350900  0.49995800  0.21602500  1
  Al  Al34  1  0.65406700  0.62345000  0.21077800  1
  Al  Al35  1  0.65633800  0.37556000  0.21558800  1
  Al  Al36  1  0.94982500  0.25000000  0.35215200  1
  Al  Al37  1  0.05444900  0.25000000  0.64784000  1
  Al  Al38  1  0.34593300  0.12345000  0.78922200  1
  Al  Al39  1  0.14868800  0.25000000  0.94721700  1
  Al  Al40  1  0.40321800  0.25000000  0.20947000  1
  Al  Al41  1  0.15196900  0.37619200  0.20543000  1
  Al  Al42  1  0.15196900  0.12380800  0.20543000  1
  Al  Al43  1  0.65633800  0.12444000  0.21558800  1
  Pb  Pb44  1  0.70246900  0.75000000  0.53050000  1
  Pb  Pb45  1  0.29753100  0.25000000  0.46950000  1
  O  O46  1  0.09421000  0.00201000  0.28142900  1
  O  O47  1  0.45492100  0.86721800  0.09789800  1
  O  O48  1  0.19040700  0.00237700  0.09829300  1
  O  O49  1  0.59358400  0.75000000  0.28284900  1
  O  O50  1  0.34505100  0.87488400  0.28675100  1
  O  O51  1  0.50000000  0.00000000  0.50000000  1
  O  O52  1  0.65686000  0.87061500  0.70567400  1
  O  O53  1  0.40485300  0.00047400  0.71302100  1
  O  O54  1  0.79651400  0.75000000  0.89083100  1
  O  O55  1  0.80959300  0.99762300  0.90170700  1
  O  O56  1  0.54807300  0.86751600  0.90019400  1
  O  O57  1  0.95588600  0.61751600  0.09995500  1
  O  O58  1  0.95588600  0.88248400  0.09995500  1
  O  O59  1  0.68878100  0.75000000  0.09850000  1
  O  O60  1  0.70360500  0.00136600  0.11062300  1
  O  O61  1  0.09421000  0.49799000  0.28142900  1
  O  O62  1  0.09613300  0.75000000  0.29375700  1
  O  O63  1  0.84339000  0.87558200  0.28722200  1
  O  O64  1  0.84339000  0.62441800  0.28722200  1
  O  O65  1  0.95456300  0.75000000  0.50127700  1
  O  O66  1  0.15354600  0.62527400  0.70967700  1
  O  O67  1  0.15354600  0.87472600  0.70967700  1
  O  O68  1  0.89814400  0.75000000  0.71073000  1
  O  O69  1  0.29639500  0.50136600  0.88937700  1
  O  O70  1  0.31048700  0.75000000  0.90090900  1
  O  O71  1  0.04482400  0.61900600  0.90140500  1
  O  O72  1  0.04482400  0.88099400  0.90140500  1
  O  O73  1  0.45192700  0.36751600  0.09980600  1
  O  O74  1  0.45492100  0.63278200  0.09789800  1
  O  O75  1  0.19040700  0.49762300  0.09829300  1
  O  O76  1  0.20255200  0.75000000  0.11157000  1
  O  O77  1  0.59197100  0.25000000  0.28163000  1
  O  O78  1  0.59514700  0.50047400  0.28697900  1
  O  O79  1  0.34314000  0.37061500  0.29432600  1
  O  O80  1  0.34505100  0.62511600  0.28675100  1
  O  O81  1  0.50000000  0.50000000  0.50000000  1
  O  O82  1  0.65686000  0.62938500  0.70567400  1
  O  O83  1  0.65494900  0.37488400  0.71324900  1
  O  O84  1  0.40485300  0.49952600  0.71302100  1
  O  O85  1  0.40802900  0.75000000  0.71837000  1
  O  O86  1  0.79744800  0.25000000  0.88843000  1
  O  O87  1  0.80959300  0.50237700  0.90170700  1
  O  O88  1  0.54807300  0.63248400  0.90019400  1
  O  O89  1  0.54507900  0.36721800  0.90210200  1
  O  O90  1  0.95517600  0.11900600  0.09859500  1
  O  O91  1  0.95517600  0.38099400  0.09859500  1
  O  O92  1  0.68951300  0.25000000  0.09909100  1
  O  O93  1  0.70360500  0.49863400  0.11062300  1
  O  O94  1  0.10185600  0.25000000  0.28927000  1
  O  O95  1  0.84645400  0.37472600  0.29032300  1
  O  O96  1  0.84645400  0.12527400  0.29032300  1
  O  O97  1  0.04543700  0.25000000  0.49872300  1
  O  O98  1  0.15661000  0.37558200  0.71277800  1
  O  O99  1  0.15661000  0.12441800  0.71277800  1
  O  O100  1  0.90386700  0.25000000  0.70624300  1
  O  O101  1  0.90579000  0.50201000  0.71857100  1
  O  O102  1  0.29639500  0.99863400  0.88937700  1
  O  O103  1  0.31121900  0.25000000  0.90150000  1
  O  O104  1  0.04411400  0.38248400  0.90004500  1
  O  O105  1  0.04411400  0.11751600  0.90004500  1
  O  O106  1  0.45192700  0.13248400  0.09980600  1
  O  O107  1  0.20348600  0.25000000  0.10916900  1
  O  O108  1  0.59514700  0.99952600  0.28697900  1
  O  O109  1  0.34314000  0.12938500  0.29432600  1
  O  O110  1  0.65494900  0.12511600  0.71324900  1
  O  O111  1  0.40641600  0.25000000  0.71715100  1
  O  O112  1  0.54507900  0.13278200  0.90210200  1
  O  O113  1  0.90579000  0.99799000  0.71857100  1
