# generated using pymatgen
data_CsKTeH6SO10
_symmetry_space_group_name_H-M   'P 1'
_cell_length_a   12.71474600
_cell_length_b   6.70884300
_cell_length_c   15.33362569
_cell_angle_alpha   90.00000000
_cell_angle_beta   126.04283606
_cell_angle_gamma   90.00000000
_symmetry_Int_Tables_number   1
_chemical_formula_structural   CsKTeH6SO10
_chemical_formula_sum   'Cs4 K4 Te4 H24 S4 O40'
_cell_volume   1057.60070492
_cell_formula_units_Z   4
loop_
 _symmetry_equiv_pos_site_id
 _symmetry_equiv_pos_as_xyz
  1  'x, y, z'
loop_
 _atom_site_type_symbol
 _atom_site_label
 _atom_site_symmetry_multiplicity
 _atom_site_fract_x
 _atom_site_fract_y
 _atom_site_fract_z
 _atom_site_occupancy
  Cs  Cs0  1  0.00358300  0.02063300  0.27291300  1
  Cs  Cs1  1  0.99877400  0.52330100  0.49833700  1
  Cs  Cs2  1  0.99877400  0.47669900  0.99833700  1
  Cs  Cs3  1  0.00358300  0.97936700  0.77291300  1
  K  K4  1  0.46729100  0.04069600  0.47848900  1
  K  K5  1  0.46729100  0.95930400  0.97848900  1
  K  K6  1  0.53908200  0.53720300  0.28865200  1
  K  K7  1  0.53908200  0.46279700  0.78865200  1
  Te  Te8  1  0.71264300  0.50666500  0.11882200  1
  Te  Te9  1  0.29068300  0.99554900  0.15024500  1
  Te  Te10  1  0.29068300  0.00445100  0.65024500  1
  Te  Te11  1  0.71264300  0.49333500  0.61882200  1
  H  H12  1  0.95156200  0.50891600  0.20585300  1
  H  H13  1  0.47601000  0.54666500  0.54584300  1
  H  H14  1  0.05333900  0.98429300  0.06711100  1
  H  H15  1  0.25126200  0.74448200  0.01269700  1
  H  H16  1  0.70663600  0.18745600  0.02710100  1
  H  H17  1  0.25126200  0.25551800  0.51269700  1
  H  H18  1  0.31327900  0.27156400  0.77228600  1
  H  H19  1  0.25665300  0.77452200  0.50486600  1
  H  H20  1  0.70663600  0.81254400  0.52710100  1
  H  H21  1  0.29750900  0.68803400  0.74408100  1
  H  H22  1  0.95156200  0.49108400  0.70585300  1
  H  H23  1  0.52557400  0.94852900  0.72054000  1
  H  H24  1  0.52557400  0.05147100  0.22054000  1
  H  H25  1  0.74584500  0.28425000  0.26658900  1
  H  H26  1  0.74584500  0.71575000  0.76658900  1
  H  H27  1  0.25665300  0.22547800  0.00486600  1
  H  H28  1  0.69228400  0.23168000  0.49547600  1
  H  H29  1  0.29750900  0.31196600  0.24408100  1
  H  H30  1  0.69228400  0.76832000  0.99547600  1
  H  H31  1  0.47601000  0.45333500  0.04584300  1
  H  H32  1  0.74894300  0.23465500  0.75148200  1
  H  H33  1  0.31327900  0.72843600  0.27228600  1
  H  H34  1  0.05333900  0.01570700  0.56711100  1
  H  H35  1  0.74894300  0.76534500  0.25148200  1
  S  S36  1  0.77649700  0.99757200  0.90505800  1
  S  S37  1  0.77649700  0.00242800  0.40505800  1
  S  S38  1  0.22621600  0.49804300  0.36332800  1
  S  S39  1  0.22621600  0.50195700  0.86332800  1
  O  O40  1  0.76818000  0.01413600  0.49867200  1
  O  O41  1  0.91051900  0.05258900  0.44123200  1
  O  O42  1  0.91051900  0.94741100  0.94123200  1
  O  O43  1  0.63355000  0.34457200  0.48418900  1
  O  O44  1  0.76818000  0.98586400  0.99867200  1
  O  O45  1  0.36216800  0.23259400  0.24128000  1
  O  O46  1  0.13197800  0.99323600  0.64301100  1
  O  O47  1  0.80411200  0.36583400  0.25656000  1
  O  O48  1  0.63355000  0.65542800  0.98418900  1
  O  O49  1  0.09292800  0.45228900  0.82914500  1
  O  O50  1  0.36216800  0.76740600  0.74128000  1
  O  O51  1  0.37360200  0.83767300  0.28266500  1
  O  O52  1  0.26111600  0.29061200  0.40678800  1
  O  O53  1  0.23303700  0.51376300  0.26902500  1
  O  O54  1  0.44763700  0.01178500  0.65488600  1
  O  O55  1  0.09292800  0.54771100  0.32914500  1
  O  O56  1  0.76404100  0.76233300  0.19419700  1
  O  O57  1  0.87324800  0.48949700  0.12930500  1
  O  O58  1  0.32136900  0.35707000  0.94917200  1
  O  O59  1  0.68204400  0.14961800  0.32023000  1
  O  O60  1  0.19788400  0.85163800  0.51594500  1
  O  O61  1  0.23431800  0.25345300  0.56893100  1
  O  O62  1  0.19788400  0.14836200  0.01594500  1
  O  O63  1  0.44763700  0.98821500  0.15488600  1
  O  O64  1  0.74110200  0.79685500  0.35915000  1
  O  O65  1  0.76404100  0.23766700  0.69419700  1
  O  O66  1  0.23431800  0.74654700  0.06893100  1
  O  O67  1  0.37360200  0.16232700  0.78266500  1
  O  O68  1  0.55347000  0.51989300  0.11060500  1
  O  O69  1  0.64339900  0.73659500  0.53310900  1
  O  O70  1  0.26111600  0.70938800  0.90678800  1
  O  O71  1  0.80411200  0.63416600  0.75656000  1
  O  O72  1  0.23303700  0.48623700  0.76902500  1
  O  O73  1  0.13197800  0.00676400  0.14301100  1
  O  O74  1  0.32136900  0.64293000  0.44917200  1
  O  O75  1  0.55347000  0.48010700  0.61060500  1
  O  O76  1  0.68204400  0.85038200  0.82023000  1
  O  O77  1  0.64339900  0.26340500  0.03310900  1
  O  O78  1  0.74110200  0.20314500  0.85915000  1
  O  O79  1  0.87324800  0.51050300  0.62930500  1
