# generated using pymatgen
data_Sr4Li(BO3)3
_symmetry_space_group_name_H-M   'P 1'
_cell_length_a   15.10806000
_cell_length_b   15.10806000
_cell_length_c   15.10806000
_cell_angle_alpha   90.00000000
_cell_angle_beta   90.00000000
_cell_angle_gamma   90.00000000
_symmetry_Int_Tables_number   1
_chemical_formula_structural   Sr4Li(BO3)3
_chemical_formula_sum   'Sr64 Li16 B48 O144'
_cell_volume   3448.46722517
_cell_formula_units_Z   16
loop_
 _symmetry_equiv_pos_site_id
 _symmetry_equiv_pos_as_xyz
  1  'x, y, z'
loop_
 _atom_site_type_symbol
 _atom_site_label
 _atom_site_symmetry_multiplicity
 _atom_site_fract_x
 _atom_site_fract_y
 _atom_site_fract_z
 _atom_site_occupancy
  Sr  Sr0  1  0.25000000  0.74658100  0.00000000  1
  Sr  Sr1  1  0.25000000  0.50341900  0.00000000  1
  Sr  Sr2  1  0.00000000  0.25000000  0.24658100  1
  Sr  Sr3  1  0.25000000  0.99658100  0.50000000  1
  Sr  Sr4  1  0.25000000  0.75341900  0.50000000  1
  Sr  Sr5  1  0.00000000  0.25000000  0.74658100  1
  Sr  Sr6  1  0.50000000  0.25000000  0.75341900  1
  Sr  Sr7  1  0.25000000  0.49658100  0.50000000  1
  Sr  Sr8  1  0.74658100  0.00000000  0.25000000  1
  Sr  Sr9  1  0.49658100  0.50000000  0.25000000  1
  Sr  Sr10  1  0.25000000  0.24658100  0.00000000  1
  Sr  Sr11  1  0.00000000  0.00000000  0.00000000  1
  Sr  Sr12  1  0.00000000  0.00000000  0.50000000  1
  Sr  Sr13  1  0.50000000  0.25000000  0.49658100  1
  Sr  Sr14  1  0.25000000  0.75000000  0.25000000  1
  Sr  Sr15  1  0.50000000  0.25000000  0.25341900  1
  Sr  Sr16  1  0.25000000  0.00341900  0.00000000  1
  Sr  Sr17  1  0.50000000  0.25000000  0.99658100  1
  Sr  Sr18  1  0.75341900  0.50000000  0.25000000  1
  Sr  Sr19  1  0.00000000  0.25000000  0.50341900  1
  Sr  Sr20  1  0.99658100  0.50000000  0.25000000  1
  Sr  Sr21  1  0.50341900  0.00000000  0.25000000  1
  Sr  Sr22  1  0.00341900  0.00000000  0.25000000  1
  Sr  Sr23  1  0.25000000  0.25000000  0.75000000  1
  Sr  Sr24  1  0.75000000  0.25000000  0.25000000  1
  Sr  Sr25  1  0.00000000  0.50000000  0.00000000  1
  Sr  Sr26  1  0.25341900  0.50000000  0.25000000  1
  Sr  Sr27  1  0.00000000  0.25000000  0.00341900  1
  Sr  Sr28  1  0.25000000  0.25000000  0.25000000  1
  Sr  Sr29  1  0.50000000  0.00000000  0.00000000  1
  Sr  Sr30  1  0.24658100  0.00000000  0.25000000  1
  Sr  Sr31  1  0.25000000  0.25341900  0.50000000  1
  Sr  Sr32  1  0.75000000  0.24658100  0.50000000  1
  Sr  Sr33  1  0.75000000  0.00341900  0.50000000  1
  Sr  Sr34  1  0.50000000  0.75000000  0.74658100  1
  Sr  Sr35  1  0.75000000  0.49658100  0.00000000  1
  Sr  Sr36  1  0.75000000  0.25341900  0.00000000  1
  Sr  Sr37  1  0.50000000  0.75000000  0.24658100  1
  Sr  Sr38  1  0.00000000  0.75000000  0.25341900  1
  Sr  Sr39  1  0.75000000  0.99658100  0.00000000  1
  Sr  Sr40  1  0.24658100  0.50000000  0.75000000  1
  Sr  Sr41  1  0.99658100  0.00000000  0.75000000  1
  Sr  Sr42  1  0.75000000  0.74658100  0.50000000  1
  Sr  Sr43  1  0.50000000  0.50000000  0.50000000  1
  Sr  Sr44  1  0.50000000  0.50000000  0.00000000  1
  Sr  Sr45  1  0.00000000  0.75000000  0.99658100  1
  Sr  Sr46  1  0.75000000  0.25000000  0.75000000  1
  Sr  Sr47  1  0.00000000  0.75000000  0.75341900  1
  Sr  Sr48  1  0.75000000  0.50341900  0.50000000  1
  Sr  Sr49  1  0.00000000  0.75000000  0.49658100  1
  Sr  Sr50  1  0.25341900  0.00000000  0.75000000  1
  Sr  Sr51  1  0.50000000  0.75000000  0.00341900  1
  Sr  Sr52  1  0.49658100  0.00000000  0.75000000  1
  Sr  Sr53  1  0.00341900  0.50000000  0.75000000  1
  Sr  Sr54  1  0.50341900  0.50000000  0.75000000  1
  Sr  Sr55  1  0.75000000  0.75000000  0.25000000  1
  Sr  Sr56  1  0.25000000  0.75000000  0.75000000  1
  Sr  Sr57  1  0.50000000  0.00000000  0.50000000  1
  Sr  Sr58  1  0.75341900  0.00000000  0.75000000  1
  Sr  Sr59  1  0.50000000  0.75000000  0.50341900  1
  Sr  Sr60  1  0.75000000  0.75000000  0.75000000  1
  Sr  Sr61  1  0.00000000  0.50000000  0.50000000  1
  Sr  Sr62  1  0.74658100  0.50000000  0.75000000  1
  Sr  Sr63  1  0.75000000  0.75341900  0.00000000  1
  Li  Li64  1  0.12500000  0.12500000  0.12500000  1
  Li  Li65  1  0.62500000  0.87500000  0.12500000  1
  Li  Li66  1  0.87500000  0.37500000  0.12500000  1
  Li  Li67  1  0.37500000  0.37500000  0.37500000  1
  Li  Li68  1  0.37500000  0.12500000  0.87500000  1
  Li  Li69  1  0.12500000  0.87500000  0.37500000  1
  Li  Li70  1  0.87500000  0.12500000  0.62500000  1
  Li  Li71  1  0.12500000  0.62500000  0.87500000  1
  Li  Li72  1  0.62500000  0.62500000  0.62500000  1
  Li  Li73  1  0.12500000  0.37500000  0.62500000  1
  Li  Li74  1  0.37500000  0.87500000  0.62500000  1
  Li  Li75  1  0.87500000  0.87500000  0.87500000  1
  Li  Li76  1  0.87500000  0.62500000  0.37500000  1
  Li  Li77  1  0.62500000  0.37500000  0.87500000  1
  Li  Li78  1  0.37500000  0.62500000  0.12500000  1
  Li  Li79  1  0.62500000  0.12500000  0.37500000  1
  B  B80  1  0.13990100  0.62500000  0.11009900  1
  B  B81  1  0.88990100  0.13990100  0.12500000  1
  B  B82  1  0.36009900  0.12500000  0.11009900  1
  B  B83  1  0.13990100  0.12500000  0.88990100  1
  B  B84  1  0.11009900  0.36009900  0.12500000  1
  B  B85  1  0.87500000  0.38990100  0.36009900  1
  B  B86  1  0.62500000  0.88990100  0.36009900  1
  B  B87  1  0.36009900  0.87500000  0.38990100  1
  B  B88  1  0.61009900  0.36009900  0.37500000  1
  B  B89  1  0.37500000  0.38990100  0.13990100  1
  B  B90  1  0.12500000  0.11009900  0.36009900  1
  B  B91  1  0.37500000  0.61009900  0.36009900  1
  B  B92  1  0.13990100  0.87500000  0.61009900  1
  B  B93  1  0.13990100  0.37500000  0.38990100  1
  B  B94  1  0.12500000  0.88990100  0.13990100  1
  B  B95  1  0.61009900  0.13990100  0.87500000  1
  B  B96  1  0.36009900  0.37500000  0.61009900  1
  B  B97  1  0.88990100  0.36009900  0.62500000  1
  B  B98  1  0.87500000  0.61009900  0.13990100  1
  B  B99  1  0.62500000  0.11009900  0.13990100  1
  B  B100  1  0.38990100  0.36009900  0.87500000  1
  B  B101  1  0.36009900  0.62500000  0.88990100  1
  B  B102  1  0.38990100  0.13990100  0.37500000  1
  B  B103  1  0.11009900  0.13990100  0.62500000  1
  B  B104  1  0.63990100  0.12500000  0.61009900  1
  B  B105  1  0.38990100  0.63990100  0.62500000  1
  B  B106  1  0.86009900  0.62500000  0.61009900  1
  B  B107  1  0.63990100  0.62500000  0.38990100  1
  B  B108  1  0.61009900  0.86009900  0.62500000  1
  B  B109  1  0.37500000  0.88990100  0.86009900  1
  B  B110  1  0.12500000  0.38990100  0.86009900  1
  B  B111  1  0.86009900  0.37500000  0.88990100  1
  B  B112  1  0.11009900  0.86009900  0.87500000  1
  B  B113  1  0.87500000  0.88990100  0.63990100  1
  B  B114  1  0.62500000  0.61009900  0.86009900  1
  B  B115  1  0.87500000  0.11009900  0.86009900  1
  B  B116  1  0.63990100  0.37500000  0.11009900  1
  B  B117  1  0.63990100  0.87500000  0.88990100  1
  B  B118  1  0.62500000  0.38990100  0.63990100  1
  B  B119  1  0.11009900  0.63990100  0.37500000  1
  B  B120  1  0.86009900  0.87500000  0.11009900  1
  B  B121  1  0.38990100  0.86009900  0.12500000  1
  B  B122  1  0.37500000  0.11009900  0.63990100  1
  B  B123  1  0.12500000  0.61009900  0.63990100  1
  B  B124  1  0.88990100  0.86009900  0.37500000  1
  B  B125  1  0.86009900  0.12500000  0.38990100  1
  B  B126  1  0.88990100  0.63990100  0.87500000  1
  B  B127  1  0.61009900  0.63990100  0.12500000  1
  O  O128  1  0.07556600  0.12500000  0.82556600  1
  O  O129  1  0.92443400  0.12500000  0.32556600  1
  O  O130  1  0.37817100  0.51971400  0.38136600  1
  O  O131  1  0.76971400  0.87182900  0.13136600  1
  O  O132  1  0.62182900  0.01971400  0.11863400  1
  O  O133  1  0.07556600  0.37500000  0.32556600  1
  O  O134  1  0.26971400  0.87182900  0.36863400  1
  O  O135  1  0.23028600  0.37182900  0.36863400  1
  O  O136  1  0.38136600  0.12182900  0.01971400  1
  O  O137  1  0.13136600  0.23028600  0.62817100  1
  O  O138  1  0.38136600  0.87817100  0.48028600  1
  O  O139  1  0.36863400  0.26971400  0.87182900  1
  O  O140  1  0.17443400  0.57556600  0.37500000  1
  O  O141  1  0.73028600  0.62817100  0.36863400  1
  O  O142  1  0.12500000  0.82556600  0.07556600  1
  O  O143  1  0.11863400  0.37817100  0.48028600  1
  O  O144  1  0.26971400  0.62817100  0.86863400  1
  O  O145  1  0.32556600  0.07556600  0.37500000  1
  O  O146  1  0.48028600  0.88136600  0.12182900  1
  O  O147  1  0.42443400  0.12500000  0.17443400  1
  O  O148  1  0.23028600  0.62817100  0.13136600  1
  O  O149  1  0.38136600  0.37817100  0.51971400  1
  O  O150  1  0.88136600  0.12182900  0.48028600  1
  O  O151  1  0.87182900  0.13136600  0.76971400  1
  O  O152  1  0.12500000  0.17443400  0.42443400  1
  O  O153  1  0.01971400  0.38136600  0.12182900  1
  O  O154  1  0.11863400  0.62182900  0.01971400  1
  O  O155  1  0.62817100  0.36863400  0.73028600  1
  O  O156  1  0.13136600  0.26971400  0.12817100  1
  O  O157  1  0.87182900  0.63136600  0.23028600  1
  O  O158  1  0.12500000  0.32556600  0.92443400  1
  O  O159  1  0.48028600  0.38136600  0.87817100  1
  O  O160  1  0.37500000  0.17443400  0.57556600  1
  O  O161  1  0.13136600  0.76971400  0.87182900  1
  O  O162  1  0.37500000  0.67443400  0.42443400  1
  O  O163  1  0.01971400  0.61863400  0.37817100  1
  O  O164  1  0.37817100  0.48028600  0.11863400  1
  O  O165  1  0.01971400  0.11863400  0.62182900  1
  O  O166  1  0.98028600  0.11863400  0.12182900  1
  O  O167  1  0.37817100  0.01971400  0.61863400  1
  O  O168  1  0.37182900  0.36863400  0.23028600  1
  O  O169  1  0.62817100  0.13136600  0.23028600  1
  O  O170  1  0.07556600  0.62500000  0.17443400  1
  O  O171  1  0.12182900  0.98028600  0.11863400  1
  O  O172  1  0.87182900  0.36863400  0.26971400  1
  O  O173  1  0.36863400  0.23028600  0.37182900  1
  O  O174  1  0.87500000  0.32556600  0.42443400  1
  O  O175  1  0.32556600  0.92443400  0.12500000  1
  O  O176  1  0.48028600  0.11863400  0.37817100  1
  O  O177  1  0.42443400  0.87500000  0.32556600  1
  O  O178  1  0.86863400  0.26971400  0.62817100  1
  O  O179  1  0.62500000  0.17443400  0.07556600  1
  O  O180  1  0.17443400  0.42443400  0.12500000  1
  O  O181  1  0.51971400  0.38136600  0.37817100  1
  O  O182  1  0.42443400  0.37500000  0.67443400  1
  O  O183  1  0.12182900  0.01971400  0.38136600  1
  O  O184  1  0.62817100  0.86863400  0.26971400  1
  O  O185  1  0.87817100  0.48028600  0.38136600  1
  O  O186  1  0.82556600  0.07556600  0.12500000  1
  O  O187  1  0.32556600  0.42443400  0.87500000  1
  O  O188  1  0.23028600  0.87182900  0.63136600  1
  O  O189  1  0.36863400  0.73028600  0.62817100  1
  O  O190  1  0.63136600  0.23028600  0.87182900  1
  O  O191  1  0.61863400  0.37817100  0.01971400  1
  O  O192  1  0.26971400  0.12817100  0.13136600  1
  O  O193  1  0.37500000  0.32556600  0.07556600  1
  O  O194  1  0.17443400  0.07556600  0.62500000  1
  O  O195  1  0.12817100  0.13136600  0.26971400  1
  O  O196  1  0.11863400  0.12182900  0.98028600  1
  O  O197  1  0.57556600  0.37500000  0.17443400  1
  O  O198  1  0.67443400  0.42443400  0.37500000  1
  O  O199  1  0.12182900  0.48028600  0.88136600  1
  O  O200  1  0.57556600  0.62500000  0.32556600  1
  O  O201  1  0.42443400  0.62500000  0.82556600  1
  O  O202  1  0.87817100  0.01971400  0.88136600  1
  O  O203  1  0.26971400  0.37182900  0.63136600  1
  O  O204  1  0.12182900  0.51971400  0.61863400  1
  O  O205  1  0.57556600  0.87500000  0.82556600  1
  O  O206  1  0.76971400  0.37182900  0.86863400  1
  O  O207  1  0.73028600  0.87182900  0.86863400  1
  O  O208  1  0.88136600  0.62182900  0.51971400  1
  O  O209  1  0.63136600  0.73028600  0.12817100  1
  O  O210  1  0.88136600  0.37817100  0.98028600  1
  O  O211  1  0.86863400  0.76971400  0.37182900  1
  O  O212  1  0.67443400  0.07556600  0.87500000  1
  O  O213  1  0.23028600  0.12817100  0.86863400  1
  O  O214  1  0.62500000  0.32556600  0.57556600  1
  O  O215  1  0.61863400  0.87817100  0.98028600  1
  O  O216  1  0.76971400  0.12817100  0.36863400  1
  O  O217  1  0.82556600  0.57556600  0.87500000  1
  O  O218  1  0.98028600  0.38136600  0.62182900  1
  O  O219  1  0.92443400  0.62500000  0.67443400  1
  O  O220  1  0.73028600  0.12817100  0.63136600  1
  O  O221  1  0.88136600  0.87817100  0.01971400  1
  O  O222  1  0.38136600  0.62182900  0.98028600  1
  O  O223  1  0.37182900  0.63136600  0.26971400  1
  O  O224  1  0.62500000  0.67443400  0.92443400  1
  O  O225  1  0.51971400  0.88136600  0.62182900  1
  O  O226  1  0.61863400  0.12182900  0.51971400  1
  O  O227  1  0.12817100  0.86863400  0.23028600  1
  O  O228  1  0.63136600  0.76971400  0.62817100  1
  O  O229  1  0.37182900  0.13136600  0.73028600  1
  O  O230  1  0.62500000  0.82556600  0.42443400  1
  O  O231  1  0.98028600  0.88136600  0.37817100  1
  O  O232  1  0.87500000  0.67443400  0.07556600  1
  O  O233  1  0.63136600  0.26971400  0.37182900  1
  O  O234  1  0.87500000  0.17443400  0.92443400  1
  O  O235  1  0.51971400  0.11863400  0.87817100  1
  O  O236  1  0.87817100  0.98028600  0.61863400  1
  O  O237  1  0.51971400  0.61863400  0.12182900  1
  O  O238  1  0.48028600  0.61863400  0.62182900  1
  O  O239  1  0.87817100  0.51971400  0.11863400  1
  O  O240  1  0.87182900  0.86863400  0.73028600  1
  O  O241  1  0.12817100  0.63136600  0.73028600  1
  O  O242  1  0.57556600  0.12500000  0.67443400  1
  O  O243  1  0.62182900  0.48028600  0.61863400  1
  O  O244  1  0.37182900  0.86863400  0.76971400  1
  O  O245  1  0.86863400  0.73028600  0.87182900  1
  O  O246  1  0.37500000  0.82556600  0.92443400  1
  O  O247  1  0.82556600  0.42443400  0.62500000  1
  O  O248  1  0.98028600  0.61863400  0.87817100  1
  O  O249  1  0.92443400  0.37500000  0.82556600  1
  O  O250  1  0.36863400  0.76971400  0.12817100  1
  O  O251  1  0.12500000  0.67443400  0.57556600  1
  O  O252  1  0.67443400  0.92443400  0.62500000  1
  O  O253  1  0.01971400  0.88136600  0.87817100  1
  O  O254  1  0.92443400  0.87500000  0.17443400  1
  O  O255  1  0.62182900  0.51971400  0.88136600  1
  O  O256  1  0.12817100  0.36863400  0.76971400  1
  O  O257  1  0.37817100  0.98028600  0.88136600  1
  O  O258  1  0.32556600  0.57556600  0.62500000  1
  O  O259  1  0.82556600  0.92443400  0.37500000  1
  O  O260  1  0.73028600  0.37182900  0.13136600  1
  O  O261  1  0.86863400  0.23028600  0.12817100  1
  O  O262  1  0.13136600  0.73028600  0.37182900  1
  O  O263  1  0.11863400  0.87817100  0.51971400  1
  O  O264  1  0.76971400  0.62817100  0.63136600  1
  O  O265  1  0.87500000  0.82556600  0.57556600  1
  O  O266  1  0.67443400  0.57556600  0.12500000  1
  O  O267  1  0.62817100  0.63136600  0.76971400  1
  O  O268  1  0.61863400  0.62182900  0.48028600  1
  O  O269  1  0.07556600  0.87500000  0.67443400  1
  O  O270  1  0.17443400  0.92443400  0.87500000  1
  O  O271  1  0.62182900  0.98028600  0.38136600  1
