# generated using pymatgen
data_KTi2(PO4)3
_symmetry_space_group_name_H-M   'P 1'
_cell_length_a   8.49440001
_cell_length_b   8.49440001
_cell_length_c   23.35762938
_cell_angle_alpha   90.00000000
_cell_angle_beta   90.00000000
_cell_angle_gamma   120.00000000
_symmetry_Int_Tables_number   1
_chemical_formula_structural   KTi2(PO4)3
_chemical_formula_sum   'K6 Ti12 P18 O72'
_cell_volume   1459.56960730
_cell_formula_units_Z   6
loop_
 _symmetry_equiv_pos_site_id
 _symmetry_equiv_pos_as_xyz
  1  'x, y, z'
loop_
 _atom_site_type_symbol
 _atom_site_label
 _atom_site_symmetry_multiplicity
 _atom_site_fract_x
 _atom_site_fract_y
 _atom_site_fract_z
 _atom_site_occupancy
  K  K0  1  0.00000000  0.00000000  0.00000000  1
  K  K1  1  0.33333333  0.66666667  0.16666667  1
  K  K2  1  0.66666667  0.33333333  0.33333333  1
  K  K3  1  0.00000000  0.00000000  0.50000000  1
  K  K4  1  0.33333333  0.66666667  0.66666667  1
  K  K5  1  0.66666667  0.33333333  0.83333333  1
  Ti  Ti6  1  0.66666667  0.33333333  0.18383333  1
  Ti  Ti7  1  0.33333333  0.66666667  0.31616667  1
  Ti  Ti8  1  0.00000000  0.00000000  0.14950000  1
  Ti  Ti9  1  0.33333333  0.66666667  0.01716667  1
  Ti  Ti10  1  0.33333333  0.66666667  0.51716667  1
  Ti  Ti11  1  0.00000000  0.00000000  0.64950000  1
  Ti  Ti12  1  0.66666667  0.33333333  0.48283333  1
  Ti  Ti13  1  0.00000000  0.00000000  0.35050000  1
  Ti  Ti14  1  0.00000000  0.00000000  0.85050000  1
  Ti  Ti15  1  0.66666667  0.33333333  0.98283333  1
  Ti  Ti16  1  0.33333333  0.66666667  0.81616667  1
  Ti  Ti17  1  0.66666667  0.33333333  0.68383333  1
  P  P18  1  0.66666667  0.61519533  0.08333333  1
  P  P19  1  0.38480467  0.05147133  0.08333333  1
  P  P20  1  0.94852867  0.33333333  0.08333333  1
  P  P21  1  0.00000000  0.71813800  0.25000000  1
  P  P22  1  0.28186200  0.28186200  0.25000000  1
  P  P23  1  0.71813800  0.00000000  0.25000000  1
  P  P24  1  0.33333333  0.94852867  0.41666667  1
  P  P25  1  0.05147133  0.38480467  0.41666667  1
  P  P26  1  0.61519533  0.66666667  0.41666667  1
  P  P27  1  0.66666667  0.05147133  0.58333333  1
  P  P28  1  0.94852867  0.61519533  0.58333333  1
  P  P29  1  0.38480467  0.33333333  0.58333333  1
  P  P30  1  0.00000000  0.28186200  0.75000000  1
  P  P31  1  0.71813800  0.71813800  0.75000000  1
  P  P32  1  0.28186200  0.00000000  0.75000000  1
  P  P33  1  0.33333333  0.38480467  0.91666667  1
  P  P34  1  0.61519533  0.94852867  0.91666667  1
  P  P35  1  0.05147133  0.66666667  0.91666667  1
  O  O36  1  0.82146900  0.27995700  0.03082000  1
  O  O37  1  0.72004300  0.54151200  0.03082000  1
  O  O38  1  0.45848800  0.17853100  0.03082000  1
  O  O39  1  0.51186433  0.12515467  0.13584667  1
  O  O40  1  0.87484533  0.38670967  0.13584667  1
  O  O41  1  0.61329033  0.48813567  0.13584667  1
  O  O42  1  0.84519767  0.05337633  0.30251333  1
  O  O43  1  0.94662367  0.79182133  0.30251333  1
  O  O44  1  0.20817867  0.15480233  0.30251333  1
  O  O45  1  0.15480233  0.20817867  0.19748667  1
  O  O46  1  0.79182133  0.94662367  0.19748667  1
  O  O47  1  0.05337633  0.84519767  0.19748667  1
  O  O48  1  0.96965067  0.16795133  0.09838033  1
  O  O49  1  0.83204867  0.80169933  0.09838033  1
  O  O50  1  0.19830067  0.03034933  0.09838033  1
  O  O51  1  0.36368267  0.86496733  0.06828633  1
  O  O52  1  0.13503267  0.49871533  0.06828633  1
  O  O53  1  0.50128467  0.63631733  0.06828633  1
  O  O54  1  0.69701600  0.16538200  0.23495300  1
  O  O55  1  0.83461800  0.53163400  0.23495300  1
  O  O56  1  0.46836600  0.30298400  0.23495300  1
  O  O57  1  0.30298400  0.46836600  0.26504700  1
  O  O58  1  0.53163400  0.83461800  0.26504700  1
  O  O59  1  0.16538200  0.69701600  0.26504700  1
  O  O60  1  0.48813567  0.61329033  0.36415333  1
  O  O61  1  0.38670967  0.87484533  0.36415333  1
  O  O62  1  0.12515467  0.51186433  0.36415333  1
  O  O63  1  0.17853100  0.45848800  0.46918000  1
  O  O64  1  0.54151200  0.72004300  0.46918000  1
  O  O65  1  0.27995700  0.82146900  0.46918000  1
  O  O66  1  0.51186433  0.38670967  0.63584667  1
  O  O67  1  0.61329033  0.12515467  0.63584667  1
  O  O68  1  0.87484533  0.48813567  0.63584667  1
  O  O69  1  0.82146900  0.54151200  0.53082000  1
  O  O70  1  0.45848800  0.27995700  0.53082000  1
  O  O71  1  0.72004300  0.17853100  0.53082000  1
  O  O72  1  0.63631733  0.50128467  0.43171367  1
  O  O73  1  0.49871533  0.13503267  0.43171367  1
  O  O74  1  0.86496733  0.36368267  0.43171367  1
  O  O75  1  0.03034933  0.19830067  0.40161967  1
  O  O76  1  0.80169933  0.83204867  0.40161967  1
  O  O77  1  0.16795133  0.96965067  0.40161967  1
  O  O78  1  0.36368267  0.49871533  0.56828633  1
  O  O79  1  0.50128467  0.86496733  0.56828633  1
  O  O80  1  0.13503267  0.63631733  0.56828633  1
  O  O81  1  0.96965067  0.80169933  0.59838033  1
  O  O82  1  0.19830067  0.16795133  0.59838033  1
  O  O83  1  0.83204867  0.03034933  0.59838033  1
  O  O84  1  0.15480233  0.94662367  0.69748667  1
  O  O85  1  0.05337633  0.20817867  0.69748667  1
  O  O86  1  0.79182133  0.84519767  0.69748667  1
  O  O87  1  0.84519767  0.79182133  0.80251333  1
  O  O88  1  0.20817867  0.05337633  0.80251333  1
  O  O89  1  0.94662367  0.15480233  0.80251333  1
  O  O90  1  0.17853100  0.72004300  0.96918000  1
  O  O91  1  0.27995700  0.45848800  0.96918000  1
  O  O92  1  0.54151200  0.82146900  0.96918000  1
  O  O93  1  0.48813567  0.87484533  0.86415333  1
  O  O94  1  0.12515467  0.61329033  0.86415333  1
  O  O95  1  0.38670967  0.51186433  0.86415333  1
  O  O96  1  0.30298400  0.83461800  0.76504700  1
  O  O97  1  0.16538200  0.46836600  0.76504700  1
  O  O98  1  0.53163400  0.69701600  0.76504700  1
  O  O99  1  0.69701600  0.53163400  0.73495300  1
  O  O100  1  0.46836600  0.16538200  0.73495300  1
  O  O101  1  0.83461800  0.30298400  0.73495300  1
  O  O102  1  0.03034933  0.83204867  0.90161967  1
  O  O103  1  0.16795133  0.19830067  0.90161967  1
  O  O104  1  0.80169933  0.96965067  0.90161967  1
  O  O105  1  0.63631733  0.13503267  0.93171367  1
  O  O106  1  0.86496733  0.50128467  0.93171367  1
  O  O107  1  0.49871533  0.36368267  0.93171367  1
