# generated using pymatgen
data_AsSeS2N2ClF6
_symmetry_space_group_name_H-M   'P 1'
_cell_length_a   9.54553600
_cell_length_b   19.99068700
_cell_length_c   12.49592628
_cell_angle_alpha   90.00000000
_cell_angle_beta   122.39679533
_cell_angle_gamma   90.00000000
_symmetry_Int_Tables_number   1
_chemical_formula_structural   AsSeS2N2ClF6
_chemical_formula_sum   'As8 Se8 S16 N16 Cl8 F48'
_cell_volume   2013.36753633
_cell_formula_units_Z   8
loop_
 _symmetry_equiv_pos_site_id
 _symmetry_equiv_pos_as_xyz
  1  'x, y, z'
loop_
 _atom_site_type_symbol
 _atom_site_label
 _atom_site_symmetry_multiplicity
 _atom_site_fract_x
 _atom_site_fract_y
 _atom_site_fract_z
 _atom_site_occupancy
  As  As0  1  0.49970900  0.03496700  0.75208300  1
  As  As1  1  0.02954600  0.79229000  0.59972200  1
  As  As2  1  0.97045400  0.29229000  0.90027800  1
  As  As3  1  0.49970900  0.46503300  0.25208300  1
  As  As4  1  0.50029100  0.96503300  0.24791700  1
  As  As5  1  0.02954600  0.70771000  0.09972200  1
  As  As6  1  0.50029100  0.53496700  0.74791700  1
  As  As7  1  0.97045400  0.20771000  0.40027800  1
  Se  Se8  1  0.39291900  0.72169400  0.53085400  1
  Se  Se9  1  0.14139500  0.51523800  0.32386500  1
  Se  Se10  1  0.85860500  0.01523800  0.17613500  1
  Se  Se11  1  0.39291900  0.77830600  0.03085400  1
  Se  Se12  1  0.85860500  0.48476200  0.67613500  1
  Se  Se13  1  0.60708100  0.22169400  0.96914600  1
  Se  Se14  1  0.60708100  0.27830600  0.46914600  1
  Se  Se15  1  0.14139500  0.98476200  0.82386500  1
  S  S16  1  0.43779800  0.35044100  0.89907900  1
  S  S17  1  0.91625800  0.50733000  0.11273700  1
  S  S18  1  0.06778100  0.89686300  0.24593000  1
  S  S19  1  0.38867100  0.26423100  0.25669900  1
  S  S20  1  0.38867100  0.23576900  0.75669900  1
  S  S21  1  0.61132900  0.76423100  0.24330100  1
  S  S22  1  0.93221900  0.10313700  0.75407000  1
  S  S23  1  0.08374200  0.49267000  0.88726300  1
  S  S24  1  0.93221900  0.39686300  0.25407000  1
  S  S25  1  0.91625800  0.99267000  0.61273700  1
  S  S26  1  0.08374200  0.00733000  0.38726300  1
  S  S27  1  0.06778100  0.60313700  0.74593000  1
  S  S28  1  0.61132900  0.73576900  0.74330100  1
  S  S29  1  0.56220200  0.64955900  0.10092100  1
  S  S30  1  0.43779800  0.14955900  0.39907900  1
  S  S31  1  0.56220200  0.85044100  0.60092100  1
  N  N32  1  0.58747500  0.19426400  0.50414000  1
  N  N33  1  0.34146100  0.19011200  0.27249800  1
  N  N34  1  0.09777700  0.06540500  0.85736900  1
  N  N35  1  0.09777700  0.43459500  0.35736900  1
  N  N36  1  0.41252500  0.69426400  0.99586000  1
  N  N37  1  0.58747500  0.30573600  0.00414000  1
  N  N38  1  0.90222300  0.56540500  0.64263100  1
  N  N39  1  0.90222300  0.93459500  0.14263100  1
  N  N40  1  0.84578100  0.06190600  0.62789700  1
  N  N41  1  0.65853900  0.69011200  0.22750200  1
  N  N42  1  0.15421900  0.93809400  0.37210300  1
  N  N43  1  0.15421900  0.56190600  0.87210300  1
  N  N44  1  0.41252500  0.80573600  0.49586000  1
  N  N45  1  0.65853900  0.80988800  0.72750200  1
  N  N46  1  0.34146100  0.30988800  0.77249800  1
  N  N47  1  0.84578100  0.43809400  0.12789700  1
  Cl  Cl48  1  0.96252000  0.41342600  0.59763600  1
  Cl  Cl49  1  0.47774100  0.33969400  0.54125300  1
  Cl  Cl50  1  0.96252000  0.08657400  0.09763600  1
  Cl  Cl51  1  0.47774100  0.16030600  0.04125300  1
  Cl  Cl52  1  0.52225900  0.66030600  0.45874700  1
  Cl  Cl53  1  0.52225900  0.83969400  0.95874700  1
  Cl  Cl54  1  0.03748000  0.91342600  0.90236400  1
  Cl  Cl55  1  0.03748000  0.58657400  0.40236400  1
  F  F56  1  0.44577900  0.98593000  0.09208700  1
  F  F57  1  0.76167600  0.23238800  0.34189400  1
  F  F58  1  0.69049000  0.49771700  0.28394200  1
  F  F59  1  0.59302400  0.38420100  0.30803400  1
  F  F60  1  0.40205200  0.54367700  0.19556400  1
  F  F61  1  0.82325500  0.68207700  0.04255100  1
  F  F62  1  0.23832400  0.76761200  0.65810600  1
  F  F63  1  0.05725400  0.76828800  0.74655300  1
  F  F64  1  0.40205200  0.95632300  0.69556400  1
  F  F65  1  0.00750700  0.81716400  0.45571700  1
  F  F66  1  0.99249300  0.31716400  0.04428300  1
  F  F67  1  0.94274600  0.23171200  0.25344700  1
  F  F68  1  0.55418100  0.55765100  0.90266200  1
  F  F69  1  0.30829900  0.43132900  0.22131500  1
  F  F70  1  0.44581900  0.05765100  0.59733800  1
  F  F71  1  0.95899900  0.71073100  0.53901400  1
  F  F72  1  0.17674500  0.18207700  0.45744900  1
  F  F73  1  0.99249300  0.18283600  0.54428300  1
  F  F74  1  0.69049000  0.00228300  0.78394200  1
  F  F75  1  0.00750700  0.68283600  0.95571700  1
  F  F76  1  0.40697600  0.88420100  0.19196600  1
  F  F77  1  0.89824100  0.12524700  0.33769000  1
  F  F78  1  0.04100100  0.21073100  0.96098600  1
  F  F79  1  0.82325500  0.81792300  0.54255100  1
  F  F80  1  0.10175900  0.87475300  0.66231000  1
  F  F81  1  0.44577900  0.51407000  0.59208700  1
  F  F82  1  0.30951000  0.99771700  0.21605800  1
  F  F83  1  0.23832400  0.73238800  0.15810600  1
  F  F84  1  0.30829900  0.06867100  0.72131500  1
  F  F85  1  0.44581900  0.44234900  0.09733800  1
  F  F86  1  0.94274600  0.26828800  0.75344700  1
  F  F87  1  0.69170100  0.56867100  0.77868500  1
  F  F88  1  0.76167600  0.26761200  0.84189400  1
  F  F89  1  0.89824100  0.37475300  0.83769000  1
  F  F90  1  0.95899900  0.78926900  0.03901400  1
  F  F91  1  0.55422100  0.48593000  0.40791300  1
  F  F92  1  0.04100100  0.28926900  0.46098600  1
  F  F93  1  0.59302400  0.11579900  0.80803400  1
  F  F94  1  0.69170100  0.93132900  0.27868500  1
  F  F95  1  0.30951000  0.50228300  0.71605800  1
  F  F96  1  0.59794800  0.04367700  0.30443600  1
  F  F97  1  0.10175900  0.62524700  0.16231000  1
  F  F98  1  0.59794800  0.45632300  0.80443600  1
  F  F99  1  0.05725400  0.73171200  0.24655300  1
  F  F100  1  0.40697600  0.61579900  0.69196600  1
  F  F101  1  0.55422100  0.01407000  0.90791300  1
  F  F102  1  0.55418100  0.94234900  0.40266200  1
  F  F103  1  0.17674500  0.31792300  0.95744900  1
