# generated using pymatgen
data_NdTlSe2
_symmetry_space_group_name_H-M   'P 1'
_cell_length_a   4.33130603
_cell_length_b   4.33130603
_cell_length_c   23.33092994
_cell_angle_alpha   90.00000000
_cell_angle_beta   90.00000000
_cell_angle_gamma   120.00000000
_symmetry_Int_Tables_number   1
_chemical_formula_structural   NdTlSe2
_chemical_formula_sum   'Nd3 Tl3 Se6'
_cell_volume   379.05342241
_cell_formula_units_Z   3
loop_
 _symmetry_equiv_pos_site_id
 _symmetry_equiv_pos_as_xyz
  1  'x, y, z'
loop_
 _atom_site_type_symbol
 _atom_site_label
 _atom_site_symmetry_multiplicity
 _atom_site_fract_x
 _atom_site_fract_y
 _atom_site_fract_z
 _atom_site_occupancy
  Nd  Nd0  1  0.00000000  0.00000000  0.00000000  1
  Nd  Nd1  1  0.66666667  0.33333333  0.33333333  1
  Nd  Nd2  1  0.33333333  0.66666667  0.66666667  1
  Tl  Tl3  1  0.33333333  0.66666667  0.16666667  1
  Tl  Tl4  1  1.00000000  1.00000000  0.50000000  1
  Tl  Tl5  1  0.66666667  0.33333333  0.83333333  1
  Se  Se6  1  0.00000000  0.00000000  0.26333800  1
  Se  Se7  1  0.66666667  0.33333333  0.06999533  1
  Se  Se8  1  0.66666667  0.33333333  0.59667133  1
  Se  Se9  1  0.33333333  0.66666667  0.40332867  1
  Se  Se10  1  0.33333333  0.66666667  0.93000467  1
  Se  Se11  1  0.00000000  0.00000000  0.73666200  1
