# generated using pymatgen
data_TaO2
_symmetry_space_group_name_H-M   'P 1'
_cell_length_a   13.82264800
_cell_length_b   13.82264800
_cell_length_c   6.02363000
_cell_angle_alpha   90.00000000
_cell_angle_beta   90.00000000
_cell_angle_gamma   90.00000000
_symmetry_Int_Tables_number   1
_chemical_formula_structural   TaO2
_chemical_formula_sum   'Ta32 O64'
_cell_volume   1150.90846647
_cell_formula_units_Z   32
loop_
 _symmetry_equiv_pos_site_id
 _symmetry_equiv_pos_as_xyz
  1  'x, y, z'
loop_
 _atom_site_type_symbol
 _atom_site_label
 _atom_site_symmetry_multiplicity
 _atom_site_fract_x
 _atom_site_fract_y
 _atom_site_fract_z
 _atom_site_occupancy
  Ta  Ta0  1  0.36763350  0.12481650  0.84896450  1
  Ta  Ta1  1  0.37518350  0.36763350  0.09896450  1
  Ta  Ta2  1  0.62481650  0.63236650  0.09896450  1
  Ta  Ta3  1  0.63236650  0.87518350  0.84896450  1
  Ta  Ta4  1  0.13236650  0.87518350  0.40103550  1
  Ta  Ta5  1  0.62481650  0.13236650  0.65103550  1
  Ta  Ta6  1  0.37518350  0.86763350  0.65103550  1
  Ta  Ta7  1  0.86763350  0.12481650  0.40103550  1
  Ta  Ta8  1  0.38538650  0.12654750  0.40012750  1
  Ta  Ta9  1  0.87345250  0.88538650  0.15012750  1
  Ta  Ta10  1  0.12654750  0.11461350  0.15012750  1
  Ta  Ta11  1  0.61461350  0.87345250  0.40012750  1
  Ta  Ta12  1  0.61461350  0.37345250  0.34987250  1
  Ta  Ta13  1  0.62654750  0.11461350  0.09987250  1
  Ta  Ta14  1  0.37345250  0.88538650  0.09987250  1
  Ta  Ta15  1  0.38538650  0.62654750  0.34987250  1
  Ta  Ta16  1  0.86763350  0.62481650  0.34896450  1
  Ta  Ta17  1  0.87518350  0.86763350  0.59896450  1
  Ta  Ta18  1  0.12481650  0.13236650  0.59896450  1
  Ta  Ta19  1  0.13236650  0.37518350  0.34896450  1
  Ta  Ta20  1  0.63236650  0.37518350  0.90103550  1
  Ta  Ta21  1  0.12481650  0.63236650  0.15103550  1
  Ta  Ta22  1  0.87518350  0.36763350  0.15103550  1
  Ta  Ta23  1  0.36763350  0.62481650  0.90103550  1
  Ta  Ta24  1  0.88538650  0.62654750  0.90012750  1
  Ta  Ta25  1  0.37345250  0.38538650  0.65012750  1
  Ta  Ta26  1  0.62654750  0.61461350  0.65012750  1
  Ta  Ta27  1  0.11461350  0.37345250  0.90012750  1
  Ta  Ta28  1  0.11461350  0.87345250  0.84987250  1
  Ta  Ta29  1  0.12654750  0.61461350  0.59987250  1
  Ta  Ta30  1  0.87345250  0.38538650  0.59987250  1
  Ta  Ta31  1  0.88538650  0.12654750  0.84987250  1
  O  O32  1  0.23770300  0.12554800  0.36868600  1
  O  O33  1  0.37445200  0.23770300  0.61868600  1
  O  O34  1  0.62554800  0.76229700  0.61868600  1
  O  O35  1  0.76229700  0.87445200  0.36868600  1
  O  O36  1  0.26229700  0.87445200  0.88131400  1
  O  O37  1  0.62554800  0.26229700  0.13131400  1
  O  O38  1  0.37445200  0.73770300  0.13131400  1
  O  O39  1  0.73770300  0.12554800  0.88131400  1
  O  O40  1  0.22570000  0.12476000  0.87577800  1
  O  O41  1  0.37524000  0.22570000  0.12577800  1
  O  O42  1  0.62476000  0.77430000  0.12577800  1
  O  O43  1  0.77430000  0.87524000  0.87577800  1
  O  O44  1  0.27430000  0.87524000  0.37422200  1
  O  O45  1  0.62476000  0.27430000  0.62422200  1
  O  O46  1  0.37524000  0.72570000  0.62422200  1
  O  O47  1  0.72570000  0.12476000  0.37422200  1
  O  O48  1  0.51276400  0.62337100  0.85956100  1
  O  O49  1  0.37662900  0.01276400  0.60956100  1
  O  O50  1  0.62337100  0.98723600  0.60956100  1
  O  O51  1  0.48723600  0.37662900  0.85956100  1
  O  O52  1  0.48723600  0.87662900  0.89043900  1
  O  O53  1  0.12337100  0.98723600  0.64043900  1
  O  O54  1  0.87662900  0.01276400  0.64043900  1
  O  O55  1  0.51276400  0.12337100  0.89043900  1
  O  O56  1  0.52728550  0.62638950  0.38084450  1
  O  O57  1  0.37361050  0.02728550  0.13084450  1
  O  O58  1  0.62638950  0.97271450  0.13084450  1
  O  O59  1  0.47271450  0.37361050  0.38084450  1
  O  O60  1  0.47271450  0.87361050  0.36915550  1
  O  O61  1  0.12638950  0.97271450  0.11915550  1
  O  O62  1  0.87361050  0.02728550  0.11915550  1
  O  O63  1  0.52728550  0.12638950  0.36915550  1
  O  O64  1  0.73770300  0.62554800  0.86868600  1
  O  O65  1  0.87445200  0.73770300  0.11868600  1
  O  O66  1  0.12554800  0.26229700  0.11868600  1
  O  O67  1  0.26229700  0.37445200  0.86868600  1
  O  O68  1  0.76229700  0.37445200  0.38131400  1
  O  O69  1  0.12554800  0.76229700  0.63131400  1
  O  O70  1  0.87445200  0.23770300  0.63131400  1
  O  O71  1  0.23770300  0.62554800  0.38131400  1
  O  O72  1  0.72570000  0.62476000  0.37577800  1
  O  O73  1  0.87524000  0.72570000  0.62577800  1
  O  O74  1  0.12476000  0.27430000  0.62577800  1
  O  O75  1  0.27430000  0.37524000  0.37577800  1
  O  O76  1  0.77430000  0.37524000  0.87422200  1
  O  O77  1  0.12476000  0.77430000  0.12422200  1
  O  O78  1  0.87524000  0.22570000  0.12422200  1
  O  O79  1  0.22570000  0.62476000  0.87422200  1
  O  O80  1  0.01276400  0.12337100  0.35956100  1
  O  O81  1  0.87662900  0.51276400  0.10956100  1
  O  O82  1  0.12337100  0.48723600  0.10956100  1
  O  O83  1  0.98723600  0.87662900  0.35956100  1
  O  O84  1  0.98723600  0.37662900  0.39043900  1
  O  O85  1  0.62337100  0.48723600  0.14043900  1
  O  O86  1  0.37662900  0.51276400  0.14043900  1
  O  O87  1  0.01276400  0.62337100  0.39043900  1
  O  O88  1  0.02728550  0.12638950  0.88084450  1
  O  O89  1  0.87361050  0.52728550  0.63084450  1
  O  O90  1  0.12638950  0.47271450  0.63084450  1
  O  O91  1  0.97271450  0.87361050  0.88084450  1
  O  O92  1  0.97271450  0.37361050  0.86915550  1
  O  O93  1  0.62638950  0.47271450  0.61915550  1
  O  O94  1  0.37361050  0.52728550  0.61915550  1
  O  O95  1  0.02728550  0.62638950  0.86915550  1
