# generated using pymatgen
data_SrLiGaN2
_symmetry_space_group_name_H-M   'P 1'
_cell_length_a   6.12695000
_cell_length_b   10.26645600
_cell_length_c   12.74500667
_cell_angle_alpha   90.00000000
_cell_angle_beta   91.37233856
_cell_angle_gamma   90.00000000
_symmetry_Int_Tables_number   1
_chemical_formula_structural   SrLiGaN2
_chemical_formula_sum   'Sr12 Li12 Ga12 N24'
_cell_volume   801.45725807
_cell_formula_units_Z   12
loop_
 _symmetry_equiv_pos_site_id
 _symmetry_equiv_pos_as_xyz
  1  'x, y, z'
loop_
 _atom_site_type_symbol
 _atom_site_label
 _atom_site_symmetry_multiplicity
 _atom_site_fract_x
 _atom_site_fract_y
 _atom_site_fract_z
 _atom_site_occupancy
  Sr  Sr0  1  0.94752600  0.00000000  0.74341400  1
  Sr  Sr1  1  0.50000000  0.67921300  0.50000000  1
  Sr  Sr2  1  0.50000000  0.32078700  0.50000000  1
  Sr  Sr3  1  0.50000000  0.33394000  0.00000000  1
  Sr  Sr4  1  0.50000000  0.66606000  0.00000000  1
  Sr  Sr5  1  0.05247400  0.00000000  0.25658600  1
  Sr  Sr6  1  0.44752600  0.50000000  0.74341400  1
  Sr  Sr7  1  0.00000000  0.17921300  0.50000000  1
  Sr  Sr8  1  0.00000000  0.82078700  0.50000000  1
  Sr  Sr9  1  0.00000000  0.83394000  0.00000000  1
  Sr  Sr10  1  0.00000000  0.16606000  0.00000000  1
  Sr  Sr11  1  0.55247400  0.50000000  0.25658600  1
  Li  Li12  1  0.62999750  0.81710550  0.68199100  1
  Li  Li13  1  0.37000250  0.18289450  0.31800900  1
  Li  Li14  1  0.62999750  0.18289450  0.68199100  1
  Li  Li15  1  0.59495600  0.00000000  0.91888200  1
  Li  Li16  1  0.37000250  0.81710550  0.31800900  1
  Li  Li17  1  0.40504400  0.00000000  0.08111800  1
  Li  Li18  1  0.12999750  0.31710550  0.68199100  1
  Li  Li19  1  0.87000250  0.68289450  0.31800900  1
  Li  Li20  1  0.12999750  0.68289450  0.68199100  1
  Li  Li21  1  0.09495600  0.50000000  0.91888200  1
  Li  Li22  1  0.87000250  0.31710550  0.31800900  1
  Li  Li23  1  0.90504400  0.50000000  0.08111800  1
  Ga  Ga24  1  0.65135050  0.16247150  0.18750200  1
  Ga  Ga25  1  0.65135050  0.83752850  0.18750200  1
  Ga  Ga26  1  0.34864950  0.83752850  0.81249800  1
  Ga  Ga27  1  0.39176600  0.00000000  0.58864800  1
  Ga  Ga28  1  0.60823400  0.00000000  0.41135200  1
  Ga  Ga29  1  0.34864950  0.16247150  0.81249800  1
  Ga  Ga30  1  0.15135050  0.66247150  0.18750200  1
  Ga  Ga31  1  0.15135050  0.33752850  0.18750200  1
  Ga  Ga32  1  0.84864950  0.33752850  0.81249800  1
  Ga  Ga33  1  0.89176600  0.50000000  0.58864800  1
  Ga  Ga34  1  0.10823400  0.50000000  0.41135200  1
  Ga  Ga35  1  0.84864950  0.66247150  0.81249800  1
  N  N36  1  0.29632750  0.84104350  0.65685800  1
  N  N37  1  0.74871900  0.00000000  0.10874900  1
  N  N38  1  0.32532000  0.82209400  0.14903500  1
  N  N39  1  0.25128100  0.00000000  0.89125100  1
  N  N40  1  0.29632750  0.15895650  0.65685800  1
  N  N41  1  0.70367250  0.15895650  0.34314200  1
  N  N42  1  0.67468000  0.82209400  0.85096500  1
  N  N43  1  0.32532000  0.17790600  0.14903500  1
  N  N44  1  0.71937200  0.00000000  0.56688800  1
  N  N45  1  0.28062800  0.00000000  0.43311200  1
  N  N46  1  0.67468000  0.17790600  0.85096500  1
  N  N47  1  0.70367250  0.84104350  0.34314200  1
  N  N48  1  0.79632750  0.34104350  0.65685800  1
  N  N49  1  0.24871900  0.50000000  0.10874900  1
  N  N50  1  0.82532000  0.32209400  0.14903500  1
  N  N51  1  0.75128100  0.50000000  0.89125100  1
  N  N52  1  0.79632750  0.65895650  0.65685800  1
  N  N53  1  0.20367250  0.65895650  0.34314200  1
  N  N54  1  0.17468000  0.32209400  0.85096500  1
  N  N55  1  0.82532000  0.67790600  0.14903500  1
  N  N56  1  0.21937200  0.50000000  0.56688800  1
  N  N57  1  0.78062800  0.50000000  0.43311200  1
  N  N58  1  0.17468000  0.67790600  0.85096500  1
  N  N59  1  0.20367250  0.34104350  0.34314200  1
