# generated using pymatgen
data_Ho2CdS4
_symmetry_space_group_name_H-M   'P 1'
_cell_length_a   13.72632000
_cell_length_b   8.01871200
_cell_length_c   33.03095421
_cell_angle_alpha   90.00000000
_cell_angle_beta   98.35467532
_cell_angle_gamma   90.00000000
_symmetry_Int_Tables_number   1
_chemical_formula_structural   Ho2CdS4
_chemical_formula_sum   'Ho40 Cd20 S80'
_cell_volume   3597.04864553
_cell_formula_units_Z   20
loop_
 _symmetry_equiv_pos_site_id
 _symmetry_equiv_pos_as_xyz
  1  'x, y, z'
loop_
 _atom_site_type_symbol
 _atom_site_label
 _atom_site_symmetry_multiplicity
 _atom_site_fract_x
 _atom_site_fract_y
 _atom_site_fract_z
 _atom_site_occupancy
  Ho  Ho0  1  0.00394300  0.00000000  0.00068600  1
  Ho  Ho1  1  0.62650800  0.24619400  0.12461700  1
  Ho  Ho2  1  0.40439400  0.00000000  0.20061300  1
  Ho  Ho3  1  0.62650800  0.75380600  0.12461700  1
  Ho  Ho4  1  0.67584900  0.00000000  0.02611700  1
  Ho  Ho5  1  0.52655900  0.74615500  0.32449700  1
  Ho  Ho6  1  0.02655900  0.75384500  0.32449700  1
  Ho  Ho7  1  0.80438000  0.00000000  0.40049800  1
  Ho  Ho8  1  0.57580900  0.50000000  0.22608600  1
  Ho  Ho9  1  0.92669750  0.74604450  0.52437000  1
  Ho  Ho10  1  0.42669750  0.75395550  0.52437000  1
  Ho  Ho11  1  0.47551900  0.00000000  0.42578900  1
  Ho  Ho12  1  0.82598950  0.24819550  0.72622300  1
  Ho  Ho13  1  0.82598950  0.75180450  0.72622300  1
  Ho  Ho14  1  0.87276100  0.00000000  0.62578900  1
  Ho  Ho15  1  0.57444200  0.50000000  0.72619100  1
  Ho  Ho16  1  0.72502750  0.74787950  0.92409200  1
  Ho  Ho17  1  0.70295800  0.50000000  0.59970300  1
  Ho  Ho18  1  0.77806400  0.50000000  0.82588700  1
  Ho  Ho19  1  0.22502750  0.75212050  0.92409200  1
  Ho  Ho20  1  0.50394300  0.50000000  0.00068600  1
  Ho  Ho21  1  0.12650800  0.74619400  0.12461700  1
  Ho  Ho22  1  0.90439400  0.50000000  0.20061300  1
  Ho  Ho23  1  0.12650800  0.25380600  0.12461700  1
  Ho  Ho24  1  0.17584900  0.50000000  0.02611700  1
  Ho  Ho25  1  0.02655900  0.24615500  0.32449700  1
  Ho  Ho26  1  0.52655900  0.25384500  0.32449700  1
  Ho  Ho27  1  0.30438000  0.50000000  0.40049800  1
  Ho  Ho28  1  0.07580900  0.00000000  0.22608600  1
  Ho  Ho29  1  0.42669750  0.24604450  0.52437000  1
  Ho  Ho30  1  0.92669750  0.25395550  0.52437000  1
  Ho  Ho31  1  0.97551900  0.50000000  0.42578900  1
  Ho  Ho32  1  0.32598950  0.74819550  0.72622300  1
  Ho  Ho33  1  0.32598950  0.25180450  0.72622300  1
  Ho  Ho34  1  0.37276100  0.50000000  0.62578900  1
  Ho  Ho35  1  0.07444200  0.00000000  0.72619100  1
  Ho  Ho36  1  0.22502750  0.24787950  0.92409200  1
  Ho  Ho37  1  0.20295800  0.00000000  0.59970300  1
  Ho  Ho38  1  0.27806400  0.00000000  0.82588700  1
  Ho  Ho39  1  0.72502750  0.25212050  0.92409200  1
  Cd  Cd40  1  0.34615700  0.00000000  0.04876900  1
  Cd  Cd41  1  0.74590300  0.00000000  0.24933600  1
  Cd  Cd42  1  0.87081900  0.00000000  0.12431600  1
  Cd  Cd43  1  0.64584400  0.50000000  0.44905600  1
  Cd  Cd44  1  0.77058200  0.50000000  0.32413100  1
  Cd  Cd45  1  0.04818500  0.50000000  0.64958300  1
  Cd  Cd46  1  0.67027500  0.00000000  0.52391400  1
  Cd  Cd47  1  0.94770300  0.00000000  0.85106900  1
  Cd  Cd48  1  0.10194300  0.50000000  0.80173100  1
  Cd  Cd49  1  0.97281200  0.50000000  0.92325700  1
  Cd  Cd50  1  0.84615700  0.50000000  0.04876900  1
  Cd  Cd51  1  0.24590300  0.50000000  0.24933600  1
  Cd  Cd52  1  0.37081900  0.50000000  0.12431600  1
  Cd  Cd53  1  0.14584400  0.00000000  0.44905600  1
  Cd  Cd54  1  0.27058200  0.00000000  0.32413100  1
  Cd  Cd55  1  0.54818500  0.00000000  0.64958300  1
  Cd  Cd56  1  0.17027500  0.50000000  0.52391400  1
  Cd  Cd57  1  0.44770300  0.50000000  0.85106900  1
  Cd  Cd58  1  0.60194300  0.00000000  0.80173100  1
  Cd  Cd59  1  0.47281200  0.00000000  0.92325700  1
  S  S60  1  0.53511800  0.00000000  0.07654000  1
  S  S61  1  0.26932000  0.73686300  0.07603800  1
  S  S62  1  0.72180400  0.00000000  0.17071900  1
  S  S63  1  0.76932000  0.76313700  0.07603800  1
  S  S64  1  0.48106600  0.73353500  0.17364200  1
  S  S65  1  0.93506600  0.00000000  0.27660500  1
  S  S66  1  0.66921750  0.73664350  0.27614900  1
  S  S67  1  0.62179800  0.50000000  0.37079700  1
  S  S68  1  0.52780100  0.50000000  0.08020700  1
  S  S69  1  0.48106600  0.26646500  0.17364200  1
  S  S70  1  0.21500600  0.00000000  0.17360600  1
  S  S71  1  0.66921750  0.26335650  0.27614900  1
  S  S72  1  0.83507200  0.50000000  0.47668000  1
  S  S73  1  0.88120200  0.73366900  0.37379200  1
  S  S74  1  0.06938450  0.73661650  0.47627800  1
  S  S75  1  0.42786300  0.00000000  0.28022900  1
  S  S76  1  0.02144200  0.50000000  0.57113300  1
  S  S77  1  0.38120200  0.76633100  0.37379200  1
  S  S78  1  0.56938450  0.76338350  0.47627800  1
  S  S79  1  0.61498200  0.00000000  0.37371900  1
  S  S80  1  0.73526700  0.00000000  0.67681500  1
  S  S81  1  0.78090850  0.23428250  0.57363800  1
  S  S82  1  0.92362800  0.00000000  0.77046700  1
  S  S83  1  0.82782600  0.00000000  0.48029000  1
  S  S84  1  0.47003700  0.73337500  0.67650000  1
  S  S85  1  0.78090850  0.76571750  0.57363800  1
  S  S86  1  0.51391000  0.50000000  0.57372400  1
  S  S87  1  0.97003700  0.76662500  0.67650000  1
  S  S88  1  0.67960300  0.73415800  0.77303500  1
  S  S89  1  0.63579800  0.50000000  0.87580800  1
  S  S90  1  0.72688700  0.50000000  0.67975600  1
  S  S91  1  0.82274100  0.50000000  0.96992800  1
  S  S92  1  0.86869950  0.73743250  0.87570200  1
  S  S93  1  0.17960300  0.76584200  0.77303500  1
  S  S94  1  0.91486500  0.50000000  0.77270200  1
  S  S95  1  0.86869950  0.26256750  0.87570200  1
  S  S96  1  0.08121900  0.73416500  0.97374200  1
  S  S97  1  0.12724000  0.50000000  0.87974200  1
  S  S98  1  0.08121900  0.26583500  0.97374200  1
  S  S99  1  0.31467000  0.50000000  0.97337900  1
  S  S100  1  0.03511800  0.50000000  0.07654000  1
  S  S101  1  0.76932000  0.23686300  0.07603800  1
  S  S102  1  0.22180400  0.50000000  0.17071900  1
  S  S103  1  0.26932000  0.26313700  0.07603800  1
  S  S104  1  0.98106600  0.23353500  0.17364200  1
  S  S105  1  0.43506600  0.50000000  0.27660500  1
  S  S106  1  0.16921750  0.23664350  0.27614900  1
  S  S107  1  0.12179800  0.00000000  0.37079700  1
  S  S108  1  0.02780100  0.00000000  0.08020700  1
  S  S109  1  0.98106600  0.76646500  0.17364200  1
  S  S110  1  0.71500600  0.50000000  0.17360600  1
  S  S111  1  0.16921750  0.76335650  0.27614900  1
  S  S112  1  0.33507200  0.00000000  0.47668000  1
  S  S113  1  0.38120200  0.23366900  0.37379200  1
  S  S114  1  0.56938450  0.23661650  0.47627800  1
  S  S115  1  0.92786300  0.50000000  0.28022900  1
  S  S116  1  0.52144200  0.00000000  0.57113300  1
  S  S117  1  0.88120200  0.26633100  0.37379200  1
  S  S118  1  0.06938450  0.26338350  0.47627800  1
  S  S119  1  0.11498200  0.50000000  0.37371900  1
  S  S120  1  0.23526700  0.50000000  0.67681500  1
  S  S121  1  0.28090850  0.73428250  0.57363800  1
  S  S122  1  0.42362800  0.50000000  0.77046700  1
  S  S123  1  0.32782600  0.50000000  0.48029000  1
  S  S124  1  0.97003700  0.23337500  0.67650000  1
  S  S125  1  0.28090850  0.26571750  0.57363800  1
  S  S126  1  0.01391000  0.00000000  0.57372400  1
  S  S127  1  0.47003700  0.26662500  0.67650000  1
  S  S128  1  0.17960300  0.23415800  0.77303500  1
  S  S129  1  0.13579800  0.00000000  0.87580800  1
  S  S130  1  0.22688700  0.00000000  0.67975600  1
  S  S131  1  0.32274100  0.00000000  0.96992800  1
  S  S132  1  0.36869950  0.23743250  0.87570200  1
  S  S133  1  0.67960300  0.26584200  0.77303500  1
  S  S134  1  0.41486500  0.00000000  0.77270200  1
  S  S135  1  0.36869950  0.76256750  0.87570200  1
  S  S136  1  0.58121900  0.23416500  0.97374200  1
  S  S137  1  0.62724000  0.00000000  0.87974200  1
  S  S138  1  0.58121900  0.76583500  0.97374200  1
  S  S139  1  0.81467000  0.00000000  0.97337900  1
