# generated using pymatgen
data_Ca2Th(Si2O5)4
_symmetry_space_group_name_H-M   'P 1'
_cell_length_a   7.54543400
_cell_length_b   7.54543400
_cell_length_c   15.15052200
_cell_angle_alpha   90.00000000
_cell_angle_beta   90.00000000
_cell_angle_gamma   90.00000000
_symmetry_Int_Tables_number   1
_chemical_formula_structural   Ca2Th(Si2O5)4
_chemical_formula_sum   'Ca4 Th2 Si16 O40'
_cell_volume   862.57336919
_cell_formula_units_Z   2
loop_
 _symmetry_equiv_pos_site_id
 _symmetry_equiv_pos_as_xyz
  1  'x, y, z'
loop_
 _atom_site_type_symbol
 _atom_site_label
 _atom_site_symmetry_multiplicity
 _atom_site_fract_x
 _atom_site_fract_y
 _atom_site_fract_z
 _atom_site_occupancy
  Ca  Ca0  1  0.50000000  0.00000000  0.00000000  1
  Ca  Ca1  1  0.00000000  0.50000000  0.00000000  1
  Ca  Ca2  1  0.00000000  0.50000000  0.50000000  1
  Ca  Ca3  1  0.50000000  0.00000000  0.50000000  1
  Th  Th4  1  0.00000000  0.00000000  0.00000000  1
  Th  Th5  1  0.50000000  0.50000000  0.50000000  1
  Si  Si6  1  0.25297200  0.66858000  0.14723800  1
  Si  Si7  1  0.74702800  0.33142000  0.14723800  1
  Si  Si8  1  0.33142000  0.25297200  0.14723800  1
  Si  Si9  1  0.75297200  0.83142000  0.35276200  1
  Si  Si10  1  0.83142000  0.24702800  0.35276200  1
  Si  Si11  1  0.16858000  0.75297200  0.35276200  1
  Si  Si12  1  0.24702800  0.16858000  0.35276200  1
  Si  Si13  1  0.66858000  0.74702800  0.14723800  1
  Si  Si14  1  0.75297200  0.16858000  0.64723800  1
  Si  Si15  1  0.24702800  0.83142000  0.64723800  1
  Si  Si16  1  0.83142000  0.75297200  0.64723800  1
  Si  Si17  1  0.25297200  0.33142000  0.85276200  1
  Si  Si18  1  0.33142000  0.74702800  0.85276200  1
  Si  Si19  1  0.66858000  0.25297200  0.85276200  1
  Si  Si20  1  0.74702800  0.66858000  0.85276200  1
  Si  Si21  1  0.16858000  0.24702800  0.64723800  1
  O  O22  1  0.24439000  0.60649600  0.41946200  1
  O  O23  1  0.20596700  0.70596700  0.25000000  1
  O  O24  1  0.74439000  0.89350400  0.08053800  1
  O  O25  1  0.39350400  0.24439000  0.41946200  1
  O  O26  1  0.25346500  0.45267700  0.12618300  1
  O  O27  1  0.89350400  0.25561000  0.08053800  1
  O  O28  1  0.95267700  0.75346500  0.37381700  1
  O  O29  1  0.24653500  0.95267700  0.37381700  1
  O  O30  1  0.75561000  0.39350400  0.41946200  1
  O  O31  1  0.10649600  0.74439000  0.08053800  1
  O  O32  1  0.75346500  0.04732300  0.37381700  1
  O  O33  1  0.79403300  0.29403300  0.25000000  1
  O  O34  1  0.25561000  0.10649600  0.08053800  1
  O  O35  1  0.29403300  0.20596700  0.25000000  1
  O  O36  1  0.60649600  0.75561000  0.41946200  1
  O  O37  1  0.70596700  0.79403300  0.25000000  1
  O  O38  1  0.74653500  0.54732300  0.12618300  1
  O  O39  1  0.04732300  0.24653500  0.37381700  1
  O  O40  1  0.45267700  0.74653500  0.12618300  1
  O  O41  1  0.54732300  0.25346500  0.12618300  1
  O  O42  1  0.74439000  0.10649600  0.91946200  1
  O  O43  1  0.70596700  0.20596700  0.75000000  1
  O  O44  1  0.24439000  0.39350400  0.58053800  1
  O  O45  1  0.89350400  0.74439000  0.91946200  1
  O  O46  1  0.75346500  0.95267700  0.62618300  1
  O  O47  1  0.39350400  0.75561000  0.58053800  1
  O  O48  1  0.45267700  0.25346500  0.87381700  1
  O  O49  1  0.74653500  0.45267700  0.87381700  1
  O  O50  1  0.25561000  0.89350400  0.91946200  1
  O  O51  1  0.60649600  0.24439000  0.58053800  1
  O  O52  1  0.25346500  0.54732300  0.87381700  1
  O  O53  1  0.29403300  0.79403300  0.75000000  1
  O  O54  1  0.75561000  0.60649600  0.58053800  1
  O  O55  1  0.79403300  0.70596700  0.75000000  1
  O  O56  1  0.10649600  0.25561000  0.91946200  1
  O  O57  1  0.20596700  0.29403300  0.75000000  1
  O  O58  1  0.24653500  0.04732300  0.62618300  1
  O  O59  1  0.54732300  0.74653500  0.87381700  1
  O  O60  1  0.95267700  0.24653500  0.62618300  1
  O  O61  1  0.04732300  0.75346500  0.62618300  1
