# generated using pymatgen
data_CaTeO3
_symmetry_space_group_name_H-M   'P 1'
_cell_length_a   8.67375000
_cell_length_b   5.74999300
_cell_length_c   22.94403208
_cell_angle_alpha   90.00000000
_cell_angle_beta   110.87292393
_cell_angle_gamma   90.00000000
_symmetry_Int_Tables_number   1
_chemical_formula_structural   CaTeO3
_chemical_formula_sum   'Ca12 Te12 O36'
_cell_volume   1069.21296458
_cell_formula_units_Z   12
loop_
 _symmetry_equiv_pos_site_id
 _symmetry_equiv_pos_as_xyz
  1  'x, y, z'
loop_
 _atom_site_type_symbol
 _atom_site_label
 _atom_site_symmetry_multiplicity
 _atom_site_fract_x
 _atom_site_fract_y
 _atom_site_fract_z
 _atom_site_occupancy
  Ca  Ca0  1  0.01989200  0.72953200  0.55936200  1
  Ca  Ca1  1  0.98010800  0.27046800  0.44063800  1
  Ca  Ca2  1  0.99338900  0.34298800  0.18360900  1
  Ca  Ca3  1  0.01989200  0.77046800  0.05936200  1
  Ca  Ca4  1  0.29993700  0.82640300  0.22506300  1
  Ca  Ca5  1  0.00661100  0.84298800  0.31639100  1
  Ca  Ca6  1  0.70006300  0.32640300  0.27493700  1
  Ca  Ca7  1  0.70006300  0.17359700  0.77493700  1
  Ca  Ca8  1  0.98010800  0.22953200  0.94063800  1
  Ca  Ca9  1  0.00661100  0.65701200  0.81639100  1
  Ca  Ca10  1  0.99338900  0.15701200  0.68360900  1
  Ca  Ca11  1  0.29993700  0.67359700  0.72506300  1
  Te  Te12  1  0.69288100  0.24414200  0.51191700  1
  Te  Te13  1  0.32234900  0.26423500  0.12516500  1
  Te  Te14  1  0.30711900  0.74414200  0.98808300  1
  Te  Te15  1  0.25536700  0.16234800  0.83620200  1
  Te  Te16  1  0.25536700  0.33765200  0.33620200  1
  Te  Te17  1  0.67765100  0.76423500  0.37483500  1
  Te  Te18  1  0.67765100  0.73576500  0.87483500  1
  Te  Te19  1  0.69288100  0.25585800  0.01191700  1
  Te  Te20  1  0.74463300  0.83765200  0.16379800  1
  Te  Te21  1  0.74463300  0.66234800  0.66379800  1
  Te  Te22  1  0.32234900  0.23576500  0.62516500  1
  Te  Te23  1  0.30711900  0.75585800  0.48808300  1
  O  O24  1  0.19005800  0.98834600  0.00856000  1
  O  O25  1  0.23871200  0.95393300  0.64630200  1
  O  O26  1  0.53008500  0.65034100  0.29698900  1
  O  O27  1  0.21259100  0.40021300  0.77536200  1
  O  O28  1  0.21259100  0.09978700  0.27536200  1
  O  O29  1  0.75324800  0.27287100  0.59878200  1
  O  O30  1  0.07805000  0.26444800  0.85911600  1
  O  O31  1  0.16450100  0.98438400  0.49859200  1
  O  O32  1  0.83549900  0.01561600  0.50140800  1
  O  O33  1  0.16450100  0.51561600  0.99859200  1
  O  O34  1  0.15064300  0.56832000  0.27534400  1
  O  O35  1  0.92195000  0.76444800  0.64088400  1
  O  O36  1  0.07805000  0.23555200  0.35911600  1
  O  O37  1  0.78740900  0.90021300  0.72463800  1
  O  O38  1  0.46991500  0.15034100  0.20301100  1
  O  O39  1  0.75324800  0.22712900  0.09878200  1
  O  O40  1  0.24675200  0.77287100  0.90121800  1
  O  O41  1  0.85469500  0.91651600  0.86958600  1
  O  O42  1  0.84935700  0.43168000  0.72465600  1
  O  O43  1  0.53008500  0.84965900  0.79698900  1
  O  O44  1  0.80994200  0.01165400  0.99144000  1
  O  O45  1  0.46991500  0.34965900  0.70301100  1
  O  O46  1  0.84935700  0.06832000  0.22465600  1
  O  O47  1  0.14530500  0.08348400  0.13041400  1
  O  O48  1  0.14530500  0.41651600  0.63041400  1
  O  O49  1  0.85469500  0.58348400  0.36958600  1
  O  O50  1  0.78740900  0.59978700  0.22463800  1
  O  O51  1  0.23871200  0.54606700  0.14630200  1
  O  O52  1  0.76128800  0.45393300  0.85369800  1
  O  O53  1  0.24675200  0.72712900  0.40121800  1
  O  O54  1  0.15064300  0.93168000  0.77534400  1
  O  O55  1  0.80994200  0.48834600  0.49144000  1
  O  O56  1  0.92195000  0.73555200  0.14088400  1
  O  O57  1  0.83549900  0.48438400  0.00140800  1
  O  O58  1  0.76128800  0.04606700  0.35369800  1
  O  O59  1  0.19005800  0.51165400  0.50856000  1
