# generated using pymatgen
data_Cs2U2O7
_symmetry_space_group_name_H-M   'P 1'
_cell_length_a   14.61893600
_cell_length_b   4.35941600
_cell_length_c   7.71132553
_cell_angle_alpha   90.00000000
_cell_angle_beta   113.26511203
_cell_angle_gamma   90.00000000
_symmetry_Int_Tables_number   1
_chemical_formula_structural   Cs2U2O7
_chemical_formula_sum   'Cs4 U4 O14'
_cell_volume   451.48228684
_cell_formula_units_Z   2
loop_
 _symmetry_equiv_pos_site_id
 _symmetry_equiv_pos_as_xyz
  1  'x, y, z'
loop_
 _atom_site_type_symbol
 _atom_site_label
 _atom_site_symmetry_multiplicity
 _atom_site_fract_x
 _atom_site_fract_y
 _atom_site_fract_z
 _atom_site_occupancy
  Cs  Cs0  1  0.10373600  0.50000000  0.91780900  1
  Cs  Cs1  1  0.39626400  0.00000000  0.08219100  1
  Cs  Cs2  1  0.60373600  0.00000000  0.91780900  1
  Cs  Cs3  1  0.89626400  0.50000000  0.08219100  1
  U  U4  1  0.35263000  0.50000000  0.50744100  1
  U  U5  1  0.14737000  0.00000000  0.49255900  1
  U  U6  1  0.85263000  0.00000000  0.50744100  1
  U  U7  1  0.64737000  0.50000000  0.49255900  1
  O  O8  1  0.19911800  0.00000000  0.75791100  1
  O  O9  1  0.19119800  0.50000000  0.49645500  1
  O  O10  1  0.41113000  0.50000000  0.77259600  1
  O  O11  1  0.00000000  0.00000000  0.50000000  1
  O  O12  1  0.30880200  0.00000000  0.50354500  1
  O  O13  1  0.08887000  0.00000000  0.22740400  1
  O  O14  1  0.30088200  0.50000000  0.24208900  1
  O  O15  1  0.69911800  0.50000000  0.75791100  1
  O  O16  1  0.69119800  0.00000000  0.49645500  1
  O  O17  1  0.91113000  0.00000000  0.77259600  1
  O  O18  1  0.50000000  0.50000000  0.50000000  1
  O  O19  1  0.80880200  0.50000000  0.50354500  1
  O  O20  1  0.58887000  0.50000000  0.22740400  1
  O  O21  1  0.80088200  0.00000000  0.24208900  1
