# generated using pymatgen
data_Ba17Tm16Zn8Pt4O57
_symmetry_space_group_name_H-M   'P 1'
_cell_length_a   22.97018600
_cell_length_b   22.97018600
_cell_length_c   5.72361200
_cell_angle_alpha   90.00000000
_cell_angle_beta   90.00000000
_cell_angle_gamma   90.00000000
_symmetry_Int_Tables_number   1
_chemical_formula_structural   Ba17Tm16Zn8Pt4O57
_chemical_formula_sum   'Ba34 Tm32 Zn16 Pt8 O114'
_cell_volume   3019.94622224
_cell_formula_units_Z   2
loop_
 _symmetry_equiv_pos_site_id
 _symmetry_equiv_pos_as_xyz
  1  'x, y, z'
loop_
 _atom_site_type_symbol
 _atom_site_label
 _atom_site_symmetry_multiplicity
 _atom_site_fract_x
 _atom_site_fract_y
 _atom_site_fract_z
 _atom_site_occupancy
  Ba  Ba0  1  0.68900300  0.23213800  0.50000000  1
  Ba  Ba1  1  0.35051500  0.34314900  0.00000000  1
  Ba  Ba2  1  0.26786200  0.18900300  0.00000000  1
  Ba  Ba3  1  0.64948500  0.65685100  0.00000000  1
  Ba  Ba4  1  0.55772500  0.06788200  0.00000000  1
  Ba  Ba5  1  0.38832550  0.22406450  0.50000000  1
  Ba  Ba6  1  0.15685100  0.85051500  0.50000000  1
  Ba  Ba7  1  0.56788200  0.94227500  0.50000000  1
  Ba  Ba8  1  0.27593550  0.88832550  0.00000000  1
  Ba  Ba9  1  0.31099700  0.76786200  0.50000000  1
  Ba  Ba10  1  0.84314900  0.14948500  0.50000000  1
  Ba  Ba11  1  0.43211800  0.05772500  0.50000000  1
  Ba  Ba12  1  0.61167450  0.77593550  0.50000000  1
  Ba  Ba13  1  0.44227500  0.93211800  0.00000000  1
  Ba  Ba14  1  0.73213800  0.81099700  0.00000000  1
  Ba  Ba15  1  0.72406450  0.11167450  0.00000000  1
  Ba  Ba16  1  0.00000000  0.00000000  0.00000000  1
  Ba  Ba17  1  0.18900300  0.73213800  0.00000000  1
  Ba  Ba18  1  0.85051500  0.84314900  0.50000000  1
  Ba  Ba19  1  0.76786200  0.68900300  0.50000000  1
  Ba  Ba20  1  0.14948500  0.15685100  0.50000000  1
  Ba  Ba21  1  0.05772500  0.56788200  0.50000000  1
  Ba  Ba22  1  0.88832550  0.72406450  0.00000000  1
  Ba  Ba23  1  0.65685100  0.35051500  0.00000000  1
  Ba  Ba24  1  0.06788200  0.44227500  0.00000000  1
  Ba  Ba25  1  0.77593550  0.38832550  0.50000000  1
  Ba  Ba26  1  0.81099700  0.26786200  0.00000000  1
  Ba  Ba27  1  0.34314900  0.64948500  0.00000000  1
  Ba  Ba28  1  0.93211800  0.55772500  0.00000000  1
  Ba  Ba29  1  0.11167450  0.27593550  0.00000000  1
  Ba  Ba30  1  0.94227500  0.43211800  0.50000000  1
  Ba  Ba31  1  0.23213800  0.31099700  0.50000000  1
  Ba  Ba32  1  0.22406450  0.61167450  0.50000000  1
  Ba  Ba33  1  0.50000000  0.50000000  0.50000000  1
  Tm  Tm34  1  0.67484950  0.95050150  0.00000000  1
  Tm  Tm35  1  0.45050150  0.82515050  0.50000000  1
  Tm  Tm36  1  0.32515050  0.04949850  0.00000000  1
  Tm  Tm37  1  0.50629400  0.74856700  0.00000000  1
  Tm  Tm38  1  0.17172700  0.05186100  0.00000000  1
  Tm  Tm39  1  0.75143300  0.00629400  0.50000000  1
  Tm  Tm40  1  0.49370600  0.25143300  0.00000000  1
  Tm  Tm41  1  0.82827300  0.94813900  0.00000000  1
  Tm  Tm42  1  0.44813900  0.67172700  0.50000000  1
  Tm  Tm43  1  0.48862800  0.40084500  0.00000000  1
  Tm  Tm44  1  0.55186100  0.32827300  0.50000000  1
  Tm  Tm45  1  0.54949850  0.17484950  0.50000000  1
  Tm  Tm46  1  0.09915500  0.98862800  0.50000000  1
  Tm  Tm47  1  0.90084500  0.01137200  0.50000000  1
  Tm  Tm48  1  0.24856700  0.99370600  0.50000000  1
  Tm  Tm49  1  0.51137200  0.59915500  0.00000000  1
  Tm  Tm50  1  0.17484950  0.45050150  0.50000000  1
  Tm  Tm51  1  0.95050150  0.32515050  0.00000000  1
  Tm  Tm52  1  0.82515050  0.54949850  0.50000000  1
  Tm  Tm53  1  0.00629400  0.24856700  0.50000000  1
  Tm  Tm54  1  0.67172700  0.55186100  0.50000000  1
  Tm  Tm55  1  0.25143300  0.50629400  0.00000000  1
  Tm  Tm56  1  0.99370600  0.75143300  0.50000000  1
  Tm  Tm57  1  0.32827300  0.44813900  0.50000000  1
  Tm  Tm58  1  0.94813900  0.17172700  0.00000000  1
  Tm  Tm59  1  0.98862800  0.90084500  0.50000000  1
  Tm  Tm60  1  0.05186100  0.82827300  0.00000000  1
  Tm  Tm61  1  0.04949850  0.67484950  0.00000000  1
  Tm  Tm62  1  0.59915500  0.48862800  0.00000000  1
  Tm  Tm63  1  0.40084500  0.51137200  0.00000000  1
  Tm  Tm64  1  0.74856700  0.49370600  0.00000000  1
  Tm  Tm65  1  0.01137200  0.09915500  0.50000000  1
  Zn  Zn66  1  0.28781000  0.11997100  0.50000000  1
  Zn  Zn67  1  0.42472200  0.36738600  0.50000000  1
  Zn  Zn68  1  0.71219000  0.88002900  0.50000000  1
  Zn  Zn69  1  0.57527800  0.63261400  0.50000000  1
  Zn  Zn70  1  0.13261400  0.92472200  0.00000000  1
  Zn  Zn71  1  0.61997100  0.21219000  0.00000000  1
  Zn  Zn72  1  0.86738600  0.07527800  0.00000000  1
  Zn  Zn73  1  0.38002900  0.78781000  0.00000000  1
  Zn  Zn74  1  0.78781000  0.61997100  0.00000000  1
  Zn  Zn75  1  0.92472200  0.86738600  0.00000000  1
  Zn  Zn76  1  0.21219000  0.38002900  0.00000000  1
  Zn  Zn77  1  0.07527800  0.13261400  0.00000000  1
  Zn  Zn78  1  0.63261400  0.42472200  0.50000000  1
  Zn  Zn79  1  0.11997100  0.71219000  0.50000000  1
  Zn  Zn80  1  0.36738600  0.57527800  0.50000000  1
  Zn  Zn81  1  0.88002900  0.28781000  0.50000000  1
  Pt  Pt82  1  0.64433000  0.08246800  0.50000000  1
  Pt  Pt83  1  0.58246800  0.85567000  0.00000000  1
  Pt  Pt84  1  0.41753200  0.14433000  0.00000000  1
  Pt  Pt85  1  0.35567000  0.91753200  0.50000000  1
  Pt  Pt86  1  0.14433000  0.58246800  0.00000000  1
  Pt  Pt87  1  0.08246800  0.35567000  0.50000000  1
  Pt  Pt88  1  0.91753200  0.64433000  0.50000000  1
  Pt  Pt89  1  0.85567000  0.41753200  0.00000000  1
  O  O90  1  0.75308000  0.92941400  0.75296500  1
  O  O91  1  0.57058600  0.25308000  0.74703500  1
  O  O92  1  0.52124450  0.83139150  0.75852350  1
  O  O93  1  0.47297950  0.32494850  0.24918450  1
  O  O94  1  0.24692000  0.07058600  0.75296500  1
  O  O95  1  0.52702050  0.67505150  0.24918450  1
  O  O96  1  0.26098950  0.20092550  0.50000000  1
  O  O97  1  0.64458000  0.87764600  0.75773600  1
  O  O98  1  0.43547000  0.58970400  0.75194200  1
  O  O99  1  0.37764600  0.85542000  0.25773600  1
  O  O100  1  0.26808900  0.89309200  0.50000000  1
  O  O101  1  0.64458000  0.87764600  0.24226400  1
  O  O102  1  0.42941400  0.74692000  0.74703500  1
  O  O103  1  0.42941400  0.74692000  0.25296500  1
  O  O104  1  0.82494850  0.02702050  0.74918450  1
  O  O105  1  0.37764600  0.85542000  0.74226400  1
  O  O106  1  0.75308000  0.92941400  0.24703500  1
  O  O107  1  0.84208550  0.15776350  0.00000000  1
  O  O108  1  0.70092550  0.23901050  0.00000000  1
  O  O109  1  0.60690800  0.76808900  0.00000000  1
  O  O110  1  0.33139150  0.97875550  0.74147650  1
  O  O111  1  0.29907450  0.76098950  0.00000000  1
  O  O112  1  0.00000000  0.00000000  0.50000000  1
  O  O113  1  0.17505150  0.97297950  0.74918450  1
  O  O114  1  0.43547000  0.58970400  0.24805800  1
  O  O115  1  0.47875550  0.16860850  0.75852350  1
  O  O116  1  0.62235400  0.14458000  0.25773600  1
  O  O117  1  0.66860850  0.02124450  0.25852350  1
  O  O118  1  0.17505150  0.97297950  0.25081550  1
  O  O119  1  0.47297950  0.32494850  0.75081550  1
  O  O120  1  0.15791450  0.84223650  0.00000000  1
  O  O121  1  0.08970400  0.06453000  0.74805800  1
  O  O122  1  0.24692000  0.07058600  0.24703500  1
  O  O123  1  0.52124450  0.83139150  0.24147650  1
  O  O124  1  0.39309200  0.23191100  0.00000000  1
  O  O125  1  0.62235400  0.14458000  0.74226400  1
  O  O126  1  0.66860850  0.02124450  0.74147650  1
  O  O127  1  0.73191100  0.10690800  0.50000000  1
  O  O128  1  0.47875550  0.16860850  0.24147650  1
  O  O129  1  0.44564700  0.93497000  0.50000000  1
  O  O130  1  0.55435300  0.06503000  0.50000000  1
  O  O131  1  0.35542000  0.12235400  0.24226400  1
  O  O132  1  0.43497000  0.05435300  0.00000000  1
  O  O133  1  0.08970400  0.06453000  0.25194200  1
  O  O134  1  0.56453000  0.41029600  0.75194200  1
  O  O135  1  0.73901050  0.79907450  0.50000000  1
  O  O136  1  0.65776350  0.65791450  0.50000000  1
  O  O137  1  0.56503000  0.94564700  0.00000000  1
  O  O138  1  0.56453000  0.41029600  0.24805800  1
  O  O139  1  0.52702050  0.67505150  0.75081550  1
  O  O140  1  0.34223650  0.34208550  0.50000000  1
  O  O141  1  0.35542000  0.12235400  0.75773600  1
  O  O142  1  0.82494850  0.02702050  0.25081550  1
  O  O143  1  0.33139150  0.97875550  0.25852350  1
  O  O144  1  0.91029600  0.93547000  0.74805800  1
  O  O145  1  0.57058600  0.25308000  0.25296500  1
  O  O146  1  0.91029600  0.93547000  0.25194200  1
  O  O147  1  0.25308000  0.42941400  0.25296500  1
  O  O148  1  0.07058600  0.75308000  0.24703500  1
  O  O149  1  0.02124450  0.33139150  0.25852350  1
  O  O150  1  0.97297950  0.82494850  0.74918450  1
  O  O151  1  0.74692000  0.57058600  0.25296500  1
  O  O152  1  0.02702050  0.17505150  0.74918450  1
  O  O153  1  0.76098950  0.70092550  0.00000000  1
  O  O154  1  0.14458000  0.37764600  0.25773600  1
  O  O155  1  0.93547000  0.08970400  0.25194200  1
  O  O156  1  0.87764600  0.35542000  0.75773600  1
  O  O157  1  0.76808900  0.39309200  0.00000000  1
  O  O158  1  0.14458000  0.37764600  0.74226400  1
  O  O159  1  0.92941400  0.24692000  0.24703500  1
  O  O160  1  0.92941400  0.24692000  0.75296500  1
  O  O161  1  0.32494850  0.52702050  0.24918450  1
  O  O162  1  0.87764600  0.35542000  0.24226400  1
  O  O163  1  0.25308000  0.42941400  0.74703500  1
  O  O164  1  0.34208550  0.65776350  0.50000000  1
  O  O165  1  0.20092550  0.73901050  0.50000000  1
  O  O166  1  0.10690800  0.26808900  0.50000000  1
  O  O167  1  0.83139150  0.47875550  0.24147650  1
  O  O168  1  0.79907450  0.26098950  0.50000000  1
  O  O169  1  0.50000000  0.50000000  0.00000000  1
  O  O170  1  0.67505150  0.47297950  0.24918450  1
  O  O171  1  0.93547000  0.08970400  0.74805800  1
  O  O172  1  0.97875550  0.66860850  0.25852350  1
  O  O173  1  0.12235400  0.64458000  0.75773600  1
  O  O174  1  0.16860850  0.52124450  0.75852350  1
  O  O175  1  0.67505150  0.47297950  0.75081550  1
  O  O176  1  0.97297950  0.82494850  0.25081550  1
  O  O177  1  0.65791450  0.34223650  0.50000000  1
  O  O178  1  0.58970400  0.56453000  0.24805800  1
  O  O179  1  0.74692000  0.57058600  0.74703500  1
  O  O180  1  0.02124450  0.33139150  0.74147650  1
  O  O181  1  0.89309200  0.73191100  0.50000000  1
  O  O182  1  0.12235400  0.64458000  0.24226400  1
  O  O183  1  0.16860850  0.52124450  0.24147650  1
  O  O184  1  0.23191100  0.60690800  0.00000000  1
  O  O185  1  0.97875550  0.66860850  0.74147650  1
  O  O186  1  0.94564700  0.43497000  0.00000000  1
  O  O187  1  0.05435300  0.56503000  0.00000000  1
  O  O188  1  0.85542000  0.62235400  0.74226400  1
  O  O189  1  0.93497000  0.55435300  0.50000000  1
  O  O190  1  0.58970400  0.56453000  0.75194200  1
  O  O191  1  0.06453000  0.91029600  0.25194200  1
  O  O192  1  0.23901050  0.29907450  0.00000000  1
  O  O193  1  0.15776350  0.15791450  0.00000000  1
  O  O194  1  0.06503000  0.44564700  0.50000000  1
  O  O195  1  0.06453000  0.91029600  0.74805800  1
  O  O196  1  0.02702050  0.17505150  0.25081550  1
  O  O197  1  0.84223650  0.84208550  0.00000000  1
  O  O198  1  0.85542000  0.62235400  0.25773600  1
  O  O199  1  0.32494850  0.52702050  0.75081550  1
  O  O200  1  0.83139150  0.47875550  0.75852350  1
  O  O201  1  0.41029600  0.43547000  0.24805800  1
  O  O202  1  0.07058600  0.75308000  0.75296500  1
  O  O203  1  0.41029600  0.43547000  0.75194200  1
