# generated using pymatgen
data_NaGdH2S2O9
_symmetry_space_group_name_H-M   'P 1'
_cell_length_a   6.99002729
_cell_length_b   6.99002729
_cell_length_c   12.87657600
_cell_angle_alpha   90.00000000
_cell_angle_beta   90.00000000
_cell_angle_gamma   120.00000000
_symmetry_Int_Tables_number   1
_chemical_formula_structural   NaGdH2S2O9
_chemical_formula_sum   'Na3 Gd3 H6 S6 O27'
_cell_volume   544.86482209
_cell_formula_units_Z   3
loop_
 _symmetry_equiv_pos_site_id
 _symmetry_equiv_pos_as_xyz
  1  'x, y, z'
loop_
 _atom_site_type_symbol
 _atom_site_label
 _atom_site_symmetry_multiplicity
 _atom_site_fract_x
 _atom_site_fract_y
 _atom_site_fract_z
 _atom_site_occupancy
  Na  Na0  1  0.47040600  0.00000000  0.16666667  1
  Na  Na1  1  0.52959400  0.52959400  0.50000000  1
  Na  Na2  1  0.00000000  0.47040600  0.83333333  1
  Gd  Gd3  1  0.44069500  0.00000000  0.66666667  1
  Gd  Gd4  1  0.55930500  0.55930500  0.00000000  1
  Gd  Gd5  1  0.00000000  0.44069500  0.33333333  1
  H  H6  1  0.06196900  0.10227600  0.62926000  1
  H  H7  1  0.89772400  0.95969300  0.29592667  1
  H  H8  1  0.93803100  0.04030700  0.03740667  1
  H  H9  1  0.95969300  0.89772400  0.70407333  1
  H  H10  1  0.10227600  0.06196900  0.37074000  1
  H  H11  1  0.04030700  0.93803100  0.96259333  1
  S  S12  1  0.55563700  0.54394600  0.24175800  1
  S  S13  1  0.98830900  0.44436300  0.57509133  1
  S  S14  1  0.54394600  0.55563700  0.75824200  1
  S  S15  1  0.45605400  0.01169100  0.90842467  1
  S  S16  1  0.44436300  0.98830900  0.42490867  1
  S  S17  1  0.01169100  0.45605400  0.09157533  1
  O  O18  1  0.58731700  0.75447500  0.69747900  1
  O  O19  1  0.41268300  0.16715800  0.96918767  1
  O  O20  1  0.16715800  0.41268300  0.03081233  1
  O  O21  1  0.75447500  0.58731700  0.30252100  1
  O  O22  1  0.48588000  0.35486200  0.16857500  1
  O  O23  1  0.73940400  0.61120300  0.82601300  1
  O  O24  1  0.24552500  0.83284200  0.36414567  1
  O  O25  1  0.64513800  0.13101800  0.83524167  1
  O  O26  1  0.62108300  0.12578500  0.34983300  1
  O  O27  1  0.86898200  0.51412000  0.50190833  1
  O  O28  1  0.49529800  0.87421500  0.98350033  1
  O  O29  1  0.09377000  0.00000000  0.66666667  1
  O  O30  1  0.12820100  0.38879700  0.50732033  1
  O  O31  1  0.83284200  0.24552500  0.63585433  1
  O  O32  1  0.87179900  0.26059600  0.15934633  1
  O  O33  1  0.51412000  0.86898200  0.49809167  1
  O  O34  1  0.50470200  0.37891700  0.68316633  1
  O  O35  1  0.90623000  0.90623000  0.00000000  1
  O  O36  1  0.87421500  0.49529800  0.01649967  1
  O  O37  1  0.61120300  0.73940400  0.17398700  1
  O  O38  1  0.37891700  0.50470200  0.31683367  1
  O  O39  1  0.00000000  0.09377000  0.33333333  1
  O  O40  1  0.35486200  0.48588000  0.83142500  1
  O  O41  1  0.13101800  0.64513800  0.16475833  1
  O  O42  1  0.12578500  0.62108300  0.65016700  1
  O  O43  1  0.26059600  0.87179900  0.84065367  1
  O  O44  1  0.38879700  0.12820100  0.49267967  1
