# generated using pymatgen
data_SbSCl9
_symmetry_space_group_name_H-M   'P 1'
_cell_length_a   13.24273000
_cell_length_b   8.04660600
_cell_length_c   14.25103824
_cell_angle_alpha   90.00000000
_cell_angle_beta   108.04497221
_cell_angle_gamma   90.00000000
_symmetry_Int_Tables_number   1
_chemical_formula_structural   SbSCl9
_chemical_formula_sum   'Sb4 S4 Cl36'
_cell_volume   1443.88360348
_cell_formula_units_Z   4
loop_
 _symmetry_equiv_pos_site_id
 _symmetry_equiv_pos_as_xyz
  1  'x, y, z'
loop_
 _atom_site_type_symbol
 _atom_site_label
 _atom_site_symmetry_multiplicity
 _atom_site_fract_x
 _atom_site_fract_y
 _atom_site_fract_z
 _atom_site_occupancy
  Sb  Sb0  1  0.00000000  0.00000000  0.00000000  1
  Sb  Sb1  1  0.00000000  0.50000000  0.50000000  1
  Sb  Sb2  1  0.50000000  0.50000000  0.00000000  1
  Sb  Sb3  1  0.50000000  0.00000000  0.50000000  1
  S  S4  1  0.65495200  0.50000000  0.71963400  1
  S  S5  1  0.34504800  0.50000000  0.28036600  1
  S  S6  1  0.15495200  0.00000000  0.71963400  1
  S  S7  1  0.84504800  0.00000000  0.28036600  1
  Cl  Cl8  1  0.27168850  0.69367750  0.19900900  1
  Cl  Cl9  1  0.02576300  0.71235500  0.38951000  1
  Cl  Cl10  1  0.97423700  0.71235500  0.61049000  1
  Cl  Cl11  1  0.27168850  0.30632250  0.19900900  1
  Cl  Cl12  1  0.02576300  0.28764500  0.38951000  1
  Cl  Cl13  1  0.81112000  0.50000000  0.41670700  1
  Cl  Cl14  1  0.28784500  0.50000000  0.39542400  1
  Cl  Cl15  1  0.72831150  0.69367750  0.80099100  1
  Cl  Cl16  1  0.00000000  0.29616100  0.00000000  1
  Cl  Cl17  1  0.97423700  0.28764500  0.61049000  1
  Cl  Cl18  1  0.72831150  0.30632250  0.80099100  1
  Cl  Cl19  1  0.71215500  0.50000000  0.60457600  1
  Cl  Cl20  1  0.69199600  0.50000000  0.03574600  1
  Cl  Cl21  1  0.52685400  0.50000000  0.17659500  1
  Cl  Cl22  1  0.18888000  0.50000000  0.58329300  1
  Cl  Cl23  1  0.30800400  0.50000000  0.96425400  1
  Cl  Cl24  1  0.00000000  0.70383900  0.00000000  1
  Cl  Cl25  1  0.47314600  0.50000000  0.82340500  1
  Cl  Cl26  1  0.77168850  0.19367750  0.19900900  1
  Cl  Cl27  1  0.52576300  0.21235500  0.38951000  1
  Cl  Cl28  1  0.47423700  0.21235500  0.61049000  1
  Cl  Cl29  1  0.77168850  0.80632250  0.19900900  1
  Cl  Cl30  1  0.52576300  0.78764500  0.38951000  1
  Cl  Cl31  1  0.31112000  0.00000000  0.41670700  1
  Cl  Cl32  1  0.78784500  0.00000000  0.39542400  1
  Cl  Cl33  1  0.22831150  0.19367750  0.80099100  1
  Cl  Cl34  1  0.50000000  0.79616100  0.00000000  1
  Cl  Cl35  1  0.47423700  0.78764500  0.61049000  1
  Cl  Cl36  1  0.22831150  0.80632250  0.80099100  1
  Cl  Cl37  1  0.21215500  0.00000000  0.60457600  1
  Cl  Cl38  1  0.19199600  0.00000000  0.03574600  1
  Cl  Cl39  1  0.02685400  0.00000000  0.17659500  1
  Cl  Cl40  1  0.68888000  0.00000000  0.58329300  1
  Cl  Cl41  1  0.80800400  0.00000000  0.96425400  1
  Cl  Cl42  1  0.50000000  0.20383900  0.00000000  1
  Cl  Cl43  1  0.97314600  0.00000000  0.82340500  1
