# generated using pymatgen
data_Xe2NO2F13
_symmetry_space_group_name_H-M   'P 1'
_cell_length_a   16.48861400
_cell_length_b   7.88961400
_cell_length_c   9.02838038
_cell_angle_alpha   90.00000000
_cell_angle_beta   94.52459434
_cell_angle_gamma   90.00000000
_symmetry_Int_Tables_number   1
_chemical_formula_structural   Xe2NO2F13
_chemical_formula_sum   'Xe8 N4 O8 F52'
_cell_volume   1170.83094036
_cell_formula_units_Z   4
loop_
 _symmetry_equiv_pos_site_id
 _symmetry_equiv_pos_as_xyz
  1  'x, y, z'
loop_
 _atom_site_type_symbol
 _atom_site_label
 _atom_site_symmetry_multiplicity
 _atom_site_fract_x
 _atom_site_fract_y
 _atom_site_fract_z
 _atom_site_occupancy
  Xe  Xe0  1  0.65466200  0.50000000  0.28523700  1
  Xe  Xe1  1  0.60256800  0.00000000  0.77396400  1
  Xe  Xe2  1  0.89743200  0.50000000  0.22603600  1
  Xe  Xe3  1  0.84533800  0.00000000  0.71476300  1
  Xe  Xe4  1  0.15466200  0.00000000  0.28523700  1
  Xe  Xe5  1  0.10256800  0.50000000  0.77396400  1
  Xe  Xe6  1  0.39743200  0.00000000  0.22603600  1
  Xe  Xe7  1  0.34533800  0.50000000  0.71476300  1
  N  N8  1  0.69676800  0.50000000  0.77964600  1
  N  N9  1  0.80323200  0.00000000  0.22035400  1
  N  N10  1  0.19676800  0.00000000  0.77964600  1
  N  N11  1  0.30323200  0.50000000  0.22035400  1
  O  O12  1  0.76560600  0.50000000  0.80392300  1
  O  O13  1  0.62784200  0.50000000  0.75605800  1
  O  O14  1  0.87215800  0.00000000  0.24394200  1
  O  O15  1  0.73439400  0.00000000  0.19607700  1
  O  O16  1  0.26560600  0.00000000  0.80392300  1
  O  O17  1  0.12784200  0.00000000  0.75605800  1
  O  O18  1  0.37215800  0.50000000  0.24394200  1
  O  O19  1  0.23439400  0.50000000  0.19607700  1
  F  F20  1  0.70951950  0.83739450  0.73030600  1
  F  F21  1  0.94202950  0.32477650  0.37417900  1
  F  F22  1  0.55797050  0.17522350  0.62582100  1
  F  F23  1  0.94965600  0.00000000  0.84562400  1
  F  F24  1  0.79048050  0.33739450  0.26969400  1
  F  F25  1  0.88978500  0.32539700  0.05938700  1
  F  F26  1  0.94202950  0.67522350  0.37417900  1
  F  F27  1  0.55797050  0.82477650  0.62582100  1
  F  F28  1  0.63617900  0.24739800  0.29000700  1
  F  F29  1  0.56915700  0.50000000  0.43116200  1
  F  F30  1  0.86382100  0.74739800  0.70999300  1
  F  F31  1  0.70951950  0.16260550  0.73030600  1
  F  F32  1  0.71979700  0.50000000  0.49309800  1
  F  F33  1  0.80922700  0.00000000  0.93382800  1
  F  F34  1  0.93084300  0.00000000  0.56883800  1
  F  F35  1  0.79048050  0.66260550  0.26969400  1
  F  F36  1  0.69077300  0.50000000  0.06617200  1
  F  F37  1  0.55034400  0.50000000  0.15437600  1
  F  F38  1  0.78020300  0.00000000  0.50690200  1
  F  F39  1  0.86382100  0.25260200  0.70999300  1
  F  F40  1  0.61021500  0.82539700  0.94061300  1
  F  F41  1  0.88978500  0.67460300  0.05938700  1
  F  F42  1  0.63617900  0.75260200  0.29000700  1
  F  F43  1  0.61021500  0.17460300  0.94061300  1
  F  F44  1  0.98654700  0.50000000  0.82269100  1
  F  F45  1  0.51345300  0.00000000  0.17730900  1
  F  F46  1  0.20951950  0.33739450  0.73030600  1
  F  F47  1  0.44202950  0.82477650  0.37417900  1
  F  F48  1  0.05797050  0.67522350  0.62582100  1
  F  F49  1  0.44965600  0.50000000  0.84562400  1
  F  F50  1  0.29048050  0.83739450  0.26969400  1
  F  F51  1  0.38978500  0.82539700  0.05938700  1
  F  F52  1  0.44202950  0.17522350  0.37417900  1
  F  F53  1  0.05797050  0.32477650  0.62582100  1
  F  F54  1  0.13617900  0.74739800  0.29000700  1
  F  F55  1  0.06915700  0.00000000  0.43116200  1
  F  F56  1  0.36382100  0.24739800  0.70999300  1
  F  F57  1  0.20951950  0.66260550  0.73030600  1
  F  F58  1  0.21979700  0.00000000  0.49309800  1
  F  F59  1  0.30922700  0.50000000  0.93382800  1
  F  F60  1  0.43084300  0.50000000  0.56883800  1
  F  F61  1  0.29048050  0.16260550  0.26969400  1
  F  F62  1  0.19077300  0.00000000  0.06617200  1
  F  F63  1  0.05034400  0.00000000  0.15437600  1
  F  F64  1  0.28020300  0.50000000  0.50690200  1
  F  F65  1  0.36382100  0.75260200  0.70999300  1
  F  F66  1  0.11021500  0.32539700  0.94061300  1
  F  F67  1  0.38978500  0.17460300  0.05938700  1
  F  F68  1  0.13617900  0.25260200  0.29000700  1
  F  F69  1  0.11021500  0.67460300  0.94061300  1
  F  F70  1  0.48654700  0.00000000  0.82269100  1
  F  F71  1  0.01345300  0.50000000  0.17730900  1
