# generated using pymatgen
data_CsSb2F7
_symmetry_space_group_name_H-M   'P 1'
_cell_length_a   20.96432000
_cell_length_b   6.59434600
_cell_length_c   6.32322764
_cell_angle_alpha   90.00000000
_cell_angle_beta   93.95316734
_cell_angle_gamma   90.00000000
_symmetry_Int_Tables_number   1
_chemical_formula_structural   CsSb2F7
_chemical_formula_sum   'Cs4 Sb8 F28'
_cell_volume   872.08093918
_cell_formula_units_Z   4
loop_
 _symmetry_equiv_pos_site_id
 _symmetry_equiv_pos_as_xyz
  1  'x, y, z'
loop_
 _atom_site_type_symbol
 _atom_site_label
 _atom_site_symmetry_multiplicity
 _atom_site_fract_x
 _atom_site_fract_y
 _atom_site_fract_z
 _atom_site_occupancy
  Cs  Cs0  1  0.00000000  0.26831200  0.75000000  1
  Cs  Cs1  1  0.00000000  0.73168800  0.25000000  1
  Cs  Cs2  1  0.50000000  0.76831200  0.75000000  1
  Cs  Cs3  1  0.50000000  0.23168800  0.25000000  1
  Sb  Sb4  1  0.66045750  0.75286050  0.28798100  1
  Sb  Sb5  1  0.66045750  0.24713950  0.78798100  1
  Sb  Sb6  1  0.83954250  0.74713950  0.71201900  1
  Sb  Sb7  1  0.83954250  0.25286050  0.21201900  1
  Sb  Sb8  1  0.16045750  0.25286050  0.28798100  1
  Sb  Sb9  1  0.16045750  0.74713950  0.78798100  1
  Sb  Sb10  1  0.33954250  0.24713950  0.71201900  1
  Sb  Sb11  1  0.33954250  0.75286050  0.21201900  1
  F  F12  1  0.87257650  0.10301250  0.97003100  1
  F  F13  1  0.84655300  0.51849500  0.06725000  1
  F  F14  1  0.62742350  0.39698750  0.02996900  1
  F  F15  1  0.93370850  0.70605050  0.79310800  1
  F  F16  1  0.56629150  0.79394950  0.20689200  1
  F  F17  1  0.65344700  0.01849500  0.43275000  1
  F  F18  1  0.62742350  0.60301250  0.52996900  1
  F  F19  1  0.56629150  0.20605050  0.70689200  1
  F  F20  1  0.84655300  0.48150500  0.56725000  1
  F  F21  1  0.75000000  0.75000000  0.50000000  1
  F  F22  1  0.93370850  0.29394950  0.29310800  1
  F  F23  1  0.87257650  0.89698750  0.47003100  1
  F  F24  1  0.75000000  0.25000000  0.00000000  1
  F  F25  1  0.65344700  0.98150500  0.93275000  1
  F  F26  1  0.37257650  0.60301250  0.97003100  1
  F  F27  1  0.34655300  0.01849500  0.06725000  1
  F  F28  1  0.12742350  0.89698750  0.02996900  1
  F  F29  1  0.43370850  0.20605050  0.79310800  1
  F  F30  1  0.06629150  0.29394950  0.20689200  1
  F  F31  1  0.15344700  0.51849500  0.43275000  1
  F  F32  1  0.12742350  0.10301250  0.52996900  1
  F  F33  1  0.06629150  0.70605050  0.70689200  1
  F  F34  1  0.34655300  0.98150500  0.56725000  1
  F  F35  1  0.25000000  0.25000000  0.50000000  1
  F  F36  1  0.43370850  0.79394950  0.29310800  1
  F  F37  1  0.37257650  0.39698750  0.47003100  1
  F  F38  1  0.25000000  0.75000000  0.00000000  1
  F  F39  1  0.15344700  0.48150500  0.93275000  1
