# generated using pymatgen
data_P3NCl12
_symmetry_space_group_name_H-M   'P 1'
_cell_length_a   12.17217800
_cell_length_b   21.76179400
_cell_length_c   16.40020672
_cell_angle_alpha   90.00000000
_cell_angle_beta   119.08291360
_cell_angle_gamma   90.00000000
_symmetry_Int_Tables_number   1
_chemical_formula_structural   P3NCl12
_chemical_formula_sum   'P24 N8 Cl96'
_cell_volume   3796.49302896
_cell_formula_units_Z   8
loop_
 _symmetry_equiv_pos_site_id
 _symmetry_equiv_pos_as_xyz
  1  'x, y, z'
loop_
 _atom_site_type_symbol
 _atom_site_label
 _atom_site_symmetry_multiplicity
 _atom_site_fract_x
 _atom_site_fract_y
 _atom_site_fract_z
 _atom_site_occupancy
  P  P0  1  0.94152000  0.70723900  0.87055700  1
  P  P1  1  0.54154700  0.47000400  0.33338000  1
  P  P2  1  0.03740000  0.77515000  0.04679800  1
  P  P3  1  0.58761400  0.03657600  0.34268500  1
  P  P4  1  0.52314800  0.71627400  0.93591000  1
  P  P5  1  0.47685200  0.28372600  0.06409000  1
  P  P6  1  0.03740000  0.72485000  0.54679800  1
  P  P7  1  0.45845300  0.97000400  0.16662000  1
  P  P8  1  0.95489300  0.47033100  0.71546400  1
  P  P9  1  0.45845300  0.52999600  0.66662000  1
  P  P10  1  0.58761400  0.46342400  0.84268500  1
  P  P11  1  0.04510700  0.52966900  0.28453600  1
  P  P12  1  0.96260000  0.27515000  0.45320200  1
  P  P13  1  0.05848000  0.20723900  0.62944300  1
  P  P14  1  0.96260000  0.22485000  0.95320200  1
  P  P15  1  0.52314800  0.78372600  0.43591000  1
  P  P16  1  0.41238600  0.96342400  0.65731500  1
  P  P17  1  0.54154700  0.02999600  0.83338000  1
  P  P18  1  0.94152000  0.79276100  0.37055700  1
  P  P19  1  0.04510700  0.97033100  0.78453600  1
  P  P20  1  0.47685200  0.21627400  0.56409000  1
  P  P21  1  0.41238600  0.53657600  0.15731500  1
  P  P22  1  0.95489300  0.02966900  0.21546400  1
  P  P23  1  0.05848000  0.29276100  0.12944300  1
  N  N24  1  0.43663000  0.01542700  0.73087500  1
  N  N25  1  0.04672200  0.24089600  0.05911200  1
  N  N26  1  0.43663000  0.48457300  0.23087500  1
  N  N27  1  0.56337000  0.51542700  0.76912500  1
  N  N28  1  0.95327800  0.75910400  0.94088800  1
  N  N29  1  0.04672200  0.25910400  0.55911200  1
  N  N30  1  0.56337000  0.98457300  0.26912500  1
  N  N31  1  0.95327800  0.74089600  0.44088800  1
  Cl  Cl32  1  0.79625200  0.40931400  0.64702800  1
  Cl  Cl33  1  0.44692800  0.45076800  0.86921600  1
  Cl  Cl34  1  0.21868700  0.78353800  0.08445600  1
  Cl  Cl35  1  0.09788900  0.69555700  0.86272700  1
  Cl  Cl36  1  0.70829800  0.45504500  0.34389700  1
  Cl  Cl37  1  0.11467700  0.53238200  0.78556900  1
  Cl  Cl38  1  0.63677300  0.22373700  0.14192000  1
  Cl  Cl39  1  0.64659800  0.79630200  0.98536200  1
  Cl  Cl40  1  0.56684000  0.53659500  0.42342000  1
  Cl  Cl41  1  0.35340200  0.29630200  0.51463800  1
  Cl  Cl42  1  0.36322700  0.72373700  0.35808000  1
  Cl  Cl43  1  0.37978600  0.61772900  0.19644400  1
  Cl  Cl44  1  0.91776700  0.89308700  0.74568700  1
  Cl  Cl45  1  0.55307200  0.95076800  0.63078400  1
  Cl  Cl46  1  0.17210300  0.45123800  0.32253100  1
  Cl  Cl47  1  0.55272700  0.70990400  0.81606700  1
  Cl  Cl48  1  0.10102100  0.12582100  0.59842600  1
  Cl  Cl49  1  0.05154000  0.96093000  0.65390800  1
  Cl  Cl50  1  0.49520900  0.39542000  0.37810500  1
  Cl  Cl51  1  0.29170200  0.54495500  0.65610300  1
  Cl  Cl52  1  0.01655800  0.35441100  0.42657300  1
  Cl  Cl53  1  0.09788900  0.80444300  0.36272700  1
  Cl  Cl54  1  0.68185300  0.84315200  0.51475700  1
  Cl  Cl55  1  0.55272700  0.79009600  0.31606700  1
  Cl  Cl56  1  0.98344200  0.85441100  0.07342700  1
  Cl  Cl57  1  0.73666500  0.48510700  0.96195600  1
  Cl  Cl58  1  0.39897300  0.86311400  0.38724200  1
  Cl  Cl59  1  0.60102700  0.36311400  0.11275800  1
  Cl  Cl60  1  0.62021400  0.38227100  0.80355600  1
  Cl  Cl61  1  0.03728900  0.98108400  0.91305900  1
  Cl  Cl62  1  0.56684000  0.96340500  0.92342000  1
  Cl  Cl63  1  0.20374800  0.59068600  0.35297200  1
  Cl  Cl64  1  0.39897300  0.63688600  0.88724200  1
  Cl  Cl65  1  0.26333500  0.51489300  0.03804400  1
  Cl  Cl66  1  0.19294800  0.22911000  0.75523700  1
  Cl  Cl67  1  0.90211100  0.30444300  0.13727300  1
  Cl  Cl68  1  0.73666500  0.01489300  0.46195600  1
  Cl  Cl69  1  0.49345400  0.72372900  0.05691100  1
  Cl  Cl70  1  0.50654600  0.27627100  0.94308900  1
  Cl  Cl71  1  0.88532300  0.46761800  0.21443100  1
  Cl  Cl72  1  0.63677300  0.27626300  0.64192000  1
  Cl  Cl73  1  0.36322700  0.77626300  0.85808000  1
  Cl  Cl74  1  0.11467700  0.96761800  0.28556900  1
  Cl  Cl75  1  0.43316000  0.03659500  0.07658000  1
  Cl  Cl76  1  0.49345400  0.77627100  0.55691100  1
  Cl  Cl77  1  0.10102100  0.37417900  0.09842600  1
  Cl  Cl78  1  0.62021400  0.11772900  0.30355600  1
  Cl  Cl79  1  0.20374800  0.90931400  0.85297200  1
  Cl  Cl80  1  0.97131200  0.21304000  0.36802500  1
  Cl  Cl81  1  0.97131200  0.28696000  0.86802500  1
  Cl  Cl82  1  0.21868700  0.71646200  0.58445600  1
  Cl  Cl83  1  0.82789700  0.54876200  0.67746900  1
  Cl  Cl84  1  0.44727300  0.29009600  0.18393300  1
  Cl  Cl85  1  0.94846000  0.03907000  0.34609200  1
  Cl  Cl86  1  0.78131300  0.21646200  0.91554400  1
  Cl  Cl87  1  0.50654600  0.22372900  0.44308900  1
  Cl  Cl88  1  0.31814700  0.34315200  0.98524300  1
  Cl  Cl89  1  0.82789700  0.95123800  0.17746900  1
  Cl  Cl90  1  0.96271100  0.48108400  0.58694100  1
  Cl  Cl91  1  0.08223300  0.10691300  0.25431300  1
  Cl  Cl92  1  0.19294800  0.27089000  0.25523700  1
  Cl  Cl93  1  0.55307200  0.54923200  0.13078400  1
  Cl  Cl94  1  0.02868800  0.71304000  0.13197500  1
  Cl  Cl95  1  0.90211100  0.19555700  0.63727300  1
  Cl  Cl96  1  0.89897900  0.62582100  0.90157400  1
  Cl  Cl97  1  0.80705200  0.72911000  0.74476300  1
  Cl  Cl98  1  0.01655800  0.14558900  0.92657300  1
  Cl  Cl99  1  0.02868800  0.78696000  0.63197500  1
  Cl  Cl100  1  0.17210300  0.04876200  0.82253100  1
  Cl  Cl101  1  0.79625200  0.09068600  0.14702800  1
  Cl  Cl102  1  0.50479100  0.60458000  0.62189500  1
  Cl  Cl103  1  0.98344200  0.64558900  0.57342700  1
  Cl  Cl104  1  0.44727300  0.20990400  0.68393300  1
  Cl  Cl105  1  0.35340200  0.20369800  0.01463800  1
  Cl  Cl106  1  0.37978600  0.88227100  0.69644400  1
  Cl  Cl107  1  0.78131300  0.28353800  0.41554400  1
  Cl  Cl108  1  0.60102700  0.13688600  0.61275800  1
  Cl  Cl109  1  0.50479100  0.89542000  0.12189500  1
  Cl  Cl110  1  0.68185300  0.65684800  0.01475700  1
  Cl  Cl111  1  0.70829800  0.04495500  0.84389700  1
  Cl  Cl112  1  0.26333500  0.98510700  0.53804400  1
  Cl  Cl113  1  0.89897900  0.87417900  0.40157400  1
  Cl  Cl114  1  0.96271100  0.01891600  0.08694100  1
  Cl  Cl115  1  0.31814700  0.15684800  0.48524300  1
  Cl  Cl116  1  0.88532300  0.03238200  0.71443100  1
  Cl  Cl117  1  0.80705200  0.77089000  0.24476300  1
  Cl  Cl118  1  0.29170200  0.95504500  0.15610300  1
  Cl  Cl119  1  0.05154000  0.53907000  0.15390800  1
  Cl  Cl120  1  0.03728900  0.51891600  0.41305900  1
  Cl  Cl121  1  0.49520900  0.10458000  0.87810500  1
  Cl  Cl122  1  0.43316000  0.46340500  0.57658000  1
  Cl  Cl123  1  0.94846000  0.46093000  0.84609200  1
  Cl  Cl124  1  0.91776700  0.60691300  0.24568700  1
  Cl  Cl125  1  0.08223300  0.39308700  0.75431300  1
  Cl  Cl126  1  0.44692800  0.04923200  0.36921600  1
  Cl  Cl127  1  0.64659800  0.70369800  0.48536200  1
