# generated using pymatgen
data_SrTa2Bi2O9
_symmetry_space_group_name_H-M   'P 1'
_cell_length_a   3.93663200
_cell_length_b   3.93663200
_cell_length_c   25.17018000
_cell_angle_alpha   90.00000000
_cell_angle_beta   90.00000000
_cell_angle_gamma   90.00000000
_symmetry_Int_Tables_number   1
_chemical_formula_structural   SrTa2Bi2O9
_chemical_formula_sum   'Sr2 Ta4 Bi4 O18'
_cell_volume   390.06407921
_cell_formula_units_Z   2
loop_
 _symmetry_equiv_pos_site_id
 _symmetry_equiv_pos_as_xyz
  1  'x, y, z'
loop_
 _atom_site_type_symbol
 _atom_site_label
 _atom_site_symmetry_multiplicity
 _atom_site_fract_x
 _atom_site_fract_y
 _atom_site_fract_z
 _atom_site_occupancy
  Sr  Sr0  1  0.00000000  0.00000000  0.00000000  1
  Sr  Sr1  1  0.50000000  0.50000000  0.50000000  1
  Ta  Ta2  1  0.50000000  0.50000000  0.08503900  1
  Ta  Ta3  1  0.00000000  0.00000000  0.41496100  1
  Ta  Ta4  1  0.00000000  0.00000000  0.58503900  1
  Ta  Ta5  1  0.50000000  0.50000000  0.91496100  1
  Bi  Bi6  1  0.00000000  0.00000000  0.20051000  1
  Bi  Bi7  1  0.50000000  0.50000000  0.29949000  1
  Bi  Bi8  1  0.50000000  0.50000000  0.70051000  1
  Bi  Bi9  1  0.00000000  0.00000000  0.79949000  1
  O  O10  1  0.00000000  0.50000000  0.07636200  1
  O  O11  1  0.00000000  0.50000000  0.25000000  1
  O  O12  1  0.00000000  0.50000000  0.42363800  1
  O  O13  1  0.50000000  0.50000000  0.00000000  1
  O  O14  1  0.50000000  0.00000000  0.42363800  1
  O  O15  1  0.00000000  0.00000000  0.33934300  1
  O  O16  1  0.50000000  0.00000000  0.07636200  1
  O  O17  1  0.50000000  0.00000000  0.25000000  1
  O  O18  1  0.50000000  0.50000000  0.16065700  1
  O  O19  1  0.50000000  0.00000000  0.57636200  1
  O  O20  1  0.50000000  0.00000000  0.75000000  1
  O  O21  1  0.50000000  0.00000000  0.92363800  1
  O  O22  1  0.00000000  0.00000000  0.50000000  1
  O  O23  1  0.00000000  0.50000000  0.92363800  1
  O  O24  1  0.50000000  0.50000000  0.83934300  1
  O  O25  1  0.00000000  0.50000000  0.57636200  1
  O  O26  1  0.00000000  0.50000000  0.75000000  1
  O  O27  1  0.00000000  0.00000000  0.66065700  1
