# generated using pymatgen
data_K2Ca2(CO3)3
_symmetry_space_group_name_H-M   'P 1'
_cell_length_a   13.21408982
_cell_length_b   13.21408982
_cell_length_c   8.73355829
_cell_angle_alpha   90.00000000
_cell_angle_beta   90.00000000
_cell_angle_gamma   120.00000000
_symmetry_Int_Tables_number   1
_chemical_formula_structural   K2Ca2(CO3)3
_chemical_formula_sum   'K12 Ca12 C18 O54'
_cell_volume   1320.67623834
_cell_formula_units_Z   6
loop_
 _symmetry_equiv_pos_site_id
 _symmetry_equiv_pos_as_xyz
  1  'x, y, z'
loop_
 _atom_site_type_symbol
 _atom_site_label
 _atom_site_symmetry_multiplicity
 _atom_site_fract_x
 _atom_site_fract_y
 _atom_site_fract_z
 _atom_site_occupancy
  K  K0  1  0.00000000  0.00000000  0.12938300  1
  K  K1  1  0.89585200  0.64632800  0.54905000  1
  K  K2  1  0.35367200  0.24952400  0.54905000  1
  K  K3  1  0.75047600  0.10414800  0.54905000  1
  K  K4  1  0.66666667  0.33333333  0.46271633  1
  K  K5  1  0.56251867  0.97966133  0.88238333  1
  K  K6  1  0.02033867  0.58285733  0.88238333  1
  K  K7  1  0.41714267  0.43748133  0.88238333  1
  K  K8  1  0.33333333  0.66666667  0.79604967  1
  K  K9  1  0.22918533  0.31299467  0.21571667  1
  K  K10  1  0.68700533  0.91619067  0.21571667  1
  K  K11  1  0.08380933  0.77081467  0.21571667  1
  Ca  Ca12  1  0.72675533  0.78990167  0.76516967  1
  Ca  Ca13  1  0.06314633  0.27324467  0.76516967  1
  Ca  Ca14  1  0.21009833  0.93685367  0.76516967  1
  Ca  Ca15  1  0.00000000  0.00000000  0.55290200  1
  Ca  Ca16  1  0.39342200  0.12323500  0.09850300  1
  Ca  Ca17  1  0.72981300  0.60657800  0.09850300  1
  Ca  Ca18  1  0.87676500  0.27018700  0.09850300  1
  Ca  Ca19  1  0.66666667  0.33333333  0.88623533  1
  Ca  Ca20  1  0.06008867  0.45656833  0.43183633  1
  Ca  Ca21  1  0.39647967  0.93991133  0.43183633  1
  Ca  Ca22  1  0.54343167  0.60352033  0.43183633  1
  Ca  Ca23  1  0.33333333  0.66666667  0.21956867  1
  C  C24  1  0.80888500  0.80494600  0.38927800  1
  C  C25  1  0.28080467  0.47408933  0.53962233  1
  C  C26  1  0.52591067  0.80671533  0.53962233  1
  C  C27  1  0.19328467  0.71919533  0.53962233  1
  C  C28  1  0.99606100  0.19111500  0.38927800  1
  C  C29  1  0.19505400  0.00393900  0.38927800  1
  C  C30  1  0.47555167  0.13827933  0.72261133  1
  C  C31  1  0.94747133  0.80742267  0.87295567  1
  C  C32  1  0.19257733  0.14004867  0.87295567  1
  C  C33  1  0.85995133  0.05252867  0.87295567  1
  C  C34  1  0.66272767  0.52444833  0.72261133  1
  C  C35  1  0.86172067  0.33727233  0.72261133  1
  C  C36  1  0.14221833  0.47161267  0.05594467  1
  C  C37  1  0.61413800  0.14075600  0.20628900  1
  C  C38  1  0.85924400  0.47338200  0.20628900  1
  C  C39  1  0.52661800  0.38586200  0.20628900  1
  C  C40  1  0.32939433  0.85778167  0.05594467  1
  C  C41  1  0.52838733  0.67060567  0.05594467  1
  O  O42  1  0.16189967  0.09566633  0.73591533  1
  O  O43  1  0.54455167  0.74711933  0.64302533  1
  O  O44  1  0.53640567  0.90758533  0.57078733  1
  O  O45  1  0.91737600  0.83763000  0.36326200  1
  O  O46  1  0.78159733  0.85150167  0.50164067  1
  O  O47  1  0.72590400  0.72702800  0.30219900  1
  O  O48  1  0.16237000  0.07974600  0.36326200  1
  O  O49  1  0.37117967  0.46359433  0.57078733  1
  O  O50  1  0.27297200  0.99887600  0.30219900  1
  O  O51  1  0.14849833  0.93009567  0.50164067  1
  O  O52  1  0.93376667  0.83810033  0.73591533  1
  O  O53  1  0.92025400  0.08262400  0.36326200  1
  O  O54  1  0.25288067  0.79743233  0.64302533  1
  O  O55  1  0.90433367  0.06623333  0.73591533  1
  O  O56  1  0.09241467  0.62882033  0.57078733  1
  O  O57  1  0.00112400  0.27409600  0.30219900  1
  O  O58  1  0.06990433  0.21840267  0.50164067  1
  O  O59  1  0.20256767  0.45544833  0.64302533  1
  O  O60  1  0.82856633  0.42899967  0.06924867  1
  O  O61  1  0.21121833  0.08045267  0.97635867  1
  O  O62  1  0.20307233  0.24091867  0.90412067  1
  O  O63  1  0.58404267  0.17096333  0.69659533  1
  O  O64  1  0.44826400  0.18483500  0.83497400  1
  O  O65  1  0.39257067  0.06036133  0.63553233  1
  O  O66  1  0.82903667  0.41307933  0.69659533  1
  O  O67  1  0.03784633  0.79692767  0.90412067  1
  O  O68  1  0.93963867  0.33220933  0.63553233  1
  O  O69  1  0.81516500  0.26342900  0.83497400  1
  O  O70  1  0.60043333  0.17143367  0.06924867  1
  O  O71  1  0.58692067  0.41595733  0.69659533  1
  O  O72  1  0.91954733  0.13076567  0.97635867  1
  O  O73  1  0.57100033  0.39956667  0.06924867  1
  O  O74  1  0.75908133  0.96215367  0.90412067  1
  O  O75  1  0.66779067  0.60742933  0.63553233  1
  O  O76  1  0.73657100  0.55173600  0.83497400  1
  O  O77  1  0.86923433  0.78878167  0.97635867  1
  O  O78  1  0.49523300  0.76233300  0.40258200  1
  O  O79  1  0.87788500  0.41378600  0.30969200  1
  O  O80  1  0.86973900  0.57425200  0.23745400  1
  O  O81  1  0.25070933  0.50429667  0.02992867  1
  O  O82  1  0.11493067  0.51816833  0.16830733  1
  O  O83  1  0.05923733  0.39369467  0.96886567  1
  O  O84  1  0.49570333  0.74641267  0.02992867  1
  O  O85  1  0.70451300  0.13026100  0.23745400  1
  O  O86  1  0.60630533  0.66554267  0.96886567  1
  O  O87  1  0.48183167  0.59676233  0.16830733  1
  O  O88  1  0.26710000  0.50476700  0.40258200  1
  O  O89  1  0.25358733  0.74929067  0.02992867  1
  O  O90  1  0.58621400  0.46409900  0.30969200  1
  O  O91  1  0.23766700  0.73290000  0.40258200  1
  O  O92  1  0.42574800  0.29548700  0.23745400  1
  O  O93  1  0.33445733  0.94076267  0.96886567  1
  O  O94  1  0.40323767  0.88506933  0.16830733  1
  O  O95  1  0.53590100  0.12211500  0.30969200  1
