# generated using pymatgen
data_Ba3Y(BO2)9
_symmetry_space_group_name_H-M   'P 1'
_cell_length_a   7.28584400
_cell_length_b   7.28584400
_cell_length_c   17.43704500
_cell_angle_alpha   90.00000000
_cell_angle_beta   90.00000000
_cell_angle_gamma   120.00000000
_symmetry_Int_Tables_number   1
_chemical_formula_structural   Ba3Y(BO2)9
_chemical_formula_sum   'Ba6 Y2 B18 O36'
_cell_volume   801.61024075
_cell_formula_units_Z   2
loop_
 _symmetry_equiv_pos_site_id
 _symmetry_equiv_pos_as_xyz
  1  'x, y, z'
loop_
 _atom_site_type_symbol
 _atom_site_label
 _atom_site_symmetry_multiplicity
 _atom_site_fract_x
 _atom_site_fract_y
 _atom_site_fract_z
 _atom_site_occupancy
  Ba  Ba0  1  0.33333333  0.66666667  0.86762600  1
  Ba  Ba1  1  0.00000000  0.00000000  0.75000000  1
  Ba  Ba2  1  0.66666667  0.33333333  0.13237400  1
  Ba  Ba3  1  0.66666667  0.33333333  0.36762600  1
  Ba  Ba4  1  0.00000000  0.00000000  0.25000000  1
  Ba  Ba5  1  0.33333333  0.66666667  0.63237400  1
  Y  Y6  1  0.00000000  0.00000000  0.50000000  1
  Y  Y7  1  0.00000000  0.00000000  0.00000000  1
  B  B8  1  0.28447500  0.83447800  0.41812700  1
  B  B9  1  0.83447800  0.55000300  0.91812700  1
  B  B10  1  0.16552200  0.44999700  0.08187300  1
  B  B11  1  0.71552500  0.16552200  0.58187300  1
  B  B12  1  0.50425600  0.88260800  0.25000000  1
  B  B13  1  0.11739200  0.62164800  0.25000000  1
  B  B14  1  0.55000300  0.71552500  0.41812700  1
  B  B15  1  0.55000300  0.71552500  0.08187300  1
  B  B16  1  0.44999700  0.28447500  0.58187300  1
  B  B17  1  0.83447800  0.55000300  0.58187300  1
  B  B18  1  0.44999700  0.28447500  0.91812700  1
  B  B19  1  0.71552500  0.16552200  0.91812700  1
  B  B20  1  0.49574400  0.11739200  0.75000000  1
  B  B21  1  0.37835200  0.49574400  0.25000000  1
  B  B22  1  0.28447500  0.83447800  0.08187300  1
  B  B23  1  0.16552200  0.44999700  0.41812700  1
  B  B24  1  0.62164800  0.50425600  0.75000000  1
  B  B25  1  0.88260800  0.37835200  0.75000000  1
  O  O26  1  0.24518900  0.99464300  0.08099100  1
  O  O27  1  0.87646300  0.38035600  0.91804700  1
  O  O28  1  0.87646300  0.38035600  0.58195300  1
  O  O29  1  0.74945400  0.75481100  0.08099100  1
  O  O30  1  0.00535700  0.25054600  0.41900900  1
  O  O31  1  0.99464300  0.74945400  0.91900900  1
  O  O32  1  0.91985200  0.58638900  0.25000000  1
  O  O33  1  0.25054600  0.24518900  0.58099100  1
  O  O34  1  0.50389300  0.12353700  0.91804700  1
  O  O35  1  0.45822200  0.29056100  0.75000000  1
  O  O36  1  0.12353700  0.61964400  0.41804700  1
  O  O37  1  0.33346300  0.91985200  0.75000000  1
  O  O38  1  0.00535700  0.25054600  0.08099100  1
  O  O39  1  0.41361100  0.33346300  0.25000000  1
  O  O40  1  0.99464300  0.74945400  0.58099100  1
  O  O41  1  0.38035600  0.50389300  0.41804700  1
  O  O42  1  0.49610700  0.87646300  0.41804700  1
  O  O43  1  0.25054600  0.24518900  0.91900900  1
  O  O44  1  0.83233900  0.54177800  0.75000000  1
  O  O45  1  0.70943900  0.16766100  0.75000000  1
  O  O46  1  0.75481100  0.00535700  0.58099100  1
  O  O47  1  0.58638900  0.66653700  0.75000000  1
  O  O48  1  0.49610700  0.87646300  0.08195300  1
  O  O49  1  0.38035600  0.50389300  0.08195300  1
  O  O50  1  0.54177800  0.70943900  0.25000000  1
  O  O51  1  0.12353700  0.61964400  0.08195300  1
  O  O52  1  0.08014800  0.41361100  0.75000000  1
  O  O53  1  0.75481100  0.00535700  0.91900900  1
  O  O54  1  0.61964400  0.49610700  0.91804700  1
  O  O55  1  0.16766100  0.45822200  0.25000000  1
  O  O56  1  0.29056100  0.83233900  0.25000000  1
  O  O57  1  0.50389300  0.12353700  0.58195300  1
  O  O58  1  0.74945400  0.75481100  0.41900900  1
  O  O59  1  0.66653700  0.08014800  0.25000000  1
  O  O60  1  0.61964400  0.49610700  0.58195300  1
  O  O61  1  0.24518900  0.99464300  0.41900900  1
