# generated using pymatgen
data_Zn2P2O7
_symmetry_space_group_name_H-M   'P 1'
_cell_length_a   6.65253000
_cell_length_b   8.38863000
_cell_length_c   4.55848978
_cell_angle_alpha   90.00000000
_cell_angle_beta   104.74595293
_cell_angle_gamma   90.00000000
_symmetry_Int_Tables_number   1
_chemical_formula_structural   Zn2P2O7
_chemical_formula_sum   'Zn4 P4 O14'
_cell_volume   246.01072870
_cell_formula_units_Z   2
loop_
 _symmetry_equiv_pos_site_id
 _symmetry_equiv_pos_as_xyz
  1  'x, y, z'
loop_
 _atom_site_type_symbol
 _atom_site_label
 _atom_site_symmetry_multiplicity
 _atom_site_fract_x
 _atom_site_fract_y
 _atom_site_fract_z
 _atom_site_occupancy
  Zn  Zn0  1  0.50000000  0.80934500  0.50000000  1
  Zn  Zn1  1  0.50000000  0.19065500  0.50000000  1
  Zn  Zn2  1  0.00000000  0.30934500  0.50000000  1
  Zn  Zn3  1  0.00000000  0.69065500  0.50000000  1
  P  P4  1  0.21454900  0.00000000  0.90707600  1
  P  P5  1  0.78545100  0.00000000  0.09292400  1
  P  P6  1  0.71454900  0.50000000  0.90707600  1
  P  P7  1  0.28545100  0.50000000  0.09292400  1
  O  O8  1  0.22187200  0.84793100  0.72292200  1
  O  O9  1  0.77812800  0.84793100  0.27707800  1
  O  O10  1  0.77812800  0.15206900  0.27707800  1
  O  O11  1  0.22187200  0.15206900  0.72292200  1
  O  O12  1  0.61988600  0.00000000  0.78722000  1
  O  O13  1  0.00000000  0.00000000  0.00000000  1
  O  O14  1  0.38011400  0.00000000  0.21278000  1
  O  O15  1  0.72187200  0.34793100  0.72292200  1
  O  O16  1  0.27812800  0.34793100  0.27707800  1
  O  O17  1  0.27812800  0.65206900  0.27707800  1
  O  O18  1  0.72187200  0.65206900  0.72292200  1
  O  O19  1  0.11988600  0.50000000  0.78722000  1
  O  O20  1  0.50000000  0.50000000  0.00000000  1
  O  O21  1  0.88011400  0.50000000  0.21278000  1
