# generated using pymatgen
data_Y2BeO4
_symmetry_space_group_name_H-M   'P 1'
_cell_length_a   3.56306700
_cell_length_b   10.02650000
_cell_length_c   10.47544000
_cell_angle_alpha   90.00000000
_cell_angle_beta   90.00000000
_cell_angle_gamma   90.00000000
_symmetry_Int_Tables_number   1
_chemical_formula_structural   Y2BeO4
_chemical_formula_sum   'Y8 Be4 O16'
_cell_volume   374.23605015
_cell_formula_units_Z   4
loop_
 _symmetry_equiv_pos_site_id
 _symmetry_equiv_pos_as_xyz
  1  'x, y, z'
loop_
 _atom_site_type_symbol
 _atom_site_label
 _atom_site_symmetry_multiplicity
 _atom_site_fract_x
 _atom_site_fract_y
 _atom_site_fract_z
 _atom_site_occupancy
  Y  Y0  1  0.25000000  0.41218900  0.61744000  1
  Y  Y1  1  0.75000000  0.58781100  0.38256000  1
  Y  Y2  1  0.75000000  0.91218900  0.88256000  1
  Y  Y3  1  0.25000000  0.08781100  0.11744000  1
  Y  Y4  1  0.25000000  0.82062400  0.59037800  1
  Y  Y5  1  0.75000000  0.17937600  0.40962200  1
  Y  Y6  1  0.75000000  0.32062400  0.90962200  1
  Y  Y7  1  0.25000000  0.67937600  0.09037800  1
  Be  Be8  1  0.25000000  0.12586000  0.69314800  1
  Be  Be9  1  0.75000000  0.87414000  0.30685200  1
  Be  Be10  1  0.75000000  0.62586000  0.80685200  1
  Be  Be11  1  0.25000000  0.37414000  0.19314800  1
  O  O12  1  0.25000000  0.15048300  0.54535300  1
  O  O13  1  0.75000000  0.84951700  0.45464700  1
  O  O14  1  0.75000000  0.65048300  0.95464700  1
  O  O15  1  0.25000000  0.34951700  0.04535300  1
  O  O16  1  0.25000000  0.24588500  0.27769700  1
  O  O17  1  0.75000000  0.75411500  0.72230300  1
  O  O18  1  0.75000000  0.74588500  0.22230300  1
  O  O19  1  0.25000000  0.25411500  0.77769700  1
  O  O20  1  0.75000000  0.01691300  0.25231700  1
  O  O21  1  0.25000000  0.98308700  0.74768300  1
  O  O22  1  0.25000000  0.51691300  0.24768300  1
  O  O23  1  0.75000000  0.48308700  0.75231700  1
  O  O24  1  0.75000000  0.11363500  0.98658400  1
  O  O25  1  0.25000000  0.88636500  0.01341600  1
  O  O26  1  0.25000000  0.61363500  0.51341600  1
  O  O27  1  0.75000000  0.38636500  0.48658400  1
