# generated using pymatgen
data_As2Pb4S6ICl
_symmetry_space_group_name_H-M   'P 1'
_cell_length_a   6.79900500
_cell_length_b   9.71726600
_cell_length_c   11.77591500
_cell_angle_alpha   90.00000000
_cell_angle_beta   90.00000000
_cell_angle_gamma   90.00000000
_symmetry_Int_Tables_number   1
_chemical_formula_structural   As2Pb4S6ICl
_chemical_formula_sum   'As4 Pb8 S12 I2 Cl2'
_cell_volume   778.00809190
_cell_formula_units_Z   2
loop_
 _symmetry_equiv_pos_site_id
 _symmetry_equiv_pos_as_xyz
  1  'x, y, z'
loop_
 _atom_site_type_symbol
 _atom_site_label
 _atom_site_symmetry_multiplicity
 _atom_site_fract_x
 _atom_site_fract_y
 _atom_site_fract_z
 _atom_site_occupancy
  As  As0  1  0.50000000  0.94928100  0.16916800  1
  As  As1  1  0.00000000  0.44928100  0.83083200  1
  As  As2  1  0.50000000  0.52404400  0.66918300  1
  As  As3  1  0.00000000  0.02404400  0.33081700  1
  Pb  Pb4  1  0.50000000  0.28333300  0.37169900  1
  Pb  Pb5  1  0.00000000  0.68851100  0.12795600  1
  Pb  Pb6  1  0.50000000  0.76724700  0.42928200  1
  Pb  Pb7  1  0.00000000  0.22018800  0.08283600  1
  Pb  Pb8  1  0.00000000  0.78333300  0.62830100  1
  Pb  Pb9  1  0.50000000  0.72018800  0.91716400  1
  Pb  Pb10  1  0.00000000  0.26724700  0.57071800  1
  Pb  Pb11  1  0.50000000  0.18851100  0.87204400  1
  S  S12  1  0.75114600  0.40336300  0.95508400  1
  S  S13  1  0.24672100  0.07380000  0.45600100  1
  S  S14  1  0.25327900  0.57380000  0.54399900  1
  S  S15  1  0.74672100  0.57380000  0.54399900  1
  S  S16  1  0.00000000  0.68186500  0.85085500  1
  S  S17  1  0.74885400  0.90336300  0.04491600  1
  S  S18  1  0.24885400  0.40336300  0.95508400  1
  S  S19  1  0.25114600  0.90336300  0.04491600  1
  S  S20  1  0.50000000  0.18186500  0.14914500  1
  S  S21  1  0.50000000  0.29262200  0.64826300  1
  S  S22  1  0.75327900  0.07380000  0.45600100  1
  S  S23  1  0.00000000  0.79262200  0.35173700  1
  I  I24  1  0.00000000  0.08518100  0.79114200  1
  I  I25  1  0.50000000  0.58518100  0.20885800  1
  Cl  Cl26  1  0.50000000  0.87171200  0.71670800  1
  Cl  Cl27  1  0.00000000  0.37171200  0.28329200  1
