# generated using pymatgen
data_CsLi5(BO3)2
_symmetry_space_group_name_H-M   'P 1'
_cell_length_a   11.90349800
_cell_length_b   9.55139800
_cell_length_c   8.18020939
_cell_angle_alpha   90.00000000
_cell_angle_beta   132.69329937
_cell_angle_gamma   90.00000000
_symmetry_Int_Tables_number   1
_chemical_formula_structural   CsLi5(BO3)2
_chemical_formula_sum   'Cs4 Li20 B8 O24'
_cell_volume   683.58055530
_cell_formula_units_Z   4
loop_
 _symmetry_equiv_pos_site_id
 _symmetry_equiv_pos_as_xyz
  1  'x, y, z'
loop_
 _atom_site_type_symbol
 _atom_site_label
 _atom_site_symmetry_multiplicity
 _atom_site_fract_x
 _atom_site_fract_y
 _atom_site_fract_z
 _atom_site_occupancy
  Cs  Cs0  1  0.00000000  0.30827900  0.25000000  1
  Cs  Cs1  1  0.50000000  0.19172100  0.75000000  1
  Cs  Cs2  1  0.50000000  0.80827900  0.25000000  1
  Cs  Cs3  1  0.00000000  0.69172100  0.75000000  1
  Li  Li4  1  0.39804800  0.86814900  0.77077000  1
  Li  Li5  1  0.38718500  0.68338500  0.53952900  1
  Li  Li6  1  0.10195200  0.63185100  0.22923000  1
  Li  Li7  1  0.60195200  0.86814900  0.72923000  1
  Li  Li8  1  0.00000000  0.00000000  0.00000000  1
  Li  Li9  1  0.11281500  0.81661500  0.46047100  1
  Li  Li10  1  0.89804800  0.63185100  0.27077000  1
  Li  Li11  1  0.88718500  0.81661500  0.03952900  1
  Li  Li12  1  0.00000000  0.00000000  0.50000000  1
  Li  Li13  1  0.61281500  0.68338500  0.96047100  1
  Li  Li14  1  0.89804800  0.36814900  0.77077000  1
  Li  Li15  1  0.88718500  0.18338500  0.53952900  1
  Li  Li16  1  0.60195200  0.13185100  0.22923000  1
  Li  Li17  1  0.10195200  0.36814900  0.72923000  1
  Li  Li18  1  0.50000000  0.50000000  0.00000000  1
  Li  Li19  1  0.61281500  0.31661500  0.46047100  1
  Li  Li20  1  0.39804800  0.13185100  0.27077000  1
  Li  Li21  1  0.38718500  0.31661500  0.03952900  1
  Li  Li22  1  0.50000000  0.50000000  0.50000000  1
  Li  Li23  1  0.11281500  0.18338500  0.96047100  1
  B  B24  1  0.25980000  0.42833600  0.18863700  1
  B  B25  1  0.25980000  0.57166400  0.68863700  1
  B  B26  1  0.24020000  0.07166400  0.81136300  1
  B  B27  1  0.24020000  0.92833600  0.31136300  1
  B  B28  1  0.75980000  0.92833600  0.18863700  1
  B  B29  1  0.75980000  0.07166400  0.68863700  1
  B  B30  1  0.74020000  0.57166400  0.81136300  1
  B  B31  1  0.74020000  0.42833600  0.31136300  1
  O  O32  1  0.71856850  0.55147250  0.20172100  1
  O  O33  1  0.88967750  0.84534650  0.28432100  1
  O  O34  1  0.61032250  0.65465350  0.71567900  1
  O  O35  1  0.21856850  0.94852750  0.70172100  1
  O  O36  1  0.38967750  0.65465350  0.78432100  1
  O  O37  1  0.11032250  0.84534650  0.21567900  1
  O  O38  1  0.11768850  0.61291250  0.49302200  1
  O  O39  1  0.78143150  0.94852750  0.79827900  1
  O  O40  1  0.61768850  0.88708750  0.99302200  1
  O  O41  1  0.88231150  0.61291250  0.00697800  1
  O  O42  1  0.38231150  0.88708750  0.50697800  1
  O  O43  1  0.28143150  0.55147250  0.29827900  1
  O  O44  1  0.21856850  0.05147250  0.20172100  1
  O  O45  1  0.38967750  0.34534650  0.28432100  1
  O  O46  1  0.11032250  0.15465350  0.71567900  1
  O  O47  1  0.71856850  0.44852750  0.70172100  1
  O  O48  1  0.88967750  0.15465350  0.78432100  1
  O  O49  1  0.61032250  0.34534650  0.21567900  1
  O  O50  1  0.61768850  0.11291250  0.49302200  1
  O  O51  1  0.28143150  0.44852750  0.79827900  1
  O  O52  1  0.11768850  0.38708750  0.99302200  1
  O  O53  1  0.38231150  0.11291250  0.00697800  1
  O  O54  1  0.88231150  0.38708750  0.50697800  1
  O  O55  1  0.78143150  0.05147250  0.29827900  1
