# generated using pymatgen
data_RbAuI3
_symmetry_space_group_name_H-M   'P 1'
_cell_length_a   13.80938200
_cell_length_b   8.07435600
_cell_length_c   8.88058988
_cell_angle_alpha   90.00000000
_cell_angle_beta   117.89565803
_cell_angle_gamma   90.00000000
_symmetry_Int_Tables_number   1
_chemical_formula_structural   RbAuI3
_chemical_formula_sum   'Rb4 Au4 I12'
_cell_volume   875.14191133
_cell_formula_units_Z   4
loop_
 _symmetry_equiv_pos_site_id
 _symmetry_equiv_pos_as_xyz
  1  'x, y, z'
loop_
 _atom_site_type_symbol
 _atom_site_label
 _atom_site_symmetry_multiplicity
 _atom_site_fract_x
 _atom_site_fract_y
 _atom_site_fract_z
 _atom_site_occupancy
  Rb  Rb0  1  0.73094600  0.00000000  0.23250900  1
  Rb  Rb1  1  0.26905400  0.00000000  0.76749100  1
  Rb  Rb2  1  0.23094600  0.50000000  0.23250900  1
  Rb  Rb3  1  0.76905400  0.50000000  0.76749100  1
  Au  Au4  1  0.00000000  0.00000000  0.00000000  1
  Au  Au5  1  0.50000000  0.00000000  0.50000000  1
  Au  Au6  1  0.50000000  0.50000000  0.00000000  1
  Au  Au7  1  0.00000000  0.50000000  0.50000000  1
  I  I8  1  0.28542500  0.00000000  0.35413000  1
  I  I9  1  0.53608750  0.73603150  0.81643000  1
  I  I10  1  0.46391250  0.26396850  0.18357000  1
  I  I11  1  0.46391250  0.73603150  0.18357000  1
  I  I12  1  0.53608750  0.26396850  0.81643000  1
  I  I13  1  0.71457500  0.00000000  0.64587000  1
  I  I14  1  0.78542500  0.50000000  0.35413000  1
  I  I15  1  0.03608750  0.23603150  0.81643000  1
  I  I16  1  0.96391250  0.76396850  0.18357000  1
  I  I17  1  0.96391250  0.23603150  0.18357000  1
  I  I18  1  0.03608750  0.76396850  0.81643000  1
  I  I19  1  0.21457500  0.50000000  0.64587000  1
