# generated using pymatgen
data_K3ReClF6
_symmetry_space_group_name_H-M   'P 1'
_cell_length_a   8.43464600
_cell_length_b   8.43464600
_cell_length_c   6.09198600
_cell_angle_alpha   90.00000000
_cell_angle_beta   90.00000000
_cell_angle_gamma   90.00000000
_symmetry_Int_Tables_number   1
_chemical_formula_structural   K3ReClF6
_chemical_formula_sum   'K6 Re2 Cl2 F12'
_cell_volume   433.40370216
_cell_formula_units_Z   2
loop_
 _symmetry_equiv_pos_site_id
 _symmetry_equiv_pos_as_xyz
  1  'x, y, z'
loop_
 _atom_site_type_symbol
 _atom_site_label
 _atom_site_symmetry_multiplicity
 _atom_site_fract_x
 _atom_site_fract_y
 _atom_site_fract_z
 _atom_site_occupancy
  K  K0  1  0.18551400  0.68551400  0.50000000  1
  K  K1  1  0.68551400  0.81448600  0.50000000  1
  K  K2  1  0.50000000  0.50000000  0.00000000  1
  K  K3  1  0.31448600  0.18551400  0.50000000  1
  K  K4  1  0.81448600  0.31448600  0.50000000  1
  K  K5  1  0.00000000  0.00000000  0.00000000  1
  Re  Re6  1  0.00000000  0.50000000  0.00000000  1
  Re  Re7  1  0.50000000  0.00000000  0.00000000  1
  Cl  Cl8  1  0.50000000  0.50000000  0.50000000  1
  Cl  Cl9  1  0.00000000  0.00000000  0.50000000  1
  F  F10  1  0.38751900  0.88751900  0.24109700  1
  F  F11  1  0.88751900  0.61248100  0.75890300  1
  F  F12  1  0.33326300  0.16673700  0.00000000  1
  F  F13  1  0.38751900  0.88751900  0.75890300  1
  F  F14  1  0.11248100  0.38751900  0.75890300  1
  F  F15  1  0.66673700  0.83326300  0.00000000  1
  F  F16  1  0.61248100  0.11248100  0.24109700  1
  F  F17  1  0.16673700  0.66673700  0.00000000  1
  F  F18  1  0.88751900  0.61248100  0.24109700  1
  F  F19  1  0.11248100  0.38751900  0.24109700  1
  F  F20  1  0.61248100  0.11248100  0.75890300  1
  F  F21  1  0.83326300  0.33326300  0.00000000  1
