# generated using pymatgen
data_AlPO4
_symmetry_space_group_name_H-M   'P 1'
_cell_length_a   8.68817800
_cell_length_b   9.95573600
_cell_length_c   19.64401500
_cell_angle_alpha   90.00000000
_cell_angle_beta   90.00000000
_cell_angle_gamma   90.00000000
_symmetry_Int_Tables_number   1
_chemical_formula_structural   AlPO4
_chemical_formula_sum   'Al16 P16 O64'
_cell_volume   1699.15242173
_cell_formula_units_Z   16
loop_
 _symmetry_equiv_pos_site_id
 _symmetry_equiv_pos_as_xyz
  1  'x, y, z'
loop_
 _atom_site_type_symbol
 _atom_site_label
 _atom_site_symmetry_multiplicity
 _atom_site_fract_x
 _atom_site_fract_y
 _atom_site_fract_z
 _atom_site_occupancy
  Al  Al0  1  0.92148000  0.12931300  0.03317400  1
  Al  Al1  1  0.07852000  0.62931300  0.96682600  1
  Al  Al2  1  0.41778800  0.87875400  0.42388800  1
  Al  Al3  1  0.07886800  0.33001400  0.72213300  1
  Al  Al4  1  0.41778800  0.37875400  0.07611200  1
  Al  Al5  1  0.92113200  0.83001400  0.27786700  1
  Al  Al6  1  0.42646800  0.52681500  0.32081500  1
  Al  Al7  1  0.58221200  0.37875400  0.57611200  1
  Al  Al8  1  0.07886800  0.83001400  0.77786700  1
  Al  Al9  1  0.07852000  0.12931300  0.53317400  1
  Al  Al10  1  0.57353200  0.52681500  0.82081500  1
  Al  Al11  1  0.92113200  0.33001400  0.22213300  1
  Al  Al12  1  0.58221200  0.87875400  0.92388800  1
  Al  Al13  1  0.92148000  0.62931300  0.46682600  1
  Al  Al14  1  0.42646800  0.02681500  0.17918500  1
  Al  Al15  1  0.57353200  0.02681500  0.67918500  1
  P  P16  1  0.05592200  0.04704800  0.17813300  1
  P  P17  1  0.05592200  0.54704800  0.32186700  1
  P  P18  1  0.55361800  0.30771700  0.22366600  1
  P  P19  1  0.95252900  0.40921800  0.57641000  1
  P  P20  1  0.44638200  0.80771700  0.77633400  1
  P  P21  1  0.04747100  0.90921800  0.42359000  1
  P  P22  1  0.45161400  0.10092300  0.53333000  1
  P  P23  1  0.55361800  0.80771700  0.27633400  1
  P  P24  1  0.95252900  0.90921800  0.92359000  1
  P  P25  1  0.45161400  0.60092300  0.96667000  1
  P  P26  1  0.94407800  0.54704800  0.82186700  1
  P  P27  1  0.04747100  0.40921800  0.07641000  1
  P  P28  1  0.54838600  0.60092300  0.46667000  1
  P  P29  1  0.54838600  0.10092300  0.03333000  1
  P  P30  1  0.94407800  0.04704800  0.67813300  1
  P  P31  1  0.44638200  0.30771700  0.72366600  1
  O  O32  1  0.01735800  0.16240800  0.71911300  1
  O  O33  1  0.98385700  0.41221300  0.78843100  1
  O  O34  1  0.72097200  0.63277900  0.46065700  1
  O  O35  1  0.98956000  0.29485500  0.03003000  1
  O  O36  1  0.98956000  0.79485500  0.46997000  1
  O  O37  1  0.72407000  0.83338400  0.26132600  1
  O  O38  1  0.45639300  0.23264000  0.02891600  1
  O  O39  1  0.27902800  0.13277900  0.53934300  1
  O  O40  1  0.49736800  0.01826400  0.09569200  1
  O  O41  1  0.23102800  0.06572200  0.17705300  1
  O  O42  1  0.98264200  0.66240800  0.28088700  1
  O  O43  1  0.48322400  0.01988400  0.46829100  1
  O  O44  1  0.27902800  0.63277900  0.96065700  1
  O  O45  1  0.01735800  0.66240800  0.78088700  1
  O  O46  1  0.95870200  0.40968400  0.14401300  1
  O  O47  1  0.54381400  0.87313900  0.72001300  1
  O  O48  1  0.21999700  0.38988400  0.09094200  1
  O  O49  1  0.00484300  0.04647600  0.60470400  1
  O  O50  1  0.49736800  0.51826400  0.40430800  1
  O  O51  1  0.01614300  0.41221300  0.28843100  1
  O  O52  1  0.98264200  0.16240800  0.21911300  1
  O  O53  1  0.51677600  0.01988400  0.96829100  1
  O  O54  1  0.76897200  0.56572200  0.82294700  1
  O  O55  1  0.54381400  0.37313900  0.77998700  1
  O  O56  1  0.99515700  0.54647600  0.39529600  1
  O  O57  1  0.54360700  0.73264000  0.97108400  1
  O  O58  1  0.97968400  0.54443600  0.54060200  1
  O  O59  1  0.51237800  0.86978200  0.34574600  1
  O  O60  1  0.27593000  0.83338400  0.76132600  1
  O  O61  1  0.48322400  0.51988400  0.03170900  1
  O  O62  1  0.51237800  0.36978200  0.15425400  1
  O  O63  1  0.78000300  0.88988400  0.90905800  1
  O  O64  1  0.50263200  0.51826400  0.90430800  1
  O  O65  1  0.45639300  0.73264000  0.47108400  1
  O  O66  1  0.04129800  0.90968400  0.85598700  1
  O  O67  1  0.78000300  0.38988400  0.59094200  1
  O  O68  1  0.47804500  0.65564700  0.77640100  1
  O  O69  1  0.52195500  0.65564700  0.27640100  1
  O  O70  1  0.23102800  0.56572200  0.32294700  1
  O  O71  1  0.48762200  0.86978200  0.84574600  1
  O  O72  1  0.04129800  0.40968400  0.64401300  1
  O  O73  1  0.76897200  0.06572200  0.67705300  1
  O  O74  1  0.95870200  0.90968400  0.35598700  1
  O  O75  1  0.01614300  0.91221300  0.21156900  1
  O  O76  1  0.21999700  0.88988400  0.40905800  1
  O  O77  1  0.97968400  0.04443600  0.95939800  1
  O  O78  1  0.02031600  0.54443600  0.04060200  1
  O  O79  1  0.48762200  0.36978200  0.65425400  1
  O  O80  1  0.72097200  0.13277900  0.03934300  1
  O  O81  1  0.52195500  0.15564700  0.22359900  1
  O  O82  1  0.01044000  0.29485500  0.53003000  1
  O  O83  1  0.45618600  0.37313900  0.27998700  1
  O  O84  1  0.02031600  0.04443600  0.45939800  1
  O  O85  1  0.01044000  0.79485500  0.96997000  1
  O  O86  1  0.72407000  0.33338400  0.23867400  1
  O  O87  1  0.00484300  0.54647600  0.89529600  1
  O  O88  1  0.50263200  0.01826400  0.59569200  1
  O  O89  1  0.47804500  0.15564700  0.72359900  1
  O  O90  1  0.98385700  0.91221300  0.71156900  1
  O  O91  1  0.27593000  0.33338400  0.73867400  1
  O  O92  1  0.54360700  0.23264000  0.52891600  1
  O  O93  1  0.99515700  0.04647600  0.10470400  1
  O  O94  1  0.51677600  0.51988400  0.53170900  1
  O  O95  1  0.45618600  0.87313900  0.22001300  1
