# generated using pymatgen
data_CsLaS2
_symmetry_space_group_name_H-M   'P 1'
_cell_length_a   4.34319722
_cell_length_b   4.34319722
_cell_length_c   24.19142375
_cell_angle_alpha   90.00000000
_cell_angle_beta   90.00000000
_cell_angle_gamma   120.00000000
_symmetry_Int_Tables_number   1
_chemical_formula_structural   CsLaS2
_chemical_formula_sum   'Cs3 La3 S6'
_cell_volume   395.19474637
_cell_formula_units_Z   3
loop_
 _symmetry_equiv_pos_site_id
 _symmetry_equiv_pos_as_xyz
  1  'x, y, z'
loop_
 _atom_site_type_symbol
 _atom_site_label
 _atom_site_symmetry_multiplicity
 _atom_site_fract_x
 _atom_site_fract_y
 _atom_site_fract_z
 _atom_site_occupancy
  Cs  Cs0  1  0.00000000  0.00000000  0.00000000  1
  Cs  Cs1  1  0.66666667  0.33333333  0.33333333  1
  Cs  Cs2  1  0.33333333  0.66666667  0.66666667  1
  La  La3  1  0.33333333  0.66666667  0.16666667  1
  La  La4  1  1.00000000  1.00000000  0.50000000  1
  La  La5  1  0.66666667  0.33333333  0.83333333  1
  S  S6  1  0.00000000  0.00000000  0.22946700  1
  S  S7  1  0.66666667  0.33333333  0.10386633  1
  S  S8  1  0.66666667  0.33333333  0.56280033  1
  S  S9  1  0.33333333  0.66666667  0.43719967  1
  S  S10  1  0.33333333  0.66666667  0.89613367  1
  S  S11  1  0.00000000  0.00000000  0.77053300  1
