# generated using pymatgen
data_KNd2NbO6
_symmetry_space_group_name_H-M   'P 1'
_cell_length_a   12.68680800
_cell_length_b   5.76204600
_cell_length_c   8.84191322
_cell_angle_alpha   90.00000000
_cell_angle_beta   105.86282670
_cell_angle_gamma   90.00000000
_symmetry_Int_Tables_number   1
_chemical_formula_structural   KNd2NbO6
_chemical_formula_sum   'K4 Nd8 Nb4 O24'
_cell_volume   621.74710551
_cell_formula_units_Z   4
loop_
 _symmetry_equiv_pos_site_id
 _symmetry_equiv_pos_as_xyz
  1  'x, y, z'
loop_
 _atom_site_type_symbol
 _atom_site_label
 _atom_site_symmetry_multiplicity
 _atom_site_fract_x
 _atom_site_fract_y
 _atom_site_fract_z
 _atom_site_occupancy
  K  K0  1  0.88434300  0.00000000  0.52125600  1
  K  K1  1  0.61565700  0.50000000  0.47874400  1
  K  K2  1  0.38434300  0.50000000  0.52125600  1
  K  K3  1  0.11565700  0.00000000  0.47874400  1
  Nd  Nd4  1  0.87069500  0.00000000  0.07025400  1
  Nd  Nd5  1  0.91198200  0.50000000  0.79755700  1
  Nd  Nd6  1  0.58801800  0.00000000  0.20244300  1
  Nd  Nd7  1  0.62930500  0.50000000  0.92974600  1
  Nd  Nd8  1  0.37069500  0.50000000  0.07025400  1
  Nd  Nd9  1  0.41198200  0.00000000  0.79755700  1
  Nd  Nd10  1  0.08801800  0.50000000  0.20244300  1
  Nd  Nd11  1  0.12930500  0.00000000  0.92974600  1
  Nb  Nb12  1  0.84115100  0.50000000  0.29746400  1
  Nb  Nb13  1  0.65884900  0.00000000  0.70253600  1
  Nb  Nb14  1  0.34115100  0.00000000  0.29746400  1
  Nb  Nb15  1  0.15884900  0.50000000  0.70253600  1
  O  O16  1  0.73496750  0.26553050  0.16678200  1
  O  O17  1  0.54770200  0.23368800  0.70886900  1
  O  O18  1  0.00000000  0.74939600  0.00000000  1
  O  O19  1  0.95229800  0.26631200  0.29113100  1
  O  O20  1  0.54770200  0.76631200  0.70886900  1
  O  O21  1  0.00000000  0.25060400  0.00000000  1
  O  O22  1  0.95229800  0.73368800  0.29113100  1
  O  O23  1  0.76503250  0.23446950  0.83321800  1
  O  O24  1  0.82563500  0.50000000  0.50114700  1
  O  O25  1  0.67436500  0.00000000  0.49885300  1
  O  O26  1  0.76503250  0.76553050  0.83321800  1
  O  O27  1  0.73496750  0.73446950  0.16678200  1
  O  O28  1  0.23496750  0.76553050  0.16678200  1
  O  O29  1  0.04770200  0.73368800  0.70886900  1
  O  O30  1  0.50000000  0.24939600  0.00000000  1
  O  O31  1  0.45229800  0.76631200  0.29113100  1
  O  O32  1  0.04770200  0.26631200  0.70886900  1
  O  O33  1  0.50000000  0.75060400  0.00000000  1
  O  O34  1  0.45229800  0.23368800  0.29113100  1
  O  O35  1  0.26503250  0.73446950  0.83321800  1
  O  O36  1  0.32563500  0.00000000  0.50114700  1
  O  O37  1  0.17436500  0.50000000  0.49885300  1
  O  O38  1  0.26503250  0.26553050  0.83321800  1
  O  O39  1  0.23496750  0.23446950  0.16678200  1
