# generated using pymatgen
data_BaGa2B2O7
_symmetry_space_group_name_H-M   'P 1'
_cell_length_a   8.78329400
_cell_length_b   11.87202800
_cell_length_c   5.92739000
_cell_angle_alpha   90.00000000
_cell_angle_beta   90.00000000
_cell_angle_gamma   90.00000000
_symmetry_Int_Tables_number   1
_chemical_formula_structural   BaGa2B2O7
_chemical_formula_sum   'Ba4 Ga8 B8 O28'
_cell_volume   618.08162885
_cell_formula_units_Z   4
loop_
 _symmetry_equiv_pos_site_id
 _symmetry_equiv_pos_as_xyz
  1  'x, y, z'
loop_
 _atom_site_type_symbol
 _atom_site_label
 _atom_site_symmetry_multiplicity
 _atom_site_fract_x
 _atom_site_fract_y
 _atom_site_fract_z
 _atom_site_occupancy
  Ba  Ba0  1  0.80555700  0.00000000  0.25000000  1
  Ba  Ba1  1  0.19444300  0.00000000  0.75000000  1
  Ba  Ba2  1  0.30555700  0.50000000  0.25000000  1
  Ba  Ba3  1  0.69444300  0.50000000  0.75000000  1
  Ga  Ga4  1  0.57911900  0.29042800  0.25000000  1
  Ga  Ga5  1  0.42088100  0.29042800  0.75000000  1
  Ga  Ga6  1  0.57911900  0.70957200  0.25000000  1
  Ga  Ga7  1  0.42088100  0.70957200  0.75000000  1
  Ga  Ga8  1  0.07911900  0.79042800  0.25000000  1
  Ga  Ga9  1  0.92088100  0.79042800  0.75000000  1
  Ga  Ga10  1  0.07911900  0.20957200  0.25000000  1
  Ga  Ga11  1  0.92088100  0.20957200  0.75000000  1
  B  B12  1  0.60835850  0.88929450  0.75000000  1
  B  B13  1  0.39164150  0.11070550  0.25000000  1
  B  B14  1  0.39164150  0.88929450  0.25000000  1
  B  B15  1  0.60835850  0.11070550  0.75000000  1
  B  B16  1  0.10835850  0.38929450  0.75000000  1
  B  B17  1  0.89164150  0.61070550  0.25000000  1
  B  B18  1  0.89164150  0.38929450  0.25000000  1
  B  B19  1  0.10835850  0.61070550  0.75000000  1
  O  O20  1  0.50000000  0.36550500  0.50000000  1
  O  O21  1  0.33226900  0.00000000  0.25000000  1
  O  O22  1  0.50000000  0.63449500  0.00000000  1
  O  O23  1  0.54575500  0.13271100  0.25000000  1
  O  O24  1  0.50000000  0.63449500  0.50000000  1
  O  O25  1  0.50000000  0.36550500  0.00000000  1
  O  O26  1  0.66773100  0.00000000  0.75000000  1
  O  O27  1  0.70908900  0.19800400  0.75000000  1
  O  O28  1  0.45424500  0.86728900  0.75000000  1
  O  O29  1  0.29091100  0.19800400  0.25000000  1
  O  O30  1  0.29091100  0.80199600  0.25000000  1
  O  O31  1  0.54575500  0.86728900  0.25000000  1
  O  O32  1  0.45424500  0.13271100  0.75000000  1
  O  O33  1  0.70908900  0.80199600  0.75000000  1
  O  O34  1  0.00000000  0.86550500  0.50000000  1
  O  O35  1  0.83226900  0.50000000  0.25000000  1
  O  O36  1  0.00000000  0.13449500  0.00000000  1
  O  O37  1  0.04575500  0.63271100  0.25000000  1
  O  O38  1  0.00000000  0.13449500  0.50000000  1
  O  O39  1  0.00000000  0.86550500  0.00000000  1
  O  O40  1  0.16773100  0.50000000  0.75000000  1
  O  O41  1  0.20908900  0.69800400  0.75000000  1
  O  O42  1  0.95424500  0.36728900  0.75000000  1
  O  O43  1  0.79091100  0.69800400  0.25000000  1
  O  O44  1  0.79091100  0.30199600  0.25000000  1
  O  O45  1  0.04575500  0.36728900  0.25000000  1
  O  O46  1  0.95424500  0.63271100  0.75000000  1
  O  O47  1  0.20908900  0.30199600  0.75000000  1
