# generated using pymatgen
data_Ca9B2(CCl2)4
_symmetry_space_group_name_H-M   'P 1'
_cell_length_a   11.68496400
_cell_length_b   13.53549600
_cell_length_c   12.16499400
_cell_angle_alpha   90.00000000
_cell_angle_beta   90.00000000
_cell_angle_gamma   90.00000000
_symmetry_Int_Tables_number   1
_chemical_formula_structural   Ca9B2(CCl2)4
_chemical_formula_sum   'Ca36 B8 C16 Cl32'
_cell_volume   1924.03714709
_cell_formula_units_Z   4
loop_
 _symmetry_equiv_pos_site_id
 _symmetry_equiv_pos_as_xyz
  1  'x, y, z'
loop_
 _atom_site_type_symbol
 _atom_site_label
 _atom_site_symmetry_multiplicity
 _atom_site_fract_x
 _atom_site_fract_y
 _atom_site_fract_z
 _atom_site_occupancy
  Ca  Ca0  1  0.50000000  0.62069100  0.75000000  1
  Ca  Ca1  1  0.31277400  0.12000200  0.75000000  1
  Ca  Ca2  1  0.81898850  0.15190350  0.44953800  1
  Ca  Ca3  1  0.31277400  0.87999800  0.25000000  1
  Ca  Ca4  1  0.50000000  0.15947600  0.40803500  1
  Ca  Ca5  1  0.18101150  0.84809650  0.55046200  1
  Ca  Ca6  1  0.18101150  0.15190350  0.05046200  1
  Ca  Ca7  1  0.50000000  0.15947600  0.09196500  1
  Ca  Ca8  1  0.68722600  0.87999800  0.25000000  1
  Ca  Ca9  1  0.50000000  0.84052400  0.90803500  1
  Ca  Ca10  1  0.50000000  0.84052400  0.59196500  1
  Ca  Ca11  1  0.50000000  0.37930900  0.25000000  1
  Ca  Ca12  1  0.18101150  0.84809650  0.94953800  1
  Ca  Ca13  1  0.81898850  0.84809650  0.94953800  1
  Ca  Ca14  1  0.18101150  0.15190350  0.44953800  1
  Ca  Ca15  1  0.81898850  0.84809650  0.55046200  1
  Ca  Ca16  1  0.68722600  0.12000200  0.75000000  1
  Ca  Ca17  1  0.81898850  0.15190350  0.05046200  1
  Ca  Ca18  1  0.00000000  0.12069100  0.75000000  1
  Ca  Ca19  1  0.81277400  0.62000200  0.75000000  1
  Ca  Ca20  1  0.31898850  0.65190350  0.44953800  1
  Ca  Ca21  1  0.81277400  0.37999800  0.25000000  1
  Ca  Ca22  1  0.00000000  0.65947600  0.40803500  1
  Ca  Ca23  1  0.68101150  0.34809650  0.55046200  1
  Ca  Ca24  1  0.68101150  0.65190350  0.05046200  1
  Ca  Ca25  1  0.00000000  0.65947600  0.09196500  1
  Ca  Ca26  1  0.18722600  0.37999800  0.25000000  1
  Ca  Ca27  1  0.00000000  0.34052400  0.90803500  1
  Ca  Ca28  1  0.00000000  0.34052400  0.59196500  1
  Ca  Ca29  1  0.00000000  0.87930900  0.25000000  1
  Ca  Ca30  1  0.68101150  0.34809650  0.94953800  1
  Ca  Ca31  1  0.31898850  0.34809650  0.94953800  1
  Ca  Ca32  1  0.68101150  0.65190350  0.44953800  1
  Ca  Ca33  1  0.31898850  0.34809650  0.55046200  1
  Ca  Ca34  1  0.18722600  0.62000200  0.75000000  1
  Ca  Ca35  1  0.31898850  0.65190350  0.05046200  1
  B  B36  1  0.66634200  0.75128600  0.75000000  1
  B  B37  1  0.33365800  0.24871400  0.25000000  1
  B  B38  1  0.66634200  0.24871400  0.25000000  1
  B  B39  1  0.33365800  0.75128600  0.75000000  1
  B  B40  1  0.16634200  0.25128600  0.75000000  1
  B  B41  1  0.83365800  0.74871400  0.25000000  1
  B  B42  1  0.16634200  0.74871400  0.25000000  1
  B  B43  1  0.83365800  0.25128600  0.75000000  1
  C  C44  1  0.33021800  0.26706100  0.36795500  1
  C  C45  1  0.66978200  0.73293900  0.63204500  1
  C  C46  1  0.33021800  0.26706100  0.13204500  1
  C  C47  1  0.33021800  0.73293900  0.63204500  1
  C  C48  1  0.66978200  0.26706100  0.13204500  1
  C  C49  1  0.66978200  0.73293900  0.86795500  1
  C  C50  1  0.66978200  0.26706100  0.36795500  1
  C  C51  1  0.33021800  0.73293900  0.86795500  1
  C  C52  1  0.83021800  0.76706100  0.36795500  1
  C  C53  1  0.16978200  0.23293900  0.63204500  1
  C  C54  1  0.83021800  0.76706100  0.13204500  1
  C  C55  1  0.83021800  0.23293900  0.63204500  1
  C  C56  1  0.16978200  0.76706100  0.13204500  1
  C  C57  1  0.16978200  0.23293900  0.86795500  1
  C  C58  1  0.16978200  0.76706100  0.36795500  1
  C  C59  1  0.83021800  0.23293900  0.86795500  1
  Cl  Cl60  1  0.83895250  0.96277850  0.75000000  1
  Cl  Cl61  1  0.50000000  0.01249200  0.25000000  1
  Cl  Cl62  1  0.83895250  0.03722150  0.25000000  1
  Cl  Cl63  1  0.50000000  0.22388000  0.87918800  1
  Cl  Cl64  1  0.50000000  0.77612000  0.37918800  1
  Cl  Cl65  1  0.16104750  0.96277850  0.75000000  1
  Cl  Cl66  1  0.33958900  0.00000000  0.50000000  1
  Cl  Cl67  1  0.66041100  0.00000000  0.00000000  1
  Cl  Cl68  1  0.33958900  0.00000000  0.00000000  1
  Cl  Cl69  1  0.50000000  0.22388000  0.62081200  1
  Cl  Cl70  1  0.00000000  0.00000000  0.50000000  1
  Cl  Cl71  1  0.66041100  0.00000000  0.50000000  1
  Cl  Cl72  1  0.50000000  0.77612000  0.12081200  1
  Cl  Cl73  1  0.16104750  0.03722150  0.25000000  1
  Cl  Cl74  1  0.50000000  0.98750800  0.75000000  1
  Cl  Cl75  1  0.00000000  0.00000000  0.00000000  1
  Cl  Cl76  1  0.33895250  0.46277850  0.75000000  1
  Cl  Cl77  1  0.00000000  0.51249200  0.25000000  1
  Cl  Cl78  1  0.33895250  0.53722150  0.25000000  1
  Cl  Cl79  1  0.00000000  0.72388000  0.87918800  1
  Cl  Cl80  1  0.00000000  0.27612000  0.37918800  1
  Cl  Cl81  1  0.66104750  0.46277850  0.75000000  1
  Cl  Cl82  1  0.83958900  0.50000000  0.50000000  1
  Cl  Cl83  1  0.16041100  0.50000000  0.00000000  1
  Cl  Cl84  1  0.83958900  0.50000000  0.00000000  1
  Cl  Cl85  1  0.00000000  0.72388000  0.62081200  1
  Cl  Cl86  1  0.50000000  0.50000000  0.50000000  1
  Cl  Cl87  1  0.16041100  0.50000000  0.50000000  1
  Cl  Cl88  1  0.00000000  0.27612000  0.12081200  1
  Cl  Cl89  1  0.66104750  0.53722150  0.25000000  1
  Cl  Cl90  1  0.00000000  0.48750800  0.75000000  1
  Cl  Cl91  1  0.50000000  0.50000000  0.00000000  1
