# generated using pymatgen
data_BaLi2Ti6O14
_symmetry_space_group_name_H-M   'P 1'
_cell_length_a   11.40900000
_cell_length_b   16.74976600
_cell_length_c   11.67974300
_cell_angle_alpha   90.00000000
_cell_angle_beta   90.00000000
_cell_angle_gamma   90.00000000
_symmetry_Int_Tables_number   1
_chemical_formula_structural   BaLi2Ti6O14
_chemical_formula_sum   'Ba8 Li16 Ti48 O112'
_cell_volume   2231.97646563
_cell_formula_units_Z   8
loop_
 _symmetry_equiv_pos_site_id
 _symmetry_equiv_pos_as_xyz
  1  'x, y, z'
loop_
 _atom_site_type_symbol
 _atom_site_label
 _atom_site_symmetry_multiplicity
 _atom_site_fract_x
 _atom_site_fract_y
 _atom_site_fract_z
 _atom_site_occupancy
  Ba  Ba0  1  0.85494800  0.00000000  0.37932300  1
  Ba  Ba1  1  0.35494800  0.00000000  0.12067700  1
  Ba  Ba2  1  0.64505200  0.00000000  0.87932300  1
  Ba  Ba3  1  0.14505200  0.00000000  0.62067700  1
  Ba  Ba4  1  0.35494800  0.50000000  0.37932300  1
  Ba  Ba5  1  0.85494800  0.50000000  0.12067700  1
  Ba  Ba6  1  0.14505200  0.50000000  0.87932300  1
  Ba  Ba7  1  0.64505200  0.50000000  0.62067700  1
  Li  Li8  1  0.24505050  0.81059650  0.12108000  1
  Li  Li9  1  0.74505050  0.81059650  0.37892000  1
  Li  Li10  1  0.25494950  0.81059650  0.62108000  1
  Li  Li11  1  0.74505050  0.18940350  0.37892000  1
  Li  Li12  1  0.75494950  0.81059650  0.87892000  1
  Li  Li13  1  0.75494950  0.18940350  0.87892000  1
  Li  Li14  1  0.25494950  0.18940350  0.62108000  1
  Li  Li15  1  0.24505050  0.18940350  0.12108000  1
  Li  Li16  1  0.74505050  0.31059650  0.12108000  1
  Li  Li17  1  0.24505050  0.31059650  0.37892000  1
  Li  Li18  1  0.75494950  0.31059650  0.62108000  1
  Li  Li19  1  0.24505050  0.68940350  0.37892000  1
  Li  Li20  1  0.25494950  0.31059650  0.87892000  1
  Li  Li21  1  0.25494950  0.68940350  0.87892000  1
  Li  Li22  1  0.75494950  0.68940350  0.62108000  1
  Li  Li23  1  0.74505050  0.68940350  0.12108000  1
  Ti  Ti24  1  0.50000000  0.23747900  0.00000000  1
  Ti  Ti25  1  0.12993450  0.11058950  0.35696500  1
  Ti  Ti26  1  0.49349000  0.25000000  0.25000000  1
  Ti  Ti27  1  0.87006550  0.88941050  0.64303500  1
  Ti  Ti28  1  0.61541550  0.89091350  0.61361400  1
  Ti  Ti29  1  0.50651000  0.75000000  0.75000000  1
  Ti  Ti30  1  0.37006550  0.11058950  0.85696500  1
  Ti  Ti31  1  0.50651000  0.25000000  0.75000000  1
  Ti  Ti32  1  0.62993450  0.88941050  0.14303500  1
  Ti  Ti33  1  0.88458450  0.89091350  0.11361400  1
  Ti  Ti34  1  0.50000000  0.26252100  0.50000000  1
  Ti  Ti35  1  0.37006550  0.88941050  0.85696500  1
  Ti  Ti36  1  0.88458450  0.10908650  0.11361400  1
  Ti  Ti37  1  0.38458450  0.89091350  0.38638600  1
  Ti  Ti38  1  0.38458450  0.10908650  0.38638600  1
  Ti  Ti39  1  0.87006550  0.11058950  0.64303500  1
  Ti  Ti40  1  0.11541550  0.10908650  0.88638600  1
  Ti  Ti41  1  0.50000000  0.73747900  0.50000000  1
  Ti  Ti42  1  0.12993450  0.88941050  0.35696500  1
  Ti  Ti43  1  0.61541550  0.10908650  0.61361400  1
  Ti  Ti44  1  0.11541550  0.89091350  0.88638600  1
  Ti  Ti45  1  0.49349000  0.75000000  0.25000000  1
  Ti  Ti46  1  0.62993450  0.11058950  0.14303500  1
  Ti  Ti47  1  0.50000000  0.76252100  0.00000000  1
  Ti  Ti48  1  0.00000000  0.73747900  0.00000000  1
  Ti  Ti49  1  0.62993450  0.61058950  0.35696500  1
  Ti  Ti50  1  0.99349000  0.75000000  0.25000000  1
  Ti  Ti51  1  0.37006550  0.38941050  0.64303500  1
  Ti  Ti52  1  0.11541550  0.39091350  0.61361400  1
  Ti  Ti53  1  0.00651000  0.25000000  0.75000000  1
  Ti  Ti54  1  0.87006550  0.61058950  0.85696500  1
  Ti  Ti55  1  0.00651000  0.75000000  0.75000000  1
  Ti  Ti56  1  0.12993450  0.38941050  0.14303500  1
  Ti  Ti57  1  0.38458450  0.39091350  0.11361400  1
  Ti  Ti58  1  0.00000000  0.76252100  0.50000000  1
  Ti  Ti59  1  0.87006550  0.38941050  0.85696500  1
  Ti  Ti60  1  0.38458450  0.60908650  0.11361400  1
  Ti  Ti61  1  0.88458450  0.39091350  0.38638600  1
  Ti  Ti62  1  0.88458450  0.60908650  0.38638600  1
  Ti  Ti63  1  0.37006550  0.61058950  0.64303500  1
  Ti  Ti64  1  0.61541550  0.60908650  0.88638600  1
  Ti  Ti65  1  0.00000000  0.23747900  0.50000000  1
  Ti  Ti66  1  0.62993450  0.38941050  0.35696500  1
  Ti  Ti67  1  0.11541550  0.60908650  0.61361400  1
  Ti  Ti68  1  0.61541550  0.39091350  0.88638600  1
  Ti  Ti69  1  0.99349000  0.25000000  0.25000000  1
  Ti  Ti70  1  0.12993450  0.61058950  0.14303500  1
  Ti  Ti71  1  0.00000000  0.26252100  0.00000000  1
  O  O72  1  0.61300750  0.26582550  0.37219000  1
  O  O73  1  0.59614500  0.00000000  0.12656600  1
  O  O74  1  0.50000000  0.86717300  0.50000000  1
  O  O75  1  0.38699250  0.23417450  0.87219000  1
  O  O76  1  0.74518750  0.11357450  0.74016200  1
  O  O77  1  0.25040750  0.88661050  0.97999400  1
  O  O78  1  0.50176700  0.86784200  0.74871900  1
  O  O79  1  0.38599200  0.73837400  0.12197300  1
  O  O80  1  0.59578700  0.00000000  0.63002500  1
  O  O81  1  0.61400800  0.23837400  0.62197300  1
  O  O82  1  0.90421300  0.00000000  0.13002500  1
  O  O83  1  0.24959250  0.11338950  0.47999400  1
  O  O84  1  0.50176700  0.36784200  0.75128100  1
  O  O85  1  0.49823300  0.63215800  0.24871900  1
  O  O86  1  0.49823300  0.86784200  0.25128100  1
  O  O87  1  0.50000000  0.13282700  0.50000000  1
  O  O88  1  0.25481250  0.11357450  0.25983800  1
  O  O89  1  0.75481250  0.11357450  0.24016200  1
  O  O90  1  0.74959250  0.88661050  0.02000600  1
  O  O91  1  0.50000000  0.62780100  0.50000000  1
  O  O92  1  0.38599200  0.26162600  0.12197300  1
  O  O93  1  0.50000000  0.87219900  0.00000000  1
  O  O94  1  0.38699250  0.73417450  0.62781000  1
  O  O95  1  0.38699250  0.76582550  0.87219000  1
  O  O96  1  0.24518750  0.88642550  0.75983800  1
  O  O97  1  0.75040750  0.88661050  0.52000600  1
  O  O98  1  0.61300750  0.76582550  0.12781000  1
  O  O99  1  0.74959250  0.11338950  0.02000600  1
  O  O100  1  0.61300750  0.23417450  0.12781000  1
  O  O101  1  0.50176700  0.63215800  0.75128100  1
  O  O102  1  0.50000000  0.63282700  0.00000000  1
  O  O103  1  0.40421300  0.00000000  0.36997500  1
  O  O104  1  0.09578700  0.00000000  0.86997500  1
  O  O105  1  0.25040750  0.11338950  0.97999400  1
  O  O106  1  0.61400800  0.73837400  0.87802700  1
  O  O107  1  0.38599200  0.23837400  0.37802700  1
  O  O108  1  0.74518750  0.88642550  0.74016200  1
  O  O109  1  0.50176700  0.13215800  0.74871900  1
  O  O110  1  0.38699250  0.26582550  0.62781000  1
  O  O111  1  0.61400800  0.26162600  0.87802700  1
  O  O112  1  0.50000000  0.37219900  0.50000000  1
  O  O113  1  0.50000000  0.12780100  0.00000000  1
  O  O114  1  0.24959250  0.88661050  0.47999400  1
  O  O115  1  0.61400800  0.76162600  0.62197300  1
  O  O116  1  0.75481250  0.88642550  0.24016200  1
  O  O117  1  0.40385500  0.00000000  0.87343400  1
  O  O118  1  0.09614500  0.00000000  0.37343400  1
  O  O119  1  0.50000000  0.36717300  0.00000000  1
  O  O120  1  0.49823300  0.13215800  0.25128100  1
  O  O121  1  0.90385500  0.00000000  0.62656600  1
  O  O122  1  0.25481250  0.88642550  0.25983800  1
  O  O123  1  0.49823300  0.36784200  0.24871900  1
  O  O124  1  0.61300750  0.73417450  0.37219000  1
  O  O125  1  0.75040750  0.11338950  0.52000600  1
  O  O126  1  0.24518750  0.11357450  0.75983800  1
  O  O127  1  0.38599200  0.76162600  0.37802700  1
  O  O128  1  0.11300750  0.76582550  0.37219000  1
  O  O129  1  0.09614500  0.50000000  0.12656600  1
  O  O130  1  0.00000000  0.36717300  0.50000000  1
  O  O131  1  0.88699250  0.73417450  0.87219000  1
  O  O132  1  0.24518750  0.61357450  0.74016200  1
  O  O133  1  0.75040750  0.38661050  0.97999400  1
  O  O134  1  0.00176700  0.36784200  0.74871900  1
  O  O135  1  0.88599200  0.23837400  0.12197300  1
  O  O136  1  0.09578700  0.50000000  0.63002500  1
  O  O137  1  0.11400800  0.73837400  0.62197300  1
  O  O138  1  0.40421300  0.50000000  0.13002500  1
  O  O139  1  0.74959250  0.61338950  0.47999400  1
  O  O140  1  0.00176700  0.86784200  0.75128100  1
  O  O141  1  0.99823300  0.13215800  0.24871900  1
  O  O142  1  0.99823300  0.36784200  0.25128100  1
  O  O143  1  0.00000000  0.63282700  0.50000000  1
  O  O144  1  0.75481250  0.61357450  0.25983800  1
  O  O145  1  0.25481250  0.61357450  0.24016200  1
  O  O146  1  0.24959250  0.38661050  0.02000600  1
  O  O147  1  0.00000000  0.12780100  0.50000000  1
  O  O148  1  0.88599200  0.76162600  0.12197300  1
  O  O149  1  0.00000000  0.37219900  0.00000000  1
  O  O150  1  0.88699250  0.23417450  0.62781000  1
  O  O151  1  0.88699250  0.26582550  0.87219000  1
  O  O152  1  0.74518750  0.38642550  0.75983800  1
  O  O153  1  0.25040750  0.38661050  0.52000600  1
  O  O154  1  0.11300750  0.26582550  0.12781000  1
  O  O155  1  0.24959250  0.61338950  0.02000600  1
  O  O156  1  0.11300750  0.73417450  0.12781000  1
  O  O157  1  0.00176700  0.13215800  0.75128100  1
  O  O158  1  0.00000000  0.13282700  0.00000000  1
  O  O159  1  0.90421300  0.50000000  0.36997500  1
  O  O160  1  0.59578700  0.50000000  0.86997500  1
  O  O161  1  0.75040750  0.61338950  0.97999400  1
  O  O162  1  0.11400800  0.23837400  0.87802700  1
  O  O163  1  0.88599200  0.73837400  0.37802700  1
  O  O164  1  0.24518750  0.38642550  0.74016200  1
  O  O165  1  0.00176700  0.63215800  0.74871900  1
  O  O166  1  0.88699250  0.76582550  0.62781000  1
  O  O167  1  0.11400800  0.76162600  0.87802700  1
  O  O168  1  0.00000000  0.87219900  0.50000000  1
  O  O169  1  0.00000000  0.62780100  0.00000000  1
  O  O170  1  0.74959250  0.38661050  0.47999400  1
  O  O171  1  0.11400800  0.26162600  0.62197300  1
  O  O172  1  0.25481250  0.38642550  0.24016200  1
  O  O173  1  0.90385500  0.50000000  0.87343400  1
  O  O174  1  0.59614500  0.50000000  0.37343400  1
  O  O175  1  0.00000000  0.86717300  0.00000000  1
  O  O176  1  0.99823300  0.63215800  0.25128100  1
  O  O177  1  0.40385500  0.50000000  0.62656600  1
  O  O178  1  0.75481250  0.38642550  0.25983800  1
  O  O179  1  0.99823300  0.86784200  0.24871900  1
  O  O180  1  0.11300750  0.23417450  0.37219000  1
  O  O181  1  0.25040750  0.61338950  0.52000600  1
  O  O182  1  0.74518750  0.61357450  0.75983800  1
  O  O183  1  0.88599200  0.26162600  0.37802700  1
