# generated using pymatgen
data_BaLi(BS2)3
_symmetry_space_group_name_H-M   'P 1'
_cell_length_a   15.30558600
_cell_length_b   8.92755200
_cell_length_c   8.42972128
_cell_angle_alpha   90.00000000
_cell_angle_beta   117.79186795
_cell_angle_gamma   90.00000000
_symmetry_Int_Tables_number   1
_chemical_formula_structural   BaLi(BS2)3
_chemical_formula_sum   'Ba4 Li4 B12 S24'
_cell_volume   1018.97998598
_cell_formula_units_Z   4
loop_
 _symmetry_equiv_pos_site_id
 _symmetry_equiv_pos_as_xyz
  1  'x, y, z'
loop_
 _atom_site_type_symbol
 _atom_site_label
 _atom_site_symmetry_multiplicity
 _atom_site_fract_x
 _atom_site_fract_y
 _atom_site_fract_z
 _atom_site_occupancy
  Ba  Ba0  1  0.25919150  0.87799550  0.02503300  1
  Ba  Ba1  1  0.25919150  0.12200450  0.52503300  1
  Ba  Ba2  1  0.75919150  0.37799550  0.02503300  1
  Ba  Ba3  1  0.75919150  0.62200450  0.52503300  1
  Li  Li4  1  0.60128300  0.89760700  0.06886000  1
  Li  Li5  1  0.60128300  0.10239300  0.56886000  1
  Li  Li6  1  0.10128300  0.39760700  0.06886000  1
  Li  Li7  1  0.10128300  0.60239300  0.56886000  1
  B  B8  1  0.79950700  0.04325100  0.45306400  1
  B  B9  1  0.79950700  0.95674900  0.95306400  1
  B  B10  1  0.01823250  0.00232850  0.55059200  1
  B  B11  1  0.01823250  0.99767150  0.05059200  1
  B  B12  1  0.42939450  0.81550750  0.47698300  1
  B  B13  1  0.42939450  0.18449250  0.97698300  1
  B  B14  1  0.29950700  0.54325100  0.45306400  1
  B  B15  1  0.29950700  0.45674900  0.95306400  1
  B  B16  1  0.51823250  0.50232850  0.55059200  1
  B  B17  1  0.51823250  0.49767150  0.05059200  1
  B  B18  1  0.92939450  0.31550750  0.47698300  1
  B  B19  1  0.92939450  0.68449250  0.97698300  1
  S  S20  1  0.42876950  0.99213450  0.91962600  1
  S  S21  1  0.54165150  0.70346050  0.56006300  1
  S  S22  1  0.89987700  0.08670000  0.99422800  1
  S  S23  1  0.30801600  0.25267800  0.93859700  1
  S  S24  1  0.68466800  0.96321000  0.41468500  1
  S  S25  1  0.42876950  0.00786550  0.41962600  1
  S  S26  1  0.30801600  0.74732200  0.43859700  1
  S  S27  1  0.89987700  0.91330000  0.49422800  1
  S  S28  1  0.12200950  0.88451650  0.59476800  1
  S  S29  1  0.12200950  0.11548350  0.09476800  1
  S  S30  1  0.68466800  0.03679000  0.91468500  1
  S  S31  1  0.54165150  0.29653950  0.06006300  1
  S  S32  1  0.92876950  0.49213450  0.91962600  1
  S  S33  1  0.04165150  0.20346050  0.56006300  1
  S  S34  1  0.39987700  0.58670000  0.99422800  1
  S  S35  1  0.80801600  0.75267800  0.93859700  1
  S  S36  1  0.18466800  0.46321000  0.41468500  1
  S  S37  1  0.92876950  0.50786550  0.41962600  1
  S  S38  1  0.80801600  0.24732200  0.43859700  1
  S  S39  1  0.39987700  0.41330000  0.49422800  1
  S  S40  1  0.62200950  0.38451650  0.59476800  1
  S  S41  1  0.62200950  0.61548350  0.09476800  1
  S  S42  1  0.18466800  0.53679000  0.91468500  1
  S  S43  1  0.04165150  0.79653950  0.06006300  1
