# generated using pymatgen
data_Er2Te4O11
_symmetry_space_group_name_H-M   'P 1'
_cell_length_a   12.42839000
_cell_length_b   5.14403800
_cell_length_c   16.25693941
_cell_angle_alpha   90.00000000
_cell_angle_beta   105.29184399
_cell_angle_gamma   90.00000000
_symmetry_Int_Tables_number   1
_chemical_formula_structural   Er2Te4O11
_chemical_formula_sum   'Er8 Te16 O44'
_cell_volume   1002.54256722
_cell_formula_units_Z   4
loop_
 _symmetry_equiv_pos_site_id
 _symmetry_equiv_pos_as_xyz
  1  'x, y, z'
loop_
 _atom_site_type_symbol
 _atom_site_label
 _atom_site_symmetry_multiplicity
 _atom_site_fract_x
 _atom_site_fract_y
 _atom_site_fract_z
 _atom_site_occupancy
  Er  Er0  1  0.38047150  0.74907650  0.96296200  1
  Er  Er1  1  0.61952850  0.25092350  0.03703800  1
  Er  Er2  1  0.88047150  0.75092350  0.46296200  1
  Er  Er3  1  0.11952850  0.24907650  0.53703800  1
  Er  Er4  1  0.88047150  0.24907650  0.96296200  1
  Er  Er5  1  0.11952850  0.75092350  0.03703800  1
  Er  Er6  1  0.38047150  0.25092350  0.46296200  1
  Er  Er7  1  0.61952850  0.74907650  0.53703800  1
  Te  Te8  1  0.12753400  0.28284700  0.87505400  1
  Te  Te9  1  0.37786350  0.21998450  0.80218500  1
  Te  Te10  1  0.87246600  0.28284700  0.62494600  1
  Te  Te11  1  0.62213650  0.78001550  0.19781500  1
  Te  Te12  1  0.87786350  0.28001550  0.30218500  1
  Te  Te13  1  0.87246600  0.71715300  0.12494600  1
  Te  Te14  1  0.12753400  0.71715300  0.37505400  1
  Te  Te15  1  0.12213650  0.71998450  0.69781500  1
  Te  Te16  1  0.62753400  0.78284700  0.87505400  1
  Te  Te17  1  0.87786350  0.71998450  0.80218500  1
  Te  Te18  1  0.37246600  0.78284700  0.62494600  1
  Te  Te19  1  0.12213650  0.28001550  0.19781500  1
  Te  Te20  1  0.37786350  0.78001550  0.30218500  1
  Te  Te21  1  0.37246600  0.21715300  0.12494600  1
  Te  Te22  1  0.62753400  0.21715300  0.37505400  1
  Te  Te23  1  0.62213650  0.21998450  0.69781500  1
  O  O24  1  0.85078850  0.94160550  0.33359900  1
  O  O25  1  0.74699050  0.93805650  0.12711200  1
  O  O26  1  0.25300950  0.06194350  0.87288800  1
  O  O27  1  0.79216200  0.54665400  0.55162700  1
  O  O28  1  0.64921150  0.44160550  0.16640100  1
  O  O29  1  0.75300950  0.43805650  0.37288800  1
  O  O30  1  0.14921150  0.05839450  0.66640100  1
  O  O31  1  0.93122850  0.89527950  0.04437100  1
  O  O32  1  0.93122850  0.10472050  0.54437100  1
  O  O33  1  0.79216200  0.45334600  0.05162700  1
  O  O34  1  0.20783800  0.54665400  0.94837300  1
  O  O35  1  0.00000000  0.14564200  0.25000000  1
  O  O36  1  0.97581400  0.57501500  0.90475300  1
  O  O37  1  0.24699050  0.56194350  0.62711200  1
  O  O38  1  0.02418600  0.42498500  0.09524700  1
  O  O39  1  0.97581400  0.42498500  0.40475300  1
  O  O40  1  0.00000000  0.85435800  0.75000000  1
  O  O41  1  0.02418600  0.57501500  0.59524700  1
  O  O42  1  0.20783800  0.45334600  0.44837300  1
  O  O43  1  0.06877150  0.89527950  0.45562900  1
  O  O44  1  0.06877150  0.10472050  0.95562900  1
  O  O45  1  0.35078850  0.55839450  0.83359900  1
  O  O46  1  0.35078850  0.44160550  0.33359900  1
  O  O47  1  0.24699050  0.43805650  0.12711200  1
  O  O48  1  0.75300950  0.56194350  0.87288800  1
  O  O49  1  0.29216200  0.04665400  0.55162700  1
  O  O50  1  0.14921150  0.94160550  0.16640100  1
  O  O51  1  0.25300950  0.93805650  0.37288800  1
  O  O52  1  0.64921150  0.55839450  0.66640100  1
  O  O53  1  0.43122850  0.39527950  0.04437100  1
  O  O54  1  0.43122850  0.60472050  0.54437100  1
  O  O55  1  0.29216200  0.95334600  0.05162700  1
  O  O56  1  0.70783800  0.04665400  0.94837300  1
  O  O57  1  0.50000000  0.64564200  0.25000000  1
  O  O58  1  0.47581400  0.07501500  0.90475300  1
  O  O59  1  0.74699050  0.06194350  0.62711200  1
  O  O60  1  0.52418600  0.92498500  0.09524700  1
  O  O61  1  0.47581400  0.92498500  0.40475300  1
  O  O62  1  0.50000000  0.35435800  0.75000000  1
  O  O63  1  0.52418600  0.07501500  0.59524700  1
  O  O64  1  0.70783800  0.95334600  0.44837300  1
  O  O65  1  0.56877150  0.39527950  0.45562900  1
  O  O66  1  0.56877150  0.60472050  0.95562900  1
  O  O67  1  0.85078850  0.05839450  0.83359900  1
