# generated using pymatgen
data_CsS2N(O2F)2
_symmetry_space_group_name_H-M   'P 1'
_cell_length_a   8.11631800
_cell_length_b   8.69918900
_cell_length_c   12.39888505
_cell_angle_alpha   90.00000000
_cell_angle_beta   120.78136816
_cell_angle_gamma   90.00000000
_symmetry_Int_Tables_number   1
_chemical_formula_structural   CsS2N(O2F)2
_chemical_formula_sum   'Cs4 S8 N4 O16 F8'
_cell_volume   752.10330973
_cell_formula_units_Z   4
loop_
 _symmetry_equiv_pos_site_id
 _symmetry_equiv_pos_as_xyz
  1  'x, y, z'
loop_
 _atom_site_type_symbol
 _atom_site_label
 _atom_site_symmetry_multiplicity
 _atom_site_fract_x
 _atom_site_fract_y
 _atom_site_fract_z
 _atom_site_occupancy
  Cs  Cs0  1  0.23302000  0.75612400  0.08832900  1
  Cs  Cs1  1  0.76698000  0.25612400  0.41167100  1
  Cs  Cs2  1  0.76698000  0.24387600  0.91167100  1
  Cs  Cs3  1  0.23302000  0.74387600  0.58832900  1
  S  S4  1  0.64310600  0.81245500  0.46156500  1
  S  S5  1  0.35689400  0.31245500  0.03843500  1
  S  S6  1  0.35689400  0.18754500  0.53843500  1
  S  S7  1  0.64310600  0.68754500  0.96156500  1
  S  S8  1  0.79123300  0.60222400  0.65648400  1
  S  S9  1  0.20876700  0.10222400  0.84351600  1
  S  S10  1  0.20876700  0.39777600  0.34351600  1
  S  S11  1  0.79123300  0.89777600  0.15648400  1
  N  N12  1  0.61927800  0.70790500  0.55767800  1
  N  N13  1  0.38072200  0.20790500  0.94232200  1
  N  N14  1  0.38072200  0.29209500  0.44232200  1
  N  N15  1  0.61927800  0.79209500  0.05767800  1
  O  O16  1  0.82029100  0.89754000  0.51414800  1
  O  O17  1  0.17970900  0.39754000  0.98585200  1
  O  O18  1  0.17970900  0.10246000  0.48585200  1
  O  O19  1  0.82029100  0.60246000  0.01414800  1
  O  O20  1  0.46470000  0.88911600  0.38079600  1
  O  O21  1  0.53530000  0.38911600  0.11920400  1
  O  O22  1  0.53530000  0.11088400  0.61920400  1
  O  O23  1  0.46470000  0.61088400  0.88079600  1
  O  O24  1  0.71949800  0.50678200  0.71755300  1
  O  O25  1  0.28050200  0.00678200  0.78244700  1
  O  O26  1  0.28050200  0.49321800  0.28244700  1
  O  O27  1  0.71949800  0.99321800  0.21755300  1
  O  O28  1  0.91036500  0.53729200  0.61300800  1
  O  O29  1  0.08963500  0.03729200  0.88699200  1
  O  O30  1  0.08963500  0.46270800  0.38699200  1
  O  O31  1  0.91036500  0.96270800  0.11300800  1
  F  F32  1  0.66083300  0.68799000  0.36909900  1
  F  F33  1  0.33916700  0.18799000  0.13090100  1
  F  F34  1  0.33916700  0.31201000  0.63090100  1
  F  F35  1  0.66083300  0.81201000  0.86909900  1
  F  F36  1  0.93232300  0.72352700  0.76360400  1
  F  F37  1  0.06767700  0.22352700  0.73639600  1
  F  F38  1  0.06767700  0.27647300  0.23639600  1
  F  F39  1  0.93232300  0.77647300  0.26360400  1
