# generated using pymatgen
data_Ca2P2H8O11
_symmetry_space_group_name_H-M   'P 1'
_cell_length_a   5.97329600
_cell_length_b   25.27542300
_cell_length_c   6.96477510
_cell_angle_alpha   90.00000000
_cell_angle_beta   109.71574948
_cell_angle_gamma   90.00000000
_symmetry_Int_Tables_number   1
_chemical_formula_structural   Ca2P2H8O11
_chemical_formula_sum   'Ca8 P8 H32 O44'
_cell_volume   989.88225896
_cell_formula_units_Z   4
loop_
 _symmetry_equiv_pos_site_id
 _symmetry_equiv_pos_as_xyz
  1  'x, y, z'
loop_
 _atom_site_type_symbol
 _atom_site_label
 _atom_site_symmetry_multiplicity
 _atom_site_fract_x
 _atom_site_fract_y
 _atom_site_fract_z
 _atom_site_occupancy
  Ca  Ca0  1  0.10629600  0.70536900  0.60227000  1
  Ca  Ca1  1  0.89370400  0.29463100  0.39773000  1
  Ca  Ca2  1  0.19510900  0.04242100  0.39524800  1
  Ca  Ca3  1  0.10629600  0.79463100  0.10227000  1
  Ca  Ca4  1  0.89370400  0.20536900  0.89773000  1
  Ca  Ca5  1  0.19510900  0.45757900  0.89524800  1
  Ca  Ca6  1  0.80489100  0.54242100  0.10475200  1
  Ca  Ca7  1  0.80489100  0.95757900  0.60475200  1
  P  P8  1  0.07605300  0.66671800  0.08992200  1
  P  P9  1  0.92394700  0.16671800  0.41007800  1
  P  P10  1  0.92394700  0.33328200  0.91007800  1
  P  P11  1  0.19336200  0.58143700  0.85503000  1
  P  P12  1  0.80663800  0.08143700  0.64497000  1
  P  P13  1  0.19336200  0.91856300  0.35503000  1
  P  P14  1  0.07605300  0.83328200  0.58992200  1
  P  P15  1  0.80663800  0.41856300  0.14497000  1
  H  H16  1  0.53370700  0.81292600  0.86503200  1
  H  H17  1  0.61267500  0.82668800  0.37026200  1
  H  H18  1  0.38304700  0.26757100  0.19531200  1
  H  H19  1  0.61695300  0.76757100  0.30468800  1
  H  H20  1  0.38304700  0.23242900  0.69531200  1
  H  H21  1  0.19728800  0.92589200  0.98817600  1
  H  H22  1  0.21298200  0.42303900  0.48920000  1
  H  H23  1  0.78701800  0.92303900  0.01080000  1
  H  H24  1  0.38732500  0.32668800  0.12973800  1
  H  H25  1  0.19728800  0.57410800  0.48817600  1
  H  H26  1  0.21298200  0.07696100  0.98920000  1
  H  H27  1  0.75808500  0.48667600  0.54402100  1
  H  H28  1  0.71742800  0.82936900  0.75397200  1
  H  H29  1  0.46629300  0.18707400  0.13496800  1
  H  H30  1  0.80271200  0.42589200  0.51182400  1
  H  H31  1  0.75808500  0.01332400  0.04402100  1
  H  H32  1  0.28257200  0.17063100  0.24602800  1
  H  H33  1  0.46629300  0.31292600  0.63496800  1
  H  H34  1  0.24191500  0.98667600  0.95597900  1
  H  H35  1  0.80271200  0.07410800  0.01182400  1
  H  H36  1  0.48027700  0.44343300  0.60351000  1
  H  H37  1  0.51972300  0.55656700  0.39649000  1
  H  H38  1  0.53370700  0.68707400  0.36503200  1
  H  H39  1  0.71742800  0.67063100  0.25397200  1
  H  H40  1  0.24191500  0.51332400  0.45597900  1
  H  H41  1  0.78701800  0.57696100  0.51080000  1
  H  H42  1  0.51972300  0.94343300  0.89649000  1
  H  H43  1  0.48027700  0.05656700  0.10351000  1
  H  H44  1  0.38732500  0.17331200  0.62973800  1
  H  H45  1  0.61695300  0.73242900  0.80468800  1
  H  H46  1  0.28257200  0.32936900  0.74602800  1
  H  H47  1  0.61267500  0.67331200  0.87026200  1
  O  O48  1  0.68985000  0.94815200  0.90821500  1
  O  O49  1  0.21237200  0.68890400  0.30174700  1
  O  O50  1  0.84608300  0.63748300  0.08030200  1
  O  O51  1  0.10973500  0.61342900  0.65565100  1
  O  O52  1  0.78470300  0.04815300  0.11408300  1
  O  O53  1  0.99862600  0.95618700  0.37007100  1
  O  O54  1  0.48505300  0.29917900  0.22096500  1
  O  O55  1  0.69934300  0.69238400  0.36664500  1
  O  O56  1  0.68985000  0.55184800  0.40821500  1
  O  O57  1  0.00137400  0.45618700  0.12992900  1
  O  O58  1  0.21529700  0.95184700  0.88591700  1
  O  O59  1  0.51494700  0.70082100  0.77903500  1
  O  O60  1  0.51494700  0.79917900  0.27903500  1
  O  O61  1  0.74498300  0.12335200  0.45571600  1
  O  O62  1  0.96543400  0.20998800  0.57387800  1
  O  O63  1  0.00137400  0.04381300  0.62992900  1
  O  O64  1  0.78762800  0.31109600  0.69825300  1
  O  O65  1  0.03456600  0.79001200  0.42612200  1
  O  O66  1  0.42097800  0.94990200  0.38767100  1
  O  O67  1  0.96543400  0.29001200  0.07387800  1
  O  O68  1  0.10973500  0.88657100  0.15565100  1
  O  O69  1  0.30065700  0.19238400  0.13335500  1
  O  O70  1  0.74498300  0.37664800  0.95571600  1
  O  O71  1  0.69934300  0.80761600  0.86664500  1
  O  O72  1  0.15391700  0.36251700  0.91969800  1
  O  O73  1  0.31015000  0.05184800  0.09178500  1
  O  O74  1  0.25501700  0.87664800  0.54428400  1
  O  O75  1  0.30065700  0.30761600  0.63335500  1
  O  O76  1  0.03456600  0.70998800  0.92612200  1
  O  O77  1  0.42097800  0.55009800  0.88767100  1
  O  O78  1  0.25501700  0.62335200  0.04428400  1
  O  O79  1  0.31015000  0.44815200  0.59178500  1
  O  O80  1  0.78762800  0.18890400  0.19825300  1
  O  O81  1  0.48505300  0.20082100  0.72096500  1
  O  O82  1  0.15391700  0.13748300  0.41969800  1
  O  O83  1  0.57902200  0.44990200  0.11232900  1
  O  O84  1  0.21529700  0.54815300  0.38591700  1
  O  O85  1  0.99862600  0.54381300  0.87007100  1
  O  O86  1  0.21237200  0.81109600  0.80174700  1
  O  O87  1  0.89026500  0.38657100  0.34434900  1
  O  O88  1  0.57902200  0.05009800  0.61232900  1
  O  O89  1  0.84608300  0.86251700  0.58030200  1
  O  O90  1  0.78470300  0.45184700  0.61408300  1
  O  O91  1  0.89026500  0.11342900  0.84434900  1
