# generated using pymatgen
data_Na2Tl2B10O17
_symmetry_space_group_name_H-M   'P 1'
_cell_length_a   22.13983600
_cell_length_b   6.52930000
_cell_length_c   11.08833441
_cell_angle_alpha   90.00000000
_cell_angle_beta   104.90637159
_cell_angle_gamma   90.00000000
_symmetry_Int_Tables_number   1
_chemical_formula_structural   Na2Tl2B10O17
_chemical_formula_sum   'Na8 Tl8 B40 O68'
_cell_volume   1548.96161686
_cell_formula_units_Z   4
loop_
 _symmetry_equiv_pos_site_id
 _symmetry_equiv_pos_as_xyz
  1  'x, y, z'
loop_
 _atom_site_type_symbol
 _atom_site_label
 _atom_site_symmetry_multiplicity
 _atom_site_fract_x
 _atom_site_fract_y
 _atom_site_fract_z
 _atom_site_occupancy
  Na  Na0  1  0.23322000  0.94716600  0.68474300  1
  Na  Na1  1  0.23322000  0.05283400  0.18474300  1
  Na  Na2  1  0.26678000  0.55283400  0.31525700  1
  Na  Na3  1  0.26678000  0.44716600  0.81525700  1
  Na  Na4  1  0.73322000  0.44716600  0.68474300  1
  Na  Na5  1  0.73322000  0.55283400  0.18474300  1
  Na  Na6  1  0.76678000  0.05283400  0.31525700  1
  Na  Na7  1  0.76678000  0.94716600  0.81525700  1
  Tl  Tl8  1  0.06828450  0.80682450  0.57827000  1
  Tl  Tl9  1  0.43171550  0.69317550  0.42173000  1
  Tl  Tl10  1  0.43171550  0.30682450  0.92173000  1
  Tl  Tl11  1  0.06828450  0.19317550  0.07827000  1
  Tl  Tl12  1  0.56828450  0.30682450  0.57827000  1
  Tl  Tl13  1  0.93171550  0.19317550  0.42173000  1
  Tl  Tl14  1  0.93171550  0.80682450  0.92173000  1
  Tl  Tl15  1  0.56828450  0.69317550  0.07827000  1
  B  B16  1  0.35698900  0.16901600  0.36461800  1
  B  B17  1  0.15276000  0.86455700  0.34096900  1
  B  B18  1  0.44521850  0.82022750  0.76398300  1
  B  B19  1  0.16199500  0.77112200  0.92816700  1
  B  B20  1  0.34724000  0.63544300  0.65903100  1
  B  B21  1  0.05478150  0.67977250  0.23601700  1
  B  B22  1  0.18116500  0.57955200  0.49905400  1
  B  B23  1  0.14301100  0.33098400  0.63538200  1
  B  B24  1  0.33800500  0.72887800  0.07183300  1
  B  B25  1  0.31883500  0.92044800  0.50094600  1
  B  B26  1  0.05478150  0.32022750  0.73601700  1
  B  B27  1  0.16199500  0.22887800  0.42816700  1
  B  B28  1  0.15276000  0.13544300  0.84096900  1
  B  B29  1  0.34724000  0.36455700  0.15903100  1
  B  B30  1  0.18116500  0.42044800  0.99905400  1
  B  B31  1  0.33800500  0.27112200  0.57183300  1
  B  B32  1  0.44521850  0.17977250  0.26398300  1
  B  B33  1  0.14301100  0.66901600  0.13538200  1
  B  B34  1  0.35698900  0.83098400  0.86461800  1
  B  B35  1  0.31883500  0.07955200  0.00094600  1
  B  B36  1  0.85698900  0.66901600  0.36461800  1
  B  B37  1  0.65276000  0.36455700  0.34096900  1
  B  B38  1  0.94521850  0.32022750  0.76398300  1
  B  B39  1  0.66199500  0.27112200  0.92816700  1
  B  B40  1  0.84724000  0.13544300  0.65903100  1
  B  B41  1  0.55478150  0.17977250  0.23601700  1
  B  B42  1  0.68116500  0.07955200  0.49905400  1
  B  B43  1  0.64301100  0.83098400  0.63538200  1
  B  B44  1  0.83800500  0.22887800  0.07183300  1
  B  B45  1  0.81883500  0.42044800  0.50094600  1
  B  B46  1  0.55478150  0.82022750  0.73601700  1
  B  B47  1  0.66199500  0.72887800  0.42816700  1
  B  B48  1  0.65276000  0.63544300  0.84096900  1
  B  B49  1  0.84724000  0.86455700  0.15903100  1
  B  B50  1  0.68116500  0.92044800  0.99905400  1
  B  B51  1  0.83800500  0.77112200  0.57183300  1
  B  B52  1  0.94521850  0.67977250  0.26398300  1
  B  B53  1  0.64301100  0.16901600  0.13538200  1
  B  B54  1  0.85698900  0.33098400  0.86461800  1
  B  B55  1  0.81883500  0.57955200  0.00094600  1
  O  O56  1  0.00000000  0.59246400  0.25000000  1
  O  O57  1  0.42102700  0.10932800  0.35809900  1
  O  O58  1  0.17892350  0.76969150  0.24707600  1
  O  O59  1  0.18205150  0.78297650  0.46959200  1
  O  O60  1  0.42102700  0.89067200  0.85809900  1
  O  O61  1  0.41603950  0.67247550  0.68147400  1
  O  O62  1  0.31794850  0.28297650  0.03040800  1
  O  O63  1  0.07897300  0.60932800  0.14190100  1
  O  O64  1  0.18205150  0.21702350  0.96959200  1
  O  O65  1  0.31794850  0.71702350  0.53040800  1
  O  O66  1  0.36229350  0.31063950  0.47283000  1
  O  O67  1  0.17403250  0.47218550  0.11469000  1
  O  O68  1  0.08396050  0.82752450  0.31852600  1
  O  O69  1  0.36229350  0.68936050  0.97283000  1
  O  O70  1  0.32107650  0.26969150  0.25292400  1
  O  O71  1  0.33447450  0.41202750  0.66078900  1
  O  O72  1  0.31522750  0.92629650  0.08680200  1
  O  O73  1  0.41603950  0.32752450  0.18147400  1
  O  O74  1  0.17892350  0.23030850  0.74707600  1
  O  O75  1  0.33447450  0.58797250  0.16078900  1
  O  O76  1  0.07897300  0.39067200  0.64190100  1
  O  O77  1  0.13770650  0.18936050  0.52717000  1
  O  O78  1  0.00000000  0.40753600  0.75000000  1
  O  O79  1  0.31522750  0.07370350  0.58680200  1
  O  O80  1  0.17403250  0.52781450  0.61469000  1
  O  O81  1  0.13770650  0.81063950  0.02717000  1
  O  O82  1  0.16552550  0.08797250  0.33921100  1
  O  O83  1  0.32596750  0.97218550  0.38531000  1
  O  O84  1  0.32107650  0.73030850  0.75292400  1
  O  O85  1  0.16552550  0.91202750  0.83921100  1
  O  O86  1  0.32596750  0.02781450  0.88531000  1
  O  O87  1  0.08396050  0.17247550  0.81852600  1
  O  O88  1  0.18477250  0.42629650  0.41319800  1
  O  O89  1  0.18477250  0.57370350  0.91319800  1
  O  O90  1  0.50000000  0.09246400  0.25000000  1
  O  O91  1  0.92102700  0.60932800  0.35809900  1
  O  O92  1  0.67892350  0.26969150  0.24707600  1
  O  O93  1  0.68205150  0.28297650  0.46959200  1
  O  O94  1  0.92102700  0.39067200  0.85809900  1
  O  O95  1  0.91603950  0.17247550  0.68147400  1
  O  O96  1  0.81794850  0.78297650  0.03040800  1
  O  O97  1  0.57897300  0.10932800  0.14190100  1
  O  O98  1  0.68205150  0.71702350  0.96959200  1
  O  O99  1  0.81794850  0.21702350  0.53040800  1
  O  O100  1  0.86229350  0.81063950  0.47283000  1
  O  O101  1  0.67403250  0.97218550  0.11469000  1
  O  O102  1  0.58396050  0.32752450  0.31852600  1
  O  O103  1  0.86229350  0.18936050  0.97283000  1
  O  O104  1  0.82107650  0.76969150  0.25292400  1
  O  O105  1  0.83447450  0.91202750  0.66078900  1
  O  O106  1  0.81522750  0.42629650  0.08680200  1
  O  O107  1  0.91603950  0.82752450  0.18147400  1
  O  O108  1  0.67892350  0.73030850  0.74707600  1
  O  O109  1  0.83447450  0.08797250  0.16078900  1
  O  O110  1  0.57897300  0.89067200  0.64190100  1
  O  O111  1  0.63770650  0.68936050  0.52717000  1
  O  O112  1  0.50000000  0.90753600  0.75000000  1
  O  O113  1  0.81522750  0.57370350  0.58680200  1
  O  O114  1  0.67403250  0.02781450  0.61469000  1
  O  O115  1  0.63770650  0.31063950  0.02717000  1
  O  O116  1  0.66552550  0.58797250  0.33921100  1
  O  O117  1  0.82596750  0.47218550  0.38531000  1
  O  O118  1  0.82107650  0.23030850  0.75292400  1
  O  O119  1  0.66552550  0.41202750  0.83921100  1
  O  O120  1  0.82596750  0.52781450  0.88531000  1
  O  O121  1  0.58396050  0.67247550  0.81852600  1
  O  O122  1  0.68477250  0.92629650  0.41319800  1
  O  O123  1  0.68477250  0.07370350  0.91319800  1
