# generated using pymatgen
data_Pr4Ge3
_symmetry_space_group_name_H-M   'P 1'
_cell_length_a   9.25557200
_cell_length_b   9.25557200
_cell_length_c   9.25557200
_cell_angle_alpha   90.00000000
_cell_angle_beta   90.00000000
_cell_angle_gamma   90.00000000
_symmetry_Int_Tables_number   1
_chemical_formula_structural   Pr4Ge3
_chemical_formula_sum   'Pr16 Ge12'
_cell_volume   792.88424948
_cell_formula_units_Z   4
loop_
 _symmetry_equiv_pos_site_id
 _symmetry_equiv_pos_as_xyz
  1  'x, y, z'
loop_
 _atom_site_type_symbol
 _atom_site_label
 _atom_site_symmetry_multiplicity
 _atom_site_fract_x
 _atom_site_fract_y
 _atom_site_fract_z
 _atom_site_occupancy
  Pr  Pr0  1  0.18326800  0.81673200  0.31673200  1
  Pr  Pr1  1  0.93326800  0.06673200  0.56673200  1
  Pr  Pr2  1  0.06673200  0.56673200  0.93326800  1
  Pr  Pr3  1  0.18326800  0.18326800  0.18326800  1
  Pr  Pr4  1  0.81673200  0.31673200  0.18326800  1
  Pr  Pr5  1  0.56673200  0.93326800  0.06673200  1
  Pr  Pr6  1  0.43326800  0.43326800  0.43326800  1
  Pr  Pr7  1  0.31673200  0.18326800  0.81673200  1
  Pr  Pr8  1  0.68326800  0.31673200  0.81673200  1
  Pr  Pr9  1  0.43326800  0.56673200  0.06673200  1
  Pr  Pr10  1  0.56673200  0.06673200  0.43326800  1
  Pr  Pr11  1  0.68326800  0.68326800  0.68326800  1
  Pr  Pr12  1  0.31673200  0.81673200  0.68326800  1
  Pr  Pr13  1  0.06673200  0.43326800  0.56673200  1
  Pr  Pr14  1  0.93326800  0.93326800  0.93326800  1
  Pr  Pr15  1  0.81673200  0.68326800  0.31673200  1
  Ge  Ge16  1  0.50000000  0.25000000  0.12500000  1
  Ge  Ge17  1  0.75000000  0.37500000  0.50000000  1
  Ge  Ge18  1  0.25000000  0.12500000  0.50000000  1
  Ge  Ge19  1  0.50000000  0.75000000  0.37500000  1
  Ge  Ge20  1  0.37500000  0.50000000  0.75000000  1
  Ge  Ge21  1  0.12500000  0.50000000  0.25000000  1
  Ge  Ge22  1  0.00000000  0.75000000  0.62500000  1
  Ge  Ge23  1  0.25000000  0.87500000  0.00000000  1
  Ge  Ge24  1  0.75000000  0.62500000  0.00000000  1
  Ge  Ge25  1  0.00000000  0.25000000  0.87500000  1
  Ge  Ge26  1  0.87500000  0.00000000  0.25000000  1
  Ge  Ge27  1  0.62500000  0.00000000  0.75000000  1
