# generated using pymatgen
data_Nd3Si2ClO8
_symmetry_space_group_name_H-M   'P 1'
_cell_length_a   14.29908800
_cell_length_b   6.45651600
_cell_length_c   8.82415589
_cell_angle_alpha   90.00000000
_cell_angle_beta   98.18787086
_cell_angle_gamma   90.00000000
_symmetry_Int_Tables_number   1
_chemical_formula_structural   Nd3Si2ClO8
_chemical_formula_sum   'Nd12 Si8 Cl4 O32'
_cell_volume   806.36190325
_cell_formula_units_Z   4
loop_
 _symmetry_equiv_pos_site_id
 _symmetry_equiv_pos_as_xyz
  1  'x, y, z'
loop_
 _atom_site_type_symbol
 _atom_site_label
 _atom_site_symmetry_multiplicity
 _atom_site_fract_x
 _atom_site_fract_y
 _atom_site_fract_z
 _atom_site_occupancy
  Nd  Nd0  1  0.81506100  0.39510600  0.82903000  1
  Nd  Nd1  1  0.68493900  0.89510600  0.67097000  1
  Nd  Nd2  1  0.81506100  0.60489400  0.32903000  1
  Nd  Nd3  1  0.00000000  0.07514300  0.25000000  1
  Nd  Nd4  1  0.68493900  0.10489400  0.17097000  1
  Nd  Nd5  1  0.00000000  0.92485700  0.75000000  1
  Nd  Nd6  1  0.31506100  0.89510600  0.82903000  1
  Nd  Nd7  1  0.18493900  0.39510600  0.67097000  1
  Nd  Nd8  1  0.31506100  0.10489400  0.32903000  1
  Nd  Nd9  1  0.50000000  0.57514300  0.25000000  1
  Nd  Nd10  1  0.18493900  0.60489400  0.17097000  1
  Nd  Nd11  1  0.50000000  0.42485700  0.75000000  1
  Si  Si12  1  0.84199000  0.94563800  0.97496100  1
  Si  Si13  1  0.84199000  0.05436200  0.47496100  1
  Si  Si14  1  0.65801000  0.44563800  0.52503900  1
  Si  Si15  1  0.65801000  0.55436200  0.02503900  1
  Si  Si16  1  0.34199000  0.44563800  0.97496100  1
  Si  Si17  1  0.34199000  0.55436200  0.47496100  1
  Si  Si18  1  0.15801000  0.94563800  0.52503900  1
  Si  Si19  1  0.15801000  0.05436200  0.02503900  1
  Cl  Cl20  1  0.00000000  0.52495700  0.25000000  1
  Cl  Cl21  1  0.00000000  0.47504300  0.75000000  1
  Cl  Cl22  1  0.50000000  0.02495700  0.25000000  1
  Cl  Cl23  1  0.50000000  0.97504300  0.75000000  1
  O  O24  1  0.65464950  0.38642950  0.34397800  1
  O  O25  1  0.64260300  0.26079400  0.64472700  1
  O  O26  1  0.84535050  0.11357050  0.65602200  1
  O  O27  1  0.73823900  0.94306600  0.41848200  1
  O  O28  1  0.92254100  0.12816500  0.96926600  1
  O  O29  1  0.73823900  0.05693400  0.91848200  1
  O  O30  1  0.57745900  0.37183500  0.03073400  1
  O  O31  1  0.85739700  0.76079400  0.85527300  1
  O  O32  1  0.84535050  0.88642950  0.15602200  1
  O  O33  1  0.64260300  0.73920600  0.14472700  1
  O  O34  1  0.57745900  0.62816500  0.53073400  1
  O  O35  1  0.76176100  0.44306600  0.08151800  1
  O  O36  1  0.85739700  0.23920600  0.35527300  1
  O  O37  1  0.76176100  0.55693400  0.58151800  1
  O  O38  1  0.65464950  0.61357050  0.84397800  1
  O  O39  1  0.92254100  0.87183500  0.46926600  1
  O  O40  1  0.15464950  0.88642950  0.34397800  1
  O  O41  1  0.14260300  0.76079400  0.64472700  1
  O  O42  1  0.34535050  0.61357050  0.65602200  1
  O  O43  1  0.23823900  0.44306600  0.41848200  1
  O  O44  1  0.42254100  0.62816500  0.96926600  1
  O  O45  1  0.23823900  0.55693400  0.91848200  1
  O  O46  1  0.07745900  0.87183500  0.03073400  1
  O  O47  1  0.35739700  0.26079400  0.85527300  1
  O  O48  1  0.34535050  0.38642950  0.15602200  1
  O  O49  1  0.14260300  0.23920600  0.14472700  1
  O  O50  1  0.07745900  0.12816500  0.53073400  1
  O  O51  1  0.26176100  0.94306600  0.08151800  1
  O  O52  1  0.35739700  0.73920600  0.35527300  1
  O  O53  1  0.26176100  0.05693400  0.58151800  1
  O  O54  1  0.15464950  0.11357050  0.84397800  1
  O  O55  1  0.42254100  0.37183500  0.46926600  1
