# generated using pymatgen
data_Pr3SbO7
_symmetry_space_group_name_H-M   'P 1'
_cell_length_a   7.67178800
_cell_length_b   11.06758800
_cell_length_c   7.77662500
_cell_angle_alpha   90.00000000
_cell_angle_beta   90.00000000
_cell_angle_gamma   90.00000000
_symmetry_Int_Tables_number   1
_chemical_formula_structural   Pr3SbO7
_chemical_formula_sum   'Pr12 Sb4 O28'
_cell_volume   660.29914378
_cell_formula_units_Z   4
loop_
 _symmetry_equiv_pos_site_id
 _symmetry_equiv_pos_as_xyz
  1  'x, y, z'
loop_
 _atom_site_type_symbol
 _atom_site_label
 _atom_site_symmetry_multiplicity
 _atom_site_fract_x
 _atom_site_fract_y
 _atom_site_fract_z
 _atom_site_occupancy
  Pr  Pr0  1  0.70833850  0.77307150  0.75000000  1
  Pr  Pr1  1  0.29166150  0.22692850  0.25000000  1
  Pr  Pr2  1  0.70833850  0.22692850  0.75000000  1
  Pr  Pr3  1  0.29166150  0.77307150  0.25000000  1
  Pr  Pr4  1  0.00000000  0.00000000  0.50000000  1
  Pr  Pr5  1  0.00000000  0.00000000  0.00000000  1
  Pr  Pr6  1  0.20833850  0.27307150  0.75000000  1
  Pr  Pr7  1  0.79166150  0.72692850  0.25000000  1
  Pr  Pr8  1  0.20833850  0.72692850  0.75000000  1
  Pr  Pr9  1  0.79166150  0.27307150  0.25000000  1
  Pr  Pr10  1  0.50000000  0.50000000  0.50000000  1
  Pr  Pr11  1  0.50000000  0.50000000  0.00000000  1
  Sb  Sb12  1  0.50000000  0.00000000  0.50000000  1
  Sb  Sb13  1  0.50000000  0.00000000  0.00000000  1
  Sb  Sb14  1  0.00000000  0.50000000  0.50000000  1
  Sb  Sb15  1  0.00000000  0.50000000  0.00000000  1
  O  O16  1  0.57939700  0.00000000  0.75000000  1
  O  O17  1  0.42060300  0.00000000  0.25000000  1
  O  O18  1  0.48020950  0.36814450  0.75000000  1
  O  O19  1  0.51979050  0.63185550  0.25000000  1
  O  O20  1  0.48020950  0.63185550  0.75000000  1
  O  O21  1  0.51979050  0.36814450  0.25000000  1
  O  O22  1  0.31422900  0.12582000  0.96691700  1
  O  O23  1  0.68577100  0.87418000  0.46691700  1
  O  O24  1  0.31422900  0.87418000  0.96691700  1
  O  O25  1  0.68577100  0.12582000  0.46691700  1
  O  O26  1  0.31422900  0.12582000  0.53308300  1
  O  O27  1  0.68577100  0.87418000  0.03308300  1
  O  O28  1  0.68577100  0.12582000  0.03308300  1
  O  O29  1  0.31422900  0.87418000  0.53308300  1
  O  O30  1  0.07939700  0.50000000  0.75000000  1
  O  O31  1  0.92060300  0.50000000  0.25000000  1
  O  O32  1  0.98020950  0.86814450  0.75000000  1
  O  O33  1  0.01979050  0.13185550  0.25000000  1
  O  O34  1  0.98020950  0.13185550  0.75000000  1
  O  O35  1  0.01979050  0.86814450  0.25000000  1
  O  O36  1  0.81422900  0.62582000  0.96691700  1
  O  O37  1  0.18577100  0.37418000  0.46691700  1
  O  O38  1  0.81422900  0.37418000  0.96691700  1
  O  O39  1  0.18577100  0.62582000  0.46691700  1
  O  O40  1  0.81422900  0.62582000  0.53308300  1
  O  O41  1  0.18577100  0.37418000  0.03308300  1
  O  O42  1  0.18577100  0.62582000  0.03308300  1
  O  O43  1  0.81422900  0.37418000  0.53308300  1
