# generated using pymatgen
data_K2Li14Pb3O14
_symmetry_space_group_name_H-M   'P 1'
_cell_length_a   7.36035000
_cell_length_b   8.10771000
_cell_length_c   12.97834400
_cell_angle_alpha   90.00000000
_cell_angle_beta   90.00000000
_cell_angle_gamma   90.00000000
_symmetry_Int_Tables_number   1
_chemical_formula_structural   K2Li14Pb3O14
_chemical_formula_sum   'K4 Li28 Pb6 O28'
_cell_volume   774.49024845
_cell_formula_units_Z   2
loop_
 _symmetry_equiv_pos_site_id
 _symmetry_equiv_pos_as_xyz
  1  'x, y, z'
loop_
 _atom_site_type_symbol
 _atom_site_label
 _atom_site_symmetry_multiplicity
 _atom_site_fract_x
 _atom_site_fract_y
 _atom_site_fract_z
 _atom_site_occupancy
  K  K0  1  0.24673400  0.50000000  0.00000000  1
  K  K1  1  0.75326600  0.50000000  0.00000000  1
  K  K2  1  0.74673400  0.00000000  0.50000000  1
  K  K3  1  0.25326600  0.00000000  0.50000000  1
  Li  Li4  1  0.50000000  0.84151600  0.00000000  1
  Li  Li5  1  0.50000000  0.15848400  0.00000000  1
  Li  Li6  1  0.00000000  0.64547950  0.77110150  1
  Li  Li7  1  0.50000000  0.85452050  0.72889850  1
  Li  Li8  1  0.50000000  0.14547950  0.72889850  1
  Li  Li9  1  0.00000000  0.35452050  0.77110150  1
  Li  Li10  1  0.72746100  0.84437500  0.86553800  1
  Li  Li11  1  0.22746100  0.65562500  0.63446200  1
  Li  Li12  1  0.77253900  0.34437500  0.63446200  1
  Li  Li13  1  0.27253900  0.15562500  0.86553800  1
  Li  Li14  1  0.77253900  0.65562500  0.63446200  1
  Li  Li15  1  0.27253900  0.84437500  0.86553800  1
  Li  Li16  1  0.72746100  0.15562500  0.86553800  1
  Li  Li17  1  0.22746100  0.34437500  0.63446200  1
  Li  Li18  1  0.00000000  0.34151600  0.50000000  1
  Li  Li19  1  0.00000000  0.65848400  0.50000000  1
  Li  Li20  1  0.50000000  0.14547950  0.27110150  1
  Li  Li21  1  0.00000000  0.35452050  0.22889850  1
  Li  Li22  1  0.00000000  0.64547950  0.22889850  1
  Li  Li23  1  0.50000000  0.85452050  0.27110150  1
  Li  Li24  1  0.22746100  0.34437500  0.36553800  1
  Li  Li25  1  0.72746100  0.15562500  0.13446200  1
  Li  Li26  1  0.27253900  0.84437500  0.13446200  1
  Li  Li27  1  0.77253900  0.65562500  0.36553800  1
  Li  Li28  1  0.27253900  0.15562500  0.13446200  1
  Li  Li29  1  0.77253900  0.34437500  0.36553800  1
  Li  Li30  1  0.22746100  0.65562500  0.36553800  1
  Li  Li31  1  0.72746100  0.84437500  0.13446200  1
  Pb  Pb32  1  0.00000000  0.00000000  0.72744500  1
  Pb  Pb33  1  0.50000000  0.50000000  0.77255500  1
  Pb  Pb34  1  0.00000000  0.00000000  0.00000000  1
  Pb  Pb35  1  0.50000000  0.50000000  0.22744500  1
  Pb  Pb36  1  0.00000000  0.00000000  0.27255500  1
  Pb  Pb37  1  0.50000000  0.50000000  0.50000000  1
  O  O38  1  0.29248050  0.00000000  0.74809050  1
  O  O39  1  0.79248050  0.50000000  0.75190950  1
  O  O40  1  0.20751950  0.50000000  0.75190950  1
  O  O41  1  0.70751950  0.00000000  0.74809050  1
  O  O42  1  0.70409000  0.00000000  0.00000000  1
  O  O43  1  0.29591000  0.00000000  0.00000000  1
  O  O44  1  0.00000000  0.81435500  0.87260900  1
  O  O45  1  0.50000000  0.68564500  0.62739100  1
  O  O46  1  0.50000000  0.31435500  0.62739100  1
  O  O47  1  0.00000000  0.18564500  0.87260900  1
  O  O48  1  0.00000000  0.78342450  0.62765050  1
  O  O49  1  0.50000000  0.71657550  0.87234950  1
  O  O50  1  0.50000000  0.28342450  0.87234950  1
  O  O51  1  0.00000000  0.21657550  0.62765050  1
  O  O52  1  0.79248050  0.50000000  0.24809050  1
  O  O53  1  0.29248050  0.00000000  0.25190950  1
  O  O54  1  0.70751950  0.00000000  0.25190950  1
  O  O55  1  0.20751950  0.50000000  0.24809050  1
  O  O56  1  0.20409000  0.50000000  0.50000000  1
  O  O57  1  0.79591000  0.50000000  0.50000000  1
  O  O58  1  0.50000000  0.31435500  0.37260900  1
  O  O59  1  0.00000000  0.18564500  0.12739100  1
  O  O60  1  0.00000000  0.81435500  0.12739100  1
  O  O61  1  0.50000000  0.68564500  0.37260900  1
  O  O62  1  0.50000000  0.28342450  0.12765050  1
  O  O63  1  0.00000000  0.21657550  0.37234950  1
  O  O64  1  0.00000000  0.78342450  0.37234950  1
  O  O65  1  0.50000000  0.71657550  0.12765050  1
