# generated using pymatgen
data_LiMn(PO3)3
_symmetry_space_group_name_H-M   'P 1'
_cell_length_a   6.87180400
_cell_length_b   7.30138794
_cell_length_c   7.54282289
_cell_angle_alpha   85.01709023
_cell_angle_beta   83.65017739
_cell_angle_gamma   79.97423895
_symmetry_Int_Tables_number   1
_chemical_formula_structural   LiMn(PO3)3
_chemical_formula_sum   'Li2 Mn2 P6 O18'
_cell_volume   369.50127012
_cell_formula_units_Z   2
loop_
 _symmetry_equiv_pos_site_id
 _symmetry_equiv_pos_as_xyz
  1  'x, y, z'
loop_
 _atom_site_type_symbol
 _atom_site_label
 _atom_site_symmetry_multiplicity
 _atom_site_fract_x
 _atom_site_fract_y
 _atom_site_fract_z
 _atom_site_occupancy
  Li  Li0  1  0.12868500  0.13463900  0.29614250  1
  Li  Li1  1  0.87131500  0.86536100  0.70385750  1
  Mn  Mn2  1  0.57133450  0.15819850  0.17253550  1
  Mn  Mn3  1  0.42866550  0.84180150  0.82746450  1
  P  P4  1  0.23108650  0.54253650  0.15796300  1
  P  P5  1  0.76891350  0.45746350  0.84203700  1
  P  P6  1  0.85460850  0.77661050  0.29145450  1
  P  P7  1  0.14539150  0.22338950  0.70854550  1
  P  P8  1  0.42860200  0.77157300  0.37105250  1
  P  P9  1  0.57139800  0.22842700  0.62894750  1
  O  O10  1  0.70367650  0.35380850  0.01121300  1
  O  O11  1  0.29632350  0.64619150  0.98878700  1
  O  O12  1  0.27322100  0.33185500  0.16770300  1
  O  O13  1  0.72677900  0.66814500  0.83229700  1
  O  O14  1  0.82077600  0.93720000  0.15183850  1
  O  O15  1  0.17922400  0.06280000  0.84816150  1
  O  O16  1  0.37646800  0.94159600  0.24239150  1
  O  O17  1  0.62353200  0.05840400  0.75760850  1
  O  O18  1  0.99613850  0.59882750  0.20436250  1
  O  O19  1  0.00386150  0.40117250  0.79563750  1
  O  O20  1  0.32315000  0.60416500  0.32695300  1
  O  O21  1  0.67685000  0.39583500  0.67304700  1
  O  O22  1  0.65690150  0.68021250  0.32592200  1
  O  O23  1  0.34309850  0.31978750  0.67407800  1
  O  O24  1  0.61538250  0.20358650  0.43371200  1
  O  O25  1  0.38461750  0.79641350  0.56628800  1
  O  O26  1  0.07214600  0.18843500  0.53809600  1
  O  O27  1  0.92785400  0.81156500  0.46190400  1
