# generated using pymatgen
data_CuAs2S4(O2F3)4
_symmetry_space_group_name_H-M   'P 1'
_cell_length_a   7.69046000
_cell_length_b   13.21465700
_cell_length_c   9.19780048
_cell_angle_alpha   90.00000000
_cell_angle_beta   105.15203263
_cell_angle_gamma   90.00000000
_symmetry_Int_Tables_number   1
_chemical_formula_structural   CuAs2S4(O2F3)4
_chemical_formula_sum   'Cu2 As4 S8 O16 F24'
_cell_volume   902.24722434
_cell_formula_units_Z   2
loop_
 _symmetry_equiv_pos_site_id
 _symmetry_equiv_pos_as_xyz
  1  'x, y, z'
loop_
 _atom_site_type_symbol
 _atom_site_label
 _atom_site_symmetry_multiplicity
 _atom_site_fract_x
 _atom_site_fract_y
 _atom_site_fract_z
 _atom_site_occupancy
  Cu  Cu0  1  0.00000000  0.50000000  0.50000000  1
  Cu  Cu1  1  0.00000000  0.00000000  0.00000000  1
  As  As2  1  0.31407400  0.13503300  0.78488200  1
  As  As3  1  0.31407400  0.36496700  0.28488200  1
  As  As4  1  0.68592600  0.86496700  0.21511800  1
  As  As5  1  0.68592600  0.63503300  0.71511800  1
  S  S6  1  0.79587200  0.29293400  0.54852200  1
  S  S7  1  0.72765300  0.54224600  0.16880300  1
  S  S8  1  0.27234700  0.04224600  0.33119700  1
  S  S9  1  0.79587200  0.20706600  0.04852200  1
  S  S10  1  0.20412800  0.79293400  0.95147800  1
  S  S11  1  0.27234700  0.45775400  0.83119700  1
  S  S12  1  0.72765300  0.95775400  0.66880300  1
  S  S13  1  0.20412800  0.70706600  0.45147800  1
  O  O14  1  0.18038600  0.06350500  0.17195400  1
  O  O15  1  0.17099000  0.69098000  0.29221400  1
  O  O16  1  0.18038600  0.43649500  0.67195400  1
  O  O17  1  0.81961400  0.93649500  0.82804600  1
  O  O18  1  0.81961400  0.56350500  0.32804600  1
  O  O19  1  0.77298700  0.44946100  0.10609600  1
  O  O20  1  0.22701300  0.55053900  0.89390400  1
  O  O21  1  0.17099000  0.80902000  0.79221400  1
  O  O22  1  0.86981300  0.13127900  0.96226400  1
  O  O23  1  0.22701300  0.94946100  0.39390400  1
  O  O24  1  0.82901000  0.30902000  0.70778600  1
  O  O25  1  0.13018700  0.63127900  0.53773600  1
  O  O26  1  0.86981300  0.36872100  0.46226400  1
  O  O27  1  0.77298700  0.05053900  0.60609600  1
  O  O28  1  0.82901000  0.19098000  0.20778600  1
  O  O29  1  0.13018700  0.86872100  0.03773600  1
  F  F30  1  0.17392800  0.46016400  0.33719700  1
  F  F31  1  0.45700800  0.22574800  0.73601300  1
  F  F32  1  0.15375700  0.35243600  0.10879300  1
  F  F33  1  0.84624300  0.85243600  0.39120700  1
  F  F34  1  0.15375700  0.14756400  0.60879300  1
  F  F35  1  0.42211200  0.46349100  0.20786200  1
  F  F36  1  0.52730800  0.61759100  0.53687100  1
  F  F37  1  0.57788800  0.96349100  0.29213800  1
  F  F38  1  0.84624300  0.64756400  0.89120700  1
  F  F39  1  0.45700800  0.27425200  0.23601300  1
  F  F40  1  0.52730800  0.88240900  0.03687100  1
  F  F41  1  0.54299200  0.77425200  0.26398700  1
  F  F42  1  0.17392800  0.03983600  0.83719700  1
  F  F43  1  0.42211200  0.03650900  0.70786200  1
  F  F44  1  0.79697600  0.77105800  0.13722000  1
  F  F45  1  0.54299200  0.72574800  0.76398700  1
  F  F46  1  0.82607200  0.53983600  0.66280300  1
  F  F47  1  0.20302400  0.22894200  0.86278000  1
  F  F48  1  0.82607200  0.96016400  0.16280300  1
  F  F49  1  0.47269200  0.38240900  0.46312900  1
  F  F50  1  0.47269200  0.11759100  0.96312900  1
  F  F51  1  0.20302400  0.27105800  0.36278000  1
  F  F52  1  0.79697600  0.72894200  0.63722000  1
  F  F53  1  0.57788800  0.53650900  0.79213800  1
