# generated using pymatgen
data_NaY(SiO3)2
_symmetry_space_group_name_H-M   'P 1'
_cell_length_a   8.30188200
_cell_length_b   10.52929000
_cell_length_c   17.85495662
_cell_angle_alpha   90.00000000
_cell_angle_beta   100.87531869
_cell_angle_gamma   90.00000000
_symmetry_Int_Tables_number   1
_chemical_formula_structural   NaY(SiO3)2
_chemical_formula_sum   'Na12 Y12 Si24 O72'
_cell_volume   1532.72293191
_cell_formula_units_Z   12
loop_
 _symmetry_equiv_pos_site_id
 _symmetry_equiv_pos_as_xyz
  1  'x, y, z'
loop_
 _atom_site_type_symbol
 _atom_site_label
 _atom_site_symmetry_multiplicity
 _atom_site_fract_x
 _atom_site_fract_y
 _atom_site_fract_z
 _atom_site_occupancy
  Na  Na0  1  0.50000000  0.62354500  0.75000000  1
  Na  Na1  1  0.50000000  0.37645500  0.25000000  1
  Na  Na2  1  0.32133900  0.31631000  0.41699700  1
  Na  Na3  1  0.67866100  0.68369000  0.58300300  1
  Na  Na4  1  0.32133900  0.68369000  0.91699700  1
  Na  Na5  1  0.67866100  0.31631000  0.08300300  1
  Na  Na6  1  0.00000000  0.12354500  0.75000000  1
  Na  Na7  1  0.00000000  0.87645500  0.25000000  1
  Na  Na8  1  0.82133900  0.81631000  0.41699700  1
  Na  Na9  1  0.17866100  0.18369000  0.58300300  1
  Na  Na10  1  0.82133900  0.18369000  0.91699700  1
  Na  Na11  1  0.17866100  0.81631000  0.08300300  1
  Y  Y12  1  0.50000000  0.89225100  0.25000000  1
  Y  Y13  1  0.68710100  0.04763400  0.57346800  1
  Y  Y14  1  0.31289900  0.95236600  0.42653200  1
  Y  Y15  1  0.68710100  0.95236600  0.07346800  1
  Y  Y16  1  0.31289900  0.04763400  0.92653200  1
  Y  Y17  1  0.50000000  0.10774900  0.75000000  1
  Y  Y18  1  0.00000000  0.39225100  0.25000000  1
  Y  Y19  1  0.18710100  0.54763400  0.57346800  1
  Y  Y20  1  0.81289900  0.45236600  0.42653200  1
  Y  Y21  1  0.18710100  0.45236600  0.07346800  1
  Y  Y22  1  0.81289900  0.54763400  0.92653200  1
  Y  Y23  1  0.00000000  0.60774900  0.75000000  1
  Si  Si24  1  0.63742650  0.17179850  0.39843900  1
  Si  Si25  1  0.76628300  0.12016600  0.25693800  1
  Si  Si26  1  0.76628300  0.87983400  0.75693800  1
  Si  Si27  1  0.49408650  0.32737450  0.89886900  1
  Si  Si28  1  0.36257350  0.82820150  0.60156100  1
  Si  Si29  1  0.23371700  0.87983400  0.74306200  1
  Si  Si30  1  0.50591350  0.32737450  0.60113100  1
  Si  Si31  1  0.63742650  0.82820150  0.89843900  1
  Si  Si32  1  0.50591350  0.67262550  0.10113100  1
  Si  Si33  1  0.36257350  0.17179850  0.10156100  1
  Si  Si34  1  0.23371700  0.12016600  0.24306200  1
  Si  Si35  1  0.49408650  0.67262550  0.39886900  1
  Si  Si36  1  0.13742650  0.67179850  0.39843900  1
  Si  Si37  1  0.26628300  0.62016600  0.25693800  1
  Si  Si38  1  0.26628300  0.37983400  0.75693800  1
  Si  Si39  1  0.99408650  0.82737450  0.89886900  1
  Si  Si40  1  0.86257350  0.32820150  0.60156100  1
  Si  Si41  1  0.73371700  0.37983400  0.74306200  1
  Si  Si42  1  0.00591350  0.82737450  0.60113100  1
  Si  Si43  1  0.13742650  0.32820150  0.89843900  1
  Si  Si44  1  0.00591350  0.17262550  0.10113100  1
  Si  Si45  1  0.86257350  0.67179850  0.10156100  1
  Si  Si46  1  0.73371700  0.62016600  0.24306200  1
  Si  Si47  1  0.99408650  0.17262550  0.39886900  1
  O  O48  1  0.28628650  0.99528850  0.80218200  1
  O  O49  1  0.71371350  0.00471150  0.19781800  1
  O  O50  1  0.53181900  0.90355800  0.95180000  1
  O  O51  1  0.15884350  0.11741950  0.45084200  1
  O  O52  1  0.28628650  0.00471150  0.30218200  1
  O  O53  1  0.83361150  0.15840050  0.44327200  1
  O  O54  1  0.16638850  0.15840050  0.05672800  1
  O  O55  1  0.50498450  0.17640350  0.87760000  1
  O  O56  1  0.59496650  0.32033750  0.38449000  1
  O  O57  1  0.49501550  0.17640350  0.62240000  1
  O  O58  1  0.72842400  0.23885200  0.77718200  1
  O  O59  1  0.72842400  0.76114800  0.27718200  1
  O  O60  1  0.40503350  0.67966250  0.61551000  1
  O  O61  1  0.84115650  0.88258050  0.54915800  1
  O  O62  1  0.50498450  0.82359650  0.37760000  1
  O  O63  1  0.40503350  0.32033750  0.11551000  1
  O  O64  1  0.46818100  0.90355800  0.54820000  1
  O  O65  1  0.16638850  0.84159950  0.55672800  1
  O  O66  1  0.44035400  0.58857700  0.31877200  1
  O  O67  1  0.15884350  0.88258050  0.95084200  1
  O  O68  1  0.53181900  0.09644200  0.45180000  1
  O  O69  1  0.37276650  0.09738450  0.18510200  1
  O  O70  1  0.49501550  0.82359650  0.12240000  1
  O  O71  1  0.59496650  0.67966250  0.88449000  1
  O  O72  1  0.62723350  0.09738450  0.31489800  1
  O  O73  1  0.37276650  0.90261550  0.68510200  1
  O  O74  1  0.83361150  0.84159950  0.94327200  1
  O  O75  1  0.46818100  0.09644200  0.04820000  1
  O  O76  1  0.84115650  0.11741950  0.04915800  1
  O  O77  1  0.27157600  0.23885200  0.72281800  1
  O  O78  1  0.55964600  0.58857700  0.18122800  1
  O  O79  1  0.62723350  0.90261550  0.81489800  1
  O  O80  1  0.44035400  0.41142300  0.81877200  1
  O  O81  1  0.55964600  0.41142300  0.68122800  1
  O  O82  1  0.71371350  0.99528850  0.69781800  1
  O  O83  1  0.27157600  0.76114800  0.22281800  1
  O  O84  1  0.78628650  0.49528850  0.80218200  1
  O  O85  1  0.21371350  0.50471150  0.19781800  1
  O  O86  1  0.03181900  0.40355800  0.95180000  1
  O  O87  1  0.65884350  0.61741950  0.45084200  1
  O  O88  1  0.78628650  0.50471150  0.30218200  1
  O  O89  1  0.33361150  0.65840050  0.44327200  1
  O  O90  1  0.66638850  0.65840050  0.05672800  1
  O  O91  1  0.00498450  0.67640350  0.87760000  1
  O  O92  1  0.09496650  0.82033750  0.38449000  1
  O  O93  1  0.99501550  0.67640350  0.62240000  1
  O  O94  1  0.22842400  0.73885200  0.77718200  1
  O  O95  1  0.22842400  0.26114800  0.27718200  1
  O  O96  1  0.90503350  0.17966250  0.61551000  1
  O  O97  1  0.34115650  0.38258050  0.54915800  1
  O  O98  1  0.00498450  0.32359650  0.37760000  1
  O  O99  1  0.90503350  0.82033750  0.11551000  1
  O  O100  1  0.96818100  0.40355800  0.54820000  1
  O  O101  1  0.66638850  0.34159950  0.55672800  1
  O  O102  1  0.94035400  0.08857700  0.31877200  1
  O  O103  1  0.65884350  0.38258050  0.95084200  1
  O  O104  1  0.03181900  0.59644200  0.45180000  1
  O  O105  1  0.87276650  0.59738450  0.18510200  1
  O  O106  1  0.99501550  0.32359650  0.12240000  1
  O  O107  1  0.09496650  0.17966250  0.88449000  1
  O  O108  1  0.12723350  0.59738450  0.31489800  1
  O  O109  1  0.87276650  0.40261550  0.68510200  1
  O  O110  1  0.33361150  0.34159950  0.94327200  1
  O  O111  1  0.96818100  0.59644200  0.04820000  1
  O  O112  1  0.34115650  0.61741950  0.04915800  1
  O  O113  1  0.77157600  0.73885200  0.72281800  1
  O  O114  1  0.05964600  0.08857700  0.18122800  1
  O  O115  1  0.12723350  0.40261550  0.81489800  1
  O  O116  1  0.94035400  0.91142300  0.81877200  1
  O  O117  1  0.05964600  0.91142300  0.68122800  1
  O  O118  1  0.21371350  0.49528850  0.69781800  1
  O  O119  1  0.77157600  0.26114800  0.22281800  1
