# generated using pymatgen
data_Na2CdSnS4
_symmetry_space_group_name_H-M   'P 1'
_cell_length_a   9.00358000
_cell_length_b   10.49832200
_cell_length_c   6.46666493
_cell_angle_alpha   90.00000000
_cell_angle_beta   133.79536009
_cell_angle_gamma   90.00000000
_symmetry_Int_Tables_number   1
_chemical_formula_structural   Na2CdSnS4
_chemical_formula_sum   'Na4 Cd2 Sn2 S8'
_cell_volume   441.20674819
_cell_formula_units_Z   2
loop_
 _symmetry_equiv_pos_site_id
 _symmetry_equiv_pos_as_xyz
  1  'x, y, z'
loop_
 _atom_site_type_symbol
 _atom_site_label
 _atom_site_symmetry_multiplicity
 _atom_site_fract_x
 _atom_site_fract_y
 _atom_site_fract_z
 _atom_site_occupancy
  Na  Na0  1  0.00000000  0.47602000  0.50000000  1
  Na  Na1  1  0.00000000  0.22229800  0.00000000  1
  Na  Na2  1  0.50000000  0.97602000  0.50000000  1
  Na  Na3  1  0.50000000  0.72229800  0.00000000  1
  Cd  Cd4  1  0.50000000  0.48875600  0.50000000  1
  Cd  Cd5  1  0.00000000  0.98875600  0.50000000  1
  Sn  Sn6  1  0.50000000  0.23866000  0.00000000  1
  Sn  Sn7  1  0.00000000  0.73866000  0.00000000  1
  S  S8  1  0.71154500  0.36432000  0.97194900  1
  S  S9  1  0.27039750  0.11633750  0.55965400  1
  S  S10  1  0.72960250  0.11633750  0.44034600  1
  S  S11  1  0.28845500  0.36432000  0.02805100  1
  S  S12  1  0.21154500  0.86432000  0.97194900  1
  S  S13  1  0.77039750  0.61633750  0.55965400  1
  S  S14  1  0.22960250  0.61633750  0.44034600  1
  S  S15  1  0.78845500  0.86432000  0.02805100  1
