# generated using pymatgen
data_RbCrF6
_symmetry_space_group_name_H-M   'P 1'
_cell_length_a   7.73501547
_cell_length_b   7.73501547
_cell_length_c   7.72315940
_cell_angle_alpha   90.00000000
_cell_angle_beta   90.00000000
_cell_angle_gamma   120.00000000
_symmetry_Int_Tables_number   1
_chemical_formula_structural   RbCrF6
_chemical_formula_sum   'Rb3 Cr3 F18'
_cell_volume   400.17320242
_cell_formula_units_Z   3
loop_
 _symmetry_equiv_pos_site_id
 _symmetry_equiv_pos_as_xyz
  1  'x, y, z'
loop_
 _atom_site_type_symbol
 _atom_site_label
 _atom_site_symmetry_multiplicity
 _atom_site_fract_x
 _atom_site_fract_y
 _atom_site_fract_z
 _atom_site_occupancy
  Rb  Rb0  1  0.00000000  0.00000000  0.00000000  1
  Rb  Rb1  1  0.66666667  0.33333333  0.33333333  1
  Rb  Rb2  1  0.33333333  0.66666667  0.66666667  1
  Cr  Cr3  1  0.00000000  0.00000000  0.50000000  1
  Cr  Cr4  1  0.66666667  0.33333333  0.83333333  1
  Cr  Cr5  1  0.33333333  0.66666667  0.16666667  1
  F  F6  1  0.86045967  0.07738033  0.36534433  1
  F  F7  1  0.92261967  0.78307933  0.36534433  1
  F  F8  1  0.78307933  0.86045967  0.63465567  1
  F  F9  1  0.07738033  0.21692067  0.63465567  1
  F  F10  1  0.13954033  0.92261967  0.63465567  1
  F  F11  1  0.21692067  0.13954033  0.36534433  1
  F  F12  1  0.52712633  0.41071367  0.69867767  1
  F  F13  1  0.58928633  0.11641267  0.69867767  1
  F  F14  1  0.44974600  0.19379300  0.96798900  1
  F  F15  1  0.74404700  0.55025400  0.96798900  1
  F  F16  1  0.80620700  0.25595300  0.96798900  1
  F  F17  1  0.88358733  0.47287367  0.69867767  1
  F  F18  1  0.19379300  0.74404700  0.03201100  1
  F  F19  1  0.25595300  0.44974600  0.03201100  1
  F  F20  1  0.11641267  0.52712633  0.30132233  1
  F  F21  1  0.41071367  0.88358733  0.30132233  1
  F  F22  1  0.47287367  0.58928633  0.30132233  1
  F  F23  1  0.55025400  0.80620700  0.03201100  1
