# generated using pymatgen
data_Na2Si2O5
_symmetry_space_group_name_H-M   'P 1'
_cell_length_a   5.65116500
_cell_length_b   8.46353400
_cell_length_c   9.53623100
_cell_angle_alpha   90.00000000
_cell_angle_beta   90.00000000
_cell_angle_gamma   90.00000000
_symmetry_Int_Tables_number   1
_chemical_formula_structural   Na2Si2O5
_chemical_formula_sum   'Na8 Si8 O20'
_cell_volume   456.10674385
_cell_formula_units_Z   4
loop_
 _symmetry_equiv_pos_site_id
 _symmetry_equiv_pos_as_xyz
  1  'x, y, z'
loop_
 _atom_site_type_symbol
 _atom_site_label
 _atom_site_symmetry_multiplicity
 _atom_site_fract_x
 _atom_site_fract_y
 _atom_site_fract_z
 _atom_site_occupancy
  Na  Na0  1  0.06234300  0.47830200  0.01098700  1
  Na  Na1  1  0.08695800  0.75317000  0.75440100  1
  Na  Na2  1  0.91304200  0.75317000  0.25440100  1
  Na  Na3  1  0.91304200  0.25317000  0.24559900  1
  Na  Na4  1  0.93765700  0.47830200  0.51098700  1
  Na  Na5  1  0.06234300  0.97830200  0.48901300  1
  Na  Na6  1  0.93765700  0.97830200  0.98901300  1
  Na  Na7  1  0.08695800  0.25317000  0.74559900  1
  Si  Si8  1  0.54927200  0.24890800  0.95271200  1
  Si  Si9  1  0.36987600  0.05676100  0.19173700  1
  Si  Si10  1  0.36987600  0.55676100  0.30826300  1
  Si  Si11  1  0.63012400  0.55676100  0.80826300  1
  Si  Si12  1  0.45072800  0.24890800  0.45271200  1
  Si  Si13  1  0.54927200  0.74890800  0.54728800  1
  Si  Si14  1  0.63012400  0.05676100  0.69173700  1
  Si  Si15  1  0.45072800  0.74890800  0.04728800  1
  O  O16  1  0.89102600  0.00189700  0.73278000  1
  O  O17  1  0.18115400  0.74669300  0.99911600  1
  O  O18  1  0.64225200  0.70877800  0.92042300  1
  O  O19  1  0.81884600  0.24669300  0.00088400  1
  O  O20  1  0.35774800  0.70877800  0.42042300  1
  O  O21  1  0.45790200  0.42115200  0.88544100  1
  O  O22  1  0.10897400  0.00189700  0.23278000  1
  O  O23  1  0.47321700  0.61964000  0.67229000  1
  O  O24  1  0.35774800  0.20877800  0.07957700  1
  O  O25  1  0.52678300  0.11964000  0.32771000  1
  O  O26  1  0.47321700  0.11964000  0.82771000  1
  O  O27  1  0.89102600  0.50189700  0.76722000  1
  O  O28  1  0.10897400  0.50189700  0.26722000  1
  O  O29  1  0.54209800  0.42115200  0.38544100  1
  O  O30  1  0.18115400  0.24669300  0.50088400  1
  O  O31  1  0.52678300  0.61964000  0.17229000  1
  O  O32  1  0.81884600  0.74669300  0.49911600  1
  O  O33  1  0.54209800  0.92115200  0.11455900  1
  O  O34  1  0.64225200  0.20877800  0.57957700  1
  O  O35  1  0.45790200  0.92115200  0.61455900  1
