# generated using pymatgen
data_Cs2U(SiO4)2
_symmetry_space_group_name_H-M   'P 1'
_cell_length_a   15.34211600
_cell_length_b   15.54214400
_cell_length_c   16.60113000
_cell_angle_alpha   90.00000000
_cell_angle_beta   90.00000000
_cell_angle_gamma   90.00000000
_symmetry_Int_Tables_number   1
_chemical_formula_structural   Cs2U(SiO4)2
_chemical_formula_sum   'Cs32 U16 Si32 O128'
_cell_volume   3958.52909166
_cell_formula_units_Z   16
loop_
 _symmetry_equiv_pos_site_id
 _symmetry_equiv_pos_as_xyz
  1  'x, y, z'
loop_
 _atom_site_type_symbol
 _atom_site_label
 _atom_site_symmetry_multiplicity
 _atom_site_fract_x
 _atom_site_fract_y
 _atom_site_fract_z
 _atom_site_occupancy
  Cs  Cs0  1  0.00000000  0.75000000  0.09937200  1
  Cs  Cs1  1  0.50000000  0.25000000  0.35201700  1
  Cs  Cs2  1  0.25000000  0.12964700  0.50000000  1
  Cs  Cs3  1  0.00000000  0.25000000  0.64798300  1
  Cs  Cs4  1  0.50000000  0.25000000  0.09937200  1
  Cs  Cs5  1  0.00000000  0.25000000  0.40062800  1
  Cs  Cs6  1  0.10639300  0.00000000  0.25000000  1
  Cs  Cs7  1  0.00000000  0.25000000  0.14798300  1
  Cs  Cs8  1  0.75000000  0.37035300  0.50000000  1
  Cs  Cs9  1  0.50000000  0.75000000  0.40062800  1
  Cs  Cs10  1  0.75000000  0.12964700  0.00000000  1
  Cs  Cs11  1  0.39360700  0.50000000  0.25000000  1
  Cs  Cs12  1  0.60639300  0.00000000  0.25000000  1
  Cs  Cs13  1  0.50000000  0.25000000  0.85201700  1
  Cs  Cs14  1  0.25000000  0.37035300  0.00000000  1
  Cs  Cs15  1  0.89360700  0.50000000  0.25000000  1
  Cs  Cs16  1  0.50000000  0.25000000  0.59937200  1
  Cs  Cs17  1  0.00000000  0.75000000  0.85201700  1
  Cs  Cs18  1  0.75000000  0.62964700  0.00000000  1
  Cs  Cs19  1  0.50000000  0.75000000  0.14798300  1
  Cs  Cs20  1  0.00000000  0.75000000  0.59937200  1
  Cs  Cs21  1  0.50000000  0.75000000  0.90062800  1
  Cs  Cs22  1  0.60639300  0.50000000  0.75000000  1
  Cs  Cs23  1  0.50000000  0.75000000  0.64798300  1
  Cs  Cs24  1  0.25000000  0.87035300  0.00000000  1
  Cs  Cs25  1  0.00000000  0.25000000  0.90062800  1
  Cs  Cs26  1  0.25000000  0.62964700  0.50000000  1
  Cs  Cs27  1  0.89360700  0.00000000  0.75000000  1
  Cs  Cs28  1  0.10639300  0.50000000  0.75000000  1
  Cs  Cs29  1  0.00000000  0.75000000  0.35201700  1
  Cs  Cs30  1  0.75000000  0.87035300  0.50000000  1
  Cs  Cs31  1  0.39360700  0.00000000  0.75000000  1
  U  U32  1  0.00000000  0.00000000  0.50000000  1
  U  U33  1  0.00000000  0.50000000  0.00000000  1
  U  U34  1  0.25000000  0.25000000  0.25000000  1
  U  U35  1  0.50000000  0.00000000  0.00000000  1
  U  U36  1  0.00000000  0.00000000  0.00000000  1
  U  U37  1  0.75000000  0.25000000  0.25000000  1
  U  U38  1  0.25000000  0.25000000  0.75000000  1
  U  U39  1  0.25000000  0.75000000  0.25000000  1
  U  U40  1  0.50000000  0.50000000  0.00000000  1
  U  U41  1  0.50000000  0.00000000  0.50000000  1
  U  U42  1  0.75000000  0.75000000  0.75000000  1
  U  U43  1  0.00000000  0.50000000  0.50000000  1
  U  U44  1  0.50000000  0.50000000  0.50000000  1
  U  U45  1  0.25000000  0.75000000  0.75000000  1
  U  U46  1  0.75000000  0.75000000  0.25000000  1
  U  U47  1  0.75000000  0.25000000  0.75000000  1
  Si  Si48  1  0.37026400  0.06919400  0.17695500  1
  Si  Si49  1  0.20539250  0.60968450  0.91717450  1
  Si  Si50  1  0.29460750  0.89031550  0.58282550  1
  Si  Si51  1  0.37026400  0.93080600  0.32304500  1
  Si  Si52  1  0.29460750  0.10968450  0.91717450  1
  Si  Si53  1  0.20539250  0.89031550  0.41717450  1
  Si  Si54  1  0.12973600  0.43080600  0.32304500  1
  Si  Si55  1  0.29460750  0.39031550  0.41717450  1
  Si  Si56  1  0.29460750  0.60968450  0.08282550  1
  Si  Si57  1  0.12973600  0.06919400  0.82304500  1
  Si  Si58  1  0.37026400  0.56919400  0.82304500  1
  Si  Si59  1  0.12973600  0.56919400  0.17695500  1
  Si  Si60  1  0.12973600  0.93080600  0.67695500  1
  Si  Si61  1  0.20539250  0.39031550  0.58282550  1
  Si  Si62  1  0.37026400  0.43080600  0.67695500  1
  Si  Si63  1  0.20539250  0.10968450  0.08282550  1
  Si  Si64  1  0.87026400  0.56919400  0.67695500  1
  Si  Si65  1  0.70539250  0.10968450  0.41717450  1
  Si  Si66  1  0.79460750  0.39031550  0.08282550  1
  Si  Si67  1  0.87026400  0.43080600  0.82304500  1
  Si  Si68  1  0.79460750  0.60968450  0.41717450  1
  Si  Si69  1  0.70539250  0.39031550  0.91717450  1
  Si  Si70  1  0.62973600  0.93080600  0.82304500  1
  Si  Si71  1  0.79460750  0.89031550  0.91717450  1
  Si  Si72  1  0.79460750  0.10968450  0.58282550  1
  Si  Si73  1  0.62973600  0.56919400  0.32304500  1
  Si  Si74  1  0.87026400  0.06919400  0.32304500  1
  Si  Si75  1  0.62973600  0.06919400  0.67695500  1
  Si  Si76  1  0.62973600  0.43080600  0.17695500  1
  Si  Si77  1  0.70539250  0.89031550  0.08282550  1
  Si  Si78  1  0.87026400  0.93080600  0.17695500  1
  Si  Si79  1  0.70539250  0.60968450  0.58282550  1
  O  O80  1  0.31721800  0.80917500  0.64160700  1
  O  O81  1  0.44562800  0.10498700  0.47667700  1
  O  O82  1  0.27804250  0.54701850  0.87116250  1
  O  O83  1  0.11712900  0.50000000  0.25000000  1
  O  O84  1  0.95318050  0.05904650  0.38405450  1
  O  O85  1  0.04681950  0.55904650  0.11594550  1
  O  O86  1  0.38287100  0.50000000  0.75000000  1
  O  O87  1  0.44562800  0.60498700  0.52332300  1
  O  O88  1  0.18278200  0.69082500  0.85839300  1
  O  O89  1  0.05437200  0.39501300  0.02332300  1
  O  O90  1  0.04681950  0.44095350  0.38405450  1
  O  O91  1  0.25000000  0.64950600  0.00000000  1
  O  O92  1  0.37856450  0.95015650  0.56176950  1
  O  O93  1  0.12143550  0.95015650  0.43823050  1
  O  O94  1  0.45318050  0.05904650  0.11594550  1
  O  O95  1  0.54681950  0.44095350  0.11594550  1
  O  O96  1  0.62143550  0.95015650  0.06176950  1
  O  O97  1  0.36548500  0.83349500  0.28521900  1
  O  O98  1  0.37856450  0.45015650  0.43823050  1
  O  O99  1  0.44562800  0.39501300  0.97667700  1
  O  O100  1  0.72195750  0.54701850  0.37116250  1
  O  O101  1  0.13451500  0.33349500  0.28521900  1
  O  O102  1  0.79881600  0.33602500  0.31363000  1
  O  O103  1  0.37856450  0.54984350  0.06176950  1
  O  O104  1  0.36548500  0.16650500  0.21478100  1
  O  O105  1  0.81721800  0.19082500  0.64160700  1
  O  O106  1  0.45318050  0.94095350  0.38405450  1
  O  O107  1  0.20118400  0.83602500  0.18637000  1
  O  O108  1  0.13451500  0.16650500  0.78521900  1
  O  O109  1  0.12143550  0.54984350  0.93823050  1
  O  O110  1  0.27804250  0.04701850  0.12883750  1
  O  O111  1  0.63451500  0.33349500  0.21478100  1
  O  O112  1  0.04681950  0.05904650  0.88405450  1
  O  O113  1  0.70118400  0.16397500  0.18637000  1
  O  O114  1  0.18278200  0.19082500  0.14160700  1
  O  O115  1  0.25000000  0.35049400  0.50000000  1
  O  O116  1  0.68278200  0.30917500  0.85839300  1
  O  O117  1  0.29881600  0.16397500  0.68637000  1
  O  O118  1  0.86548500  0.16650500  0.28521900  1
  O  O119  1  0.55437200  0.10498700  0.97667700  1
  O  O120  1  0.36548500  0.33349500  0.71478100  1
  O  O121  1  0.12143550  0.04984350  0.06176950  1
  O  O122  1  0.38287100  0.00000000  0.25000000  1
  O  O123  1  0.25000000  0.14950600  0.00000000  1
  O  O124  1  0.22195750  0.95298150  0.62883750  1
  O  O125  1  0.94562800  0.39501300  0.52332300  1
  O  O126  1  0.20118400  0.16397500  0.31363000  1
  O  O127  1  0.31721800  0.30917500  0.35839300  1
  O  O128  1  0.20118400  0.33602500  0.81363000  1
  O  O129  1  0.29881600  0.66397500  0.31363000  1
  O  O130  1  0.13451500  0.66650500  0.21478100  1
  O  O131  1  0.87856450  0.54984350  0.43823050  1
  O  O132  1  0.05437200  0.10498700  0.52332300  1
  O  O133  1  0.22195750  0.54701850  0.12883750  1
  O  O134  1  0.11712900  0.00000000  0.75000000  1
  O  O135  1  0.05437200  0.89501300  0.97667700  1
  O  O136  1  0.45318050  0.44095350  0.61594550  1
  O  O137  1  0.77804250  0.95298150  0.12883750  1
  O  O138  1  0.22195750  0.45298150  0.37116250  1
  O  O139  1  0.29881600  0.33602500  0.18637000  1
  O  O140  1  0.31721800  0.19082500  0.85839300  1
  O  O141  1  0.18278200  0.30917500  0.64160700  1
  O  O142  1  0.25000000  0.85049400  0.50000000  1
  O  O143  1  0.27804250  0.95298150  0.37116250  1
  O  O144  1  0.81721800  0.30917500  0.14160700  1
  O  O145  1  0.94562800  0.60498700  0.97667700  1
  O  O146  1  0.77804250  0.04701850  0.37116250  1
  O  O147  1  0.61712900  0.00000000  0.75000000  1
  O  O148  1  0.45318050  0.55904650  0.88405450  1
  O  O149  1  0.54681950  0.05904650  0.61594550  1
  O  O150  1  0.88287100  0.00000000  0.25000000  1
  O  O151  1  0.94562800  0.10498700  0.02332300  1
  O  O152  1  0.68278200  0.19082500  0.35839300  1
  O  O153  1  0.55437200  0.89501300  0.52332300  1
  O  O154  1  0.54681950  0.94095350  0.88405450  1
  O  O155  1  0.75000000  0.14950600  0.50000000  1
  O  O156  1  0.87856450  0.45015650  0.06176950  1
  O  O157  1  0.62143550  0.45015650  0.93823050  1
  O  O158  1  0.95318050  0.55904650  0.61594550  1
  O  O159  1  0.04681950  0.94095350  0.61594550  1
  O  O160  1  0.12143550  0.45015650  0.56176950  1
  O  O161  1  0.86548500  0.33349500  0.78521900  1
  O  O162  1  0.87856450  0.95015650  0.93823050  1
  O  O163  1  0.94562800  0.89501300  0.47667700  1
  O  O164  1  0.22195750  0.04701850  0.87116250  1
  O  O165  1  0.63451500  0.83349500  0.78521900  1
  O  O166  1  0.29881600  0.83602500  0.81363000  1
  O  O167  1  0.87856450  0.04984350  0.56176950  1
  O  O168  1  0.86548500  0.66650500  0.71478100  1
  O  O169  1  0.31721800  0.69082500  0.14160700  1
  O  O170  1  0.95318050  0.44095350  0.88405450  1
  O  O171  1  0.70118400  0.33602500  0.68637000  1
  O  O172  1  0.63451500  0.66650500  0.28521900  1
  O  O173  1  0.62143550  0.04984350  0.43823050  1
  O  O174  1  0.77804250  0.54701850  0.62883750  1
  O  O175  1  0.13451500  0.83349500  0.71478100  1
  O  O176  1  0.54681950  0.55904650  0.38405450  1
  O  O177  1  0.20118400  0.66397500  0.68637000  1
  O  O178  1  0.68278200  0.69082500  0.64160700  1
  O  O179  1  0.75000000  0.85049400  0.00000000  1
  O  O180  1  0.18278200  0.80917500  0.35839300  1
  O  O181  1  0.79881600  0.66397500  0.18637000  1
  O  O182  1  0.36548500  0.66650500  0.78521900  1
  O  O183  1  0.05437200  0.60498700  0.47667700  1
  O  O184  1  0.86548500  0.83349500  0.21478100  1
  O  O185  1  0.62143550  0.54984350  0.56176950  1
  O  O186  1  0.88287100  0.50000000  0.75000000  1
  O  O187  1  0.75000000  0.64950600  0.50000000  1
  O  O188  1  0.72195750  0.45298150  0.12883750  1
  O  O189  1  0.44562800  0.89501300  0.02332300  1
  O  O190  1  0.70118400  0.66397500  0.81363000  1
  O  O191  1  0.81721800  0.80917500  0.85839300  1
  O  O192  1  0.70118400  0.83602500  0.31363000  1
  O  O193  1  0.79881600  0.16397500  0.81363000  1
  O  O194  1  0.63451500  0.16650500  0.71478100  1
  O  O195  1  0.37856450  0.04984350  0.93823050  1
  O  O196  1  0.55437200  0.60498700  0.02332300  1
  O  O197  1  0.72195750  0.04701850  0.62883750  1
  O  O198  1  0.61712900  0.50000000  0.25000000  1
  O  O199  1  0.55437200  0.39501300  0.47667700  1
  O  O200  1  0.95318050  0.94095350  0.11594550  1
  O  O201  1  0.27804250  0.45298150  0.62883750  1
  O  O202  1  0.72195750  0.95298150  0.87116250  1
  O  O203  1  0.79881600  0.83602500  0.68637000  1
  O  O204  1  0.81721800  0.69082500  0.35839300  1
  O  O205  1  0.68278200  0.80917500  0.14160700  1
  O  O206  1  0.75000000  0.35049400  0.00000000  1
  O  O207  1  0.77804250  0.45298150  0.87116250  1
