# generated using pymatgen
data_NaSb(PS3)2
_symmetry_space_group_name_H-M   'P 1'
_cell_length_a   6.64295200
_cell_length_b   7.70284000
_cell_length_c   9.60378402
_cell_angle_alpha   90.00000000
_cell_angle_beta   93.38807937
_cell_angle_gamma   90.00000000
_symmetry_Int_Tables_number   1
_chemical_formula_structural   NaSb(PS3)2
_chemical_formula_sum   'Na2 Sb2 P4 S12'
_cell_volume   490.56281819
_cell_formula_units_Z   2
loop_
 _symmetry_equiv_pos_site_id
 _symmetry_equiv_pos_as_xyz
  1  'x, y, z'
loop_
 _atom_site_type_symbol
 _atom_site_label
 _atom_site_symmetry_multiplicity
 _atom_site_fract_x
 _atom_site_fract_y
 _atom_site_fract_z
 _atom_site_occupancy
  Na  Na0  1  0.30271600  0.46519200  0.49272200  1
  Na  Na1  1  0.69728400  0.96519200  0.50727800  1
  Sb  Sb2  1  0.18767900  0.74764400  0.01619400  1
  Sb  Sb3  1  0.81232100  0.24764400  0.98380600  1
  P  P4  1  0.31013700  0.16453400  0.18131800  1
  P  P5  1  0.19425100  0.94902800  0.31416500  1
  P  P6  1  0.80574900  0.44902800  0.68583500  1
  P  P7  1  0.68986300  0.66453400  0.81868200  1
  S  S8  1  0.34230200  0.05009700  0.98650100  1
  S  S9  1  0.94512000  0.87156000  0.18847500  1
  S  S10  1  0.13467200  0.04812100  0.49630000  1
  S  S11  1  0.86532800  0.54812100  0.50370000  1
  S  S12  1  0.40766000  0.76290100  0.29999000  1
  S  S13  1  0.05488000  0.37156000  0.81152500  1
  S  S14  1  0.09118800  0.35605500  0.17302800  1
  S  S15  1  0.56788000  0.25816600  0.26913300  1
  S  S16  1  0.90881200  0.85605500  0.82697200  1
  S  S17  1  0.43212000  0.75816600  0.73086700  1
  S  S18  1  0.65769800  0.55009700  0.01349900  1
  S  S19  1  0.59234000  0.26290100  0.70001000  1
