# generated using pymatgen
data_Na2Ca(PO3)4
_symmetry_space_group_name_H-M   'P 1'
_cell_length_a   9.77702700
_cell_length_b   9.77702700
_cell_length_c   5.00971500
_cell_angle_alpha   90.00000000
_cell_angle_beta   90.00000000
_cell_angle_gamma   90.00000000
_symmetry_Int_Tables_number   1
_chemical_formula_structural   Na2Ca(PO3)4
_chemical_formula_sum   'Na4 Ca2 P8 O24'
_cell_volume   478.87994414
_cell_formula_units_Z   2
loop_
 _symmetry_equiv_pos_site_id
 _symmetry_equiv_pos_as_xyz
  1  'x, y, z'
loop_
 _atom_site_type_symbol
 _atom_site_label
 _atom_site_symmetry_multiplicity
 _atom_site_fract_x
 _atom_site_fract_y
 _atom_site_fract_z
 _atom_site_occupancy
  Na  Na0  1  0.75000000  0.75000000  0.50000000  1
  Na  Na1  1  0.25000000  0.75000000  0.50000000  1
  Na  Na2  1  0.75000000  0.25000000  0.50000000  1
  Na  Na3  1  0.25000000  0.25000000  0.50000000  1
  Ca  Ca4  1  0.00000000  0.00000000  0.50000000  1
  Ca  Ca5  1  0.50000000  0.50000000  0.50000000  1
  P  P6  1  0.28252800  0.00000000  0.00000000  1
  P  P7  1  0.00000000  0.28252800  0.00000000  1
  P  P8  1  0.00000000  0.71747200  0.00000000  1
  P  P9  1  0.71747200  0.00000000  0.00000000  1
  P  P10  1  0.21747200  0.50000000  0.00000000  1
  P  P11  1  0.50000000  0.21747200  0.00000000  1
  P  P12  1  0.50000000  0.78252800  0.00000000  1
  P  P13  1  0.78252800  0.50000000  0.00000000  1
  O  O14  1  0.38703700  0.11296300  0.12815500  1
  O  O15  1  0.88703700  0.38703700  0.12815500  1
  O  O16  1  0.11296300  0.61296300  0.12815500  1
  O  O17  1  0.61296300  0.88703700  0.12815500  1
  O  O18  1  0.38703700  0.88703700  0.87184500  1
  O  O19  1  0.61296300  0.11296300  0.87184500  1
  O  O20  1  0.11296300  0.38703700  0.87184500  1
  O  O21  1  0.88703700  0.61296300  0.87184500  1
  O  O22  1  0.94026000  0.79272600  0.23283800  1
  O  O23  1  0.20727400  0.94026000  0.23283800  1
  O  O24  1  0.79272600  0.05974000  0.23283800  1
  O  O25  1  0.05974000  0.20727400  0.23283800  1
  O  O26  1  0.94026000  0.20727400  0.76716200  1
  O  O27  1  0.05974000  0.79272600  0.76716200  1
  O  O28  1  0.79272600  0.94026000  0.76716200  1
  O  O29  1  0.20727400  0.05974000  0.76716200  1
  O  O30  1  0.55974000  0.70727400  0.76716200  1
  O  O31  1  0.29272600  0.55974000  0.76716200  1
  O  O32  1  0.70727400  0.44026000  0.76716200  1
  O  O33  1  0.44026000  0.29272600  0.76716200  1
  O  O34  1  0.55974000  0.29272600  0.23283800  1
  O  O35  1  0.44026000  0.70727400  0.23283800  1
  O  O36  1  0.70727400  0.55974000  0.23283800  1
  O  O37  1  0.29272600  0.44026000  0.23283800  1
