# generated using pymatgen
data_K2In(PSe4)2
_symmetry_space_group_name_H-M   'P 1'
_cell_length_a   11.39400400
_cell_length_b   23.20268200
_cell_length_c   13.03766797
_cell_angle_alpha   90.00000000
_cell_angle_beta   109.04671984
_cell_angle_gamma   90.00000000
_symmetry_Int_Tables_number   1
_chemical_formula_structural   K2In(PSe4)2
_chemical_formula_sum   'K16 In8 P16 Se64'
_cell_volume   3258.08521640
_cell_formula_units_Z   8
loop_
 _symmetry_equiv_pos_site_id
 _symmetry_equiv_pos_as_xyz
  1  'x, y, z'
loop_
 _atom_site_type_symbol
 _atom_site_label
 _atom_site_symmetry_multiplicity
 _atom_site_fract_x
 _atom_site_fract_y
 _atom_site_fract_z
 _atom_site_occupancy
  K  K0  1  0.68696350  0.55936850  0.92823200  1
  K  K1  1  0.65834350  0.70013350  0.65329200  1
  K  K2  1  0.09346950  0.69939250  0.67792300  1
  K  K3  1  0.15834350  0.79986650  0.15329200  1
  K  K4  1  0.18696350  0.94063150  0.42823200  1
  K  K5  1  0.29648500  0.55430400  0.98265900  1
  K  K6  1  0.79648500  0.94569600  0.48265900  1
  K  K7  1  0.59346950  0.80060750  0.17792300  1
  K  K8  1  0.18696350  0.05936850  0.92823200  1
  K  K9  1  0.15834350  0.20013350  0.65329200  1
  K  K10  1  0.59346950  0.19939250  0.67792300  1
  K  K11  1  0.65834350  0.29986650  0.15329200  1
  K  K12  1  0.68696350  0.44063150  0.42823200  1
  K  K13  1  0.79648500  0.05430400  0.98265900  1
  K  K14  1  0.29648500  0.44569600  0.48265900  1
  K  K15  1  0.09346950  0.30060750  0.17792300  1
  In  In16  1  0.25510000  0.87843800  0.80987900  1
  In  In17  1  0.11762850  0.61776050  0.31631100  1
  In  In18  1  0.75510000  0.62156200  0.30987900  1
  In  In19  1  0.61762850  0.88223950  0.81631100  1
  In  In20  1  0.75510000  0.37843800  0.80987900  1
  In  In21  1  0.61762850  0.11776050  0.31631100  1
  In  In22  1  0.25510000  0.12156200  0.30987900  1
  In  In23  1  0.11762850  0.38223950  0.81631100  1
  P  P24  1  0.92910400  0.52598600  0.79506600  1
  P  P25  1  0.95426600  0.91727800  0.86645800  1
  P  P26  1  0.44065600  0.73389800  0.83041200  1
  P  P27  1  0.41456450  0.66304950  0.25790900  1
  P  P28  1  0.94065600  0.76610200  0.33041200  1
  P  P29  1  0.42910400  0.97401400  0.29506600  1
  P  P30  1  0.45426600  0.58272200  0.36645800  1
  P  P31  1  0.91456450  0.83695050  0.75790900  1
  P  P32  1  0.42910400  0.02598600  0.79506600  1
  P  P33  1  0.45426600  0.41727800  0.86645800  1
  P  P34  1  0.94065600  0.23389800  0.83041200  1
  P  P35  1  0.91456450  0.16304950  0.25790900  1
  P  P36  1  0.44065600  0.26610200  0.33041200  1
  P  P37  1  0.92910400  0.47401400  0.29506600  1
  P  P38  1  0.95426600  0.08272200  0.36645800  1
  P  P39  1  0.41456450  0.33695050  0.75790900  1
  Se  Se40  1  0.24253350  0.98674150  0.71301500  1
  Se  Se41  1  0.87630800  0.74460600  0.14908700  1
  Se  Se42  1  0.63057050  0.76902050  0.90360300  1
  Se  Se43  1  0.48532000  0.99325100  0.47763200  1
  Se  Se44  1  0.53076550  0.65081350  0.15013200  1
  Se  Se45  1  0.80137850  0.73164150  0.40112800  1
  Se  Se46  1  0.87794900  0.64258200  0.15717500  1
  Se  Se47  1  0.15383400  0.90945300  0.96839200  1
  Se  Se48  1  0.49048300  0.90455700  0.96768900  1
  Se  Se49  1  0.74253350  0.51325850  0.21301500  1
  Se  Se50  1  0.03076550  0.84918650  0.65013200  1
  Se  Se51  1  0.41043900  0.50619000  0.26629300  1
  Se  Se52  1  0.42918500  0.64013900  0.81323900  1
  Se  Se53  1  0.98532000  0.50674900  0.97763200  1
  Se  Se54  1  0.95286100  0.76048900  0.85705700  1
  Se  Se55  1  0.84404250  0.90294850  0.97758300  1
  Se  Se56  1  0.71622900  0.84866000  0.65409000  1
  Se  Se57  1  0.41859050  0.87998150  0.30184700  1
  Se  Se58  1  0.08853150  0.50326050  0.24389600  1
  Se  Se59  1  0.21622900  0.65134000  0.15409000  1
  Se  Se60  1  0.92918500  0.85986100  0.31323900  1
  Se  Se61  1  0.37630800  0.75539400  0.64908700  1
  Se  Se62  1  0.91859050  0.62001850  0.80184700  1
  Se  Se63  1  0.91043900  0.99381000  0.76629300  1
  Se  Se64  1  0.34404250  0.59705150  0.47758300  1
  Se  Se65  1  0.65383400  0.59054700  0.46839200  1
  Se  Se66  1  0.99048300  0.59544300  0.46768900  1
  Se  Se67  1  0.58853150  0.99673950  0.74389600  1
  Se  Se68  1  0.37794900  0.85741800  0.65717500  1
  Se  Se69  1  0.45286100  0.73951100  0.35705700  1
  Se  Se70  1  0.30137850  0.76835850  0.90112800  1
  Se  Se71  1  0.13057050  0.73097950  0.40360300  1
  Se  Se72  1  0.74253350  0.48674150  0.71301500  1
  Se  Se73  1  0.37630800  0.24460600  0.14908700  1
  Se  Se74  1  0.13057050  0.26902050  0.90360300  1
  Se  Se75  1  0.98532000  0.49325100  0.47763200  1
  Se  Se76  1  0.03076550  0.15081350  0.15013200  1
  Se  Se77  1  0.30137850  0.23164150  0.40112800  1
  Se  Se78  1  0.37794900  0.14258200  0.15717500  1
  Se  Se79  1  0.65383400  0.40945300  0.96839200  1
  Se  Se80  1  0.99048300  0.40455700  0.96768900  1
  Se  Se81  1  0.24253350  0.01325850  0.21301500  1
  Se  Se82  1  0.53076550  0.34918650  0.65013200  1
  Se  Se83  1  0.91043900  0.00619000  0.26629300  1
  Se  Se84  1  0.92918500  0.14013900  0.81323900  1
  Se  Se85  1  0.48532000  0.00674900  0.97763200  1
  Se  Se86  1  0.45286100  0.26048900  0.85705700  1
  Se  Se87  1  0.34404250  0.40294850  0.97758300  1
  Se  Se88  1  0.21622900  0.34866000  0.65409000  1
  Se  Se89  1  0.91859050  0.37998150  0.30184700  1
  Se  Se90  1  0.58853150  0.00326050  0.24389600  1
  Se  Se91  1  0.71622900  0.15134000  0.15409000  1
  Se  Se92  1  0.42918500  0.35986100  0.31323900  1
  Se  Se93  1  0.87630800  0.25539400  0.64908700  1
  Se  Se94  1  0.41859050  0.12001850  0.80184700  1
  Se  Se95  1  0.41043900  0.49381000  0.76629300  1
  Se  Se96  1  0.84404250  0.09705150  0.47758300  1
  Se  Se97  1  0.15383400  0.09054700  0.46839200  1
  Se  Se98  1  0.49048300  0.09544300  0.46768900  1
  Se  Se99  1  0.08853150  0.49673950  0.74389600  1
  Se  Se100  1  0.87794900  0.35741800  0.65717500  1
  Se  Se101  1  0.95286100  0.23951100  0.35705700  1
  Se  Se102  1  0.80137850  0.26835850  0.90112800  1
  Se  Se103  1  0.63057050  0.23097950  0.40360300  1
