# generated using pymatgen
data_BaGa2(GeO4)2
_symmetry_space_group_name_H-M   'P 1'
_cell_length_a   13.99639200
_cell_length_b   13.72350600
_cell_length_c   9.02411909
_cell_angle_alpha   90.00000000
_cell_angle_beta   100.94735439
_cell_angle_gamma   90.00000000
_symmetry_Int_Tables_number   1
_chemical_formula_structural   BaGa2(GeO4)2
_chemical_formula_sum   'Ba8 Ga16 Ge16 O64'
_cell_volume   1701.80558653
_cell_formula_units_Z   8
loop_
 _symmetry_equiv_pos_site_id
 _symmetry_equiv_pos_as_xyz
  1  'x, y, z'
loop_
 _atom_site_type_symbol
 _atom_site_label
 _atom_site_symmetry_multiplicity
 _atom_site_fract_x
 _atom_site_fract_y
 _atom_site_fract_z
 _atom_site_occupancy
  Ba  Ba0  1  0.81690950  0.25034850  0.79225300  1
  Ba  Ba1  1  0.18309050  0.25034850  0.70774700  1
  Ba  Ba2  1  0.18309050  0.74965150  0.20774700  1
  Ba  Ba3  1  0.81690950  0.74965150  0.29225300  1
  Ba  Ba4  1  0.31690950  0.75034850  0.79225300  1
  Ba  Ba5  1  0.68309050  0.75034850  0.70774700  1
  Ba  Ba6  1  0.68309050  0.24965150  0.20774700  1
  Ba  Ba7  1  0.31690950  0.24965150  0.29225300  1
  Ga  Ga8  1  0.36536700  0.43270000  0.61427500  1
  Ga  Ga9  1  0.63463300  0.43270000  0.88572500  1
  Ga  Ga10  1  0.63463300  0.56730000  0.38572500  1
  Ga  Ga11  1  0.36536700  0.56730000  0.11427500  1
  Ga  Ga12  1  0.92388950  0.37243550  0.47301800  1
  Ga  Ga13  1  0.07611050  0.37243550  0.02698200  1
  Ga  Ga14  1  0.07611050  0.62756450  0.52698200  1
  Ga  Ga15  1  0.92388950  0.62756450  0.97301800  1
  Ga  Ga16  1  0.86536700  0.93270000  0.61427500  1
  Ga  Ga17  1  0.13463300  0.93270000  0.88572500  1
  Ga  Ga18  1  0.13463300  0.06730000  0.38572500  1
  Ga  Ga19  1  0.86536700  0.06730000  0.11427500  1
  Ga  Ga20  1  0.42388950  0.87243550  0.47301800  1
  Ga  Ga21  1  0.57611050  0.87243550  0.02698200  1
  Ga  Ga22  1  0.57611050  0.12756450  0.52698200  1
  Ga  Ga23  1  0.42388950  0.12756450  0.97301800  1
  Ge  Ge24  1  0.85822850  0.42983150  0.10315000  1
  Ge  Ge25  1  0.14177150  0.42983150  0.39685000  1
  Ge  Ge26  1  0.14177150  0.57016850  0.89685000  1
  Ge  Ge27  1  0.85822850  0.57016850  0.60315000  1
  Ge  Ge28  1  0.92313300  0.86518500  0.98066300  1
  Ge  Ge29  1  0.07686700  0.86518500  0.51933700  1
  Ge  Ge30  1  0.07686700  0.13481500  0.01933700  1
  Ge  Ge31  1  0.92313300  0.13481500  0.48066300  1
  Ge  Ge32  1  0.35822850  0.92983150  0.10315000  1
  Ge  Ge33  1  0.64177150  0.92983150  0.39685000  1
  Ge  Ge34  1  0.64177150  0.07016850  0.89685000  1
  Ge  Ge35  1  0.35822850  0.07016850  0.60315000  1
  Ge  Ge36  1  0.42313300  0.36518500  0.98066300  1
  Ge  Ge37  1  0.57686700  0.36518500  0.51933700  1
  Ge  Ge38  1  0.57686700  0.63481500  0.01933700  1
  Ge  Ge39  1  0.42313300  0.63481500  0.48066300  1
  O  O40  1  0.74877950  0.37889750  0.99720600  1
  O  O41  1  0.25122050  0.37889750  0.50279400  1
  O  O42  1  0.25122050  0.62110250  0.00279400  1
  O  O43  1  0.74877950  0.62110250  0.49720600  1
  O  O44  1  0.89651800  0.25124900  0.54765400  1
  O  O45  1  0.10348200  0.25124900  0.95234600  1
  O  O46  1  0.10348200  0.74875100  0.45234600  1
  O  O47  1  0.89651800  0.74875100  0.04765400  1
  O  O48  1  0.85356900  0.37523600  0.27858000  1
  O  O49  1  0.14643100  0.37523600  0.22142000  1
  O  O50  1  0.14643100  0.62476400  0.72142000  1
  O  O51  1  0.85356900  0.62476400  0.77858000  1
  O  O52  1  0.35295200  0.37915300  0.79778500  1
  O  O53  1  0.64704800  0.37915300  0.70221500  1
  O  O54  1  0.64704800  0.62084700  0.20221500  1
  O  O55  1  0.35295200  0.62084700  0.29778500  1
  O  O56  1  0.86916700  0.55680200  0.11143500  1
  O  O57  1  0.13083300  0.55680200  0.38856500  1
  O  O58  1  0.13083300  0.44319800  0.88856500  1
  O  O59  1  0.86916700  0.44319800  0.61143500  1
  O  O60  1  0.37996050  0.56494950  0.61961900  1
  O  O61  1  0.62003950  0.56494950  0.88038100  1
  O  O62  1  0.62003950  0.43505050  0.38038100  1
  O  O63  1  0.37996050  0.43505050  0.11961900  1
  O  O64  1  0.94254050  0.37826750  0.00135200  1
  O  O65  1  0.05745950  0.37826750  0.49864800  1
  O  O66  1  0.05745950  0.62173250  0.99864800  1
  O  O67  1  0.94254050  0.62173250  0.50135200  1
  O  O68  1  0.94986650  0.87149150  0.50766300  1
  O  O69  1  0.05013350  0.87149150  0.99233700  1
  O  O70  1  0.05013350  0.12850850  0.49233700  1
  O  O71  1  0.94986650  0.12850850  0.00766300  1
  O  O72  1  0.24877950  0.87889750  0.99720600  1
  O  O73  1  0.75122050  0.87889750  0.50279400  1
  O  O74  1  0.75122050  0.12110250  0.00279400  1
  O  O75  1  0.24877950  0.12110250  0.49720600  1
  O  O76  1  0.39651800  0.75124900  0.54765400  1
  O  O77  1  0.60348200  0.75124900  0.95234600  1
  O  O78  1  0.60348200  0.24875100  0.45234600  1
  O  O79  1  0.39651800  0.24875100  0.04765400  1
  O  O80  1  0.35356900  0.87523600  0.27858000  1
  O  O81  1  0.64643100  0.87523600  0.22142000  1
  O  O82  1  0.64643100  0.12476400  0.72142000  1
  O  O83  1  0.35356900  0.12476400  0.77858000  1
  O  O84  1  0.85295200  0.87915300  0.79778500  1
  O  O85  1  0.14704800  0.87915300  0.70221500  1
  O  O86  1  0.14704800  0.12084700  0.20221500  1
  O  O87  1  0.85295200  0.12084700  0.29778500  1
  O  O88  1  0.36916700  0.05680200  0.11143500  1
  O  O89  1  0.63083300  0.05680200  0.38856500  1
  O  O90  1  0.63083300  0.94319800  0.88856500  1
  O  O91  1  0.36916700  0.94319800  0.61143500  1
  O  O92  1  0.87996050  0.06494950  0.61961900  1
  O  O93  1  0.12003950  0.06494950  0.88038100  1
  O  O94  1  0.12003950  0.93505050  0.38038100  1
  O  O95  1  0.87996050  0.93505050  0.11961900  1
  O  O96  1  0.44254050  0.87826750  0.00135200  1
  O  O97  1  0.55745950  0.87826750  0.49864800  1
  O  O98  1  0.55745950  0.12173250  0.99864800  1
  O  O99  1  0.44254050  0.12173250  0.50135200  1
  O  O100  1  0.44986650  0.37149150  0.50766300  1
  O  O101  1  0.55013350  0.37149150  0.99233700  1
  O  O102  1  0.55013350  0.62850850  0.49233700  1
  O  O103  1  0.44986650  0.62850850  0.00766300  1
