# generated using pymatgen
data_Rb2YGa(SiO3)4
_symmetry_space_group_name_H-M   'P 1'
_cell_length_a   27.26811000
_cell_length_b   7.36339400
_cell_length_c   15.04578255
_cell_angle_alpha   90.00000000
_cell_angle_beta   123.25201861
_cell_angle_gamma   90.00000000
_symmetry_Int_Tables_number   1
_chemical_formula_structural   Rb2YGa(SiO3)4
_chemical_formula_sum   'Rb16 Y8 Ga8 Si32 O96'
_cell_volume   2526.34543535
_cell_formula_units_Z   8
loop_
 _symmetry_equiv_pos_site_id
 _symmetry_equiv_pos_as_xyz
  1  'x, y, z'
loop_
 _atom_site_type_symbol
 _atom_site_label
 _atom_site_symmetry_multiplicity
 _atom_site_fract_x
 _atom_site_fract_y
 _atom_site_fract_z
 _atom_site_occupancy
  Rb  Rb0  1  0.96557550  0.73636250  0.54853800  1
  Rb  Rb1  1  0.19131150  0.49551350  0.96577400  1
  Rb  Rb2  1  0.19131150  0.50448650  0.46577400  1
  Rb  Rb3  1  0.03442450  0.73636250  0.95146200  1
  Rb  Rb4  1  0.03442450  0.26363750  0.45146200  1
  Rb  Rb5  1  0.96557550  0.26363750  0.04853800  1
  Rb  Rb6  1  0.80868850  0.49551350  0.53422600  1
  Rb  Rb7  1  0.80868850  0.50448650  0.03422600  1
  Rb  Rb8  1  0.46557550  0.23636250  0.54853800  1
  Rb  Rb9  1  0.69131150  0.99551350  0.96577400  1
  Rb  Rb10  1  0.69131150  0.00448650  0.46577400  1
  Rb  Rb11  1  0.53442450  0.23636250  0.95146200  1
  Rb  Rb12  1  0.53442450  0.76363750  0.45146200  1
  Rb  Rb13  1  0.46557550  0.76363750  0.04853800  1
  Rb  Rb14  1  0.30868850  0.99551350  0.53422600  1
  Rb  Rb15  1  0.30868850  0.00448650  0.03422600  1
  Y  Y16  1  0.23143950  0.28238850  0.74990800  1
  Y  Y17  1  0.76856050  0.71761150  0.25009200  1
  Y  Y18  1  0.26856050  0.78238850  0.75009200  1
  Y  Y19  1  0.73143950  0.21761150  0.24990800  1
  Y  Y20  1  0.73143950  0.78238850  0.74990800  1
  Y  Y21  1  0.26856050  0.21761150  0.25009200  1
  Y  Y22  1  0.76856050  0.28238850  0.75009200  1
  Y  Y23  1  0.23143950  0.71761150  0.24990800  1
  Ga  Ga24  1  0.93026950  0.29857850  0.77430600  1
  Ga  Ga25  1  0.93026950  0.70142150  0.27430600  1
  Ga  Ga26  1  0.06973050  0.70142150  0.22569400  1
  Ga  Ga27  1  0.06973050  0.29857850  0.72569400  1
  Ga  Ga28  1  0.43026950  0.79857850  0.77430600  1
  Ga  Ga29  1  0.43026950  0.20142150  0.27430600  1
  Ga  Ga30  1  0.56973050  0.20142150  0.22569400  1
  Ga  Ga31  1  0.56973050  0.79857850  0.72569400  1
  Si  Si32  1  0.83684500  0.02371700  0.20329800  1
  Si  Si33  1  0.33684500  0.47628300  0.70329800  1
  Si  Si34  1  0.66865550  0.47222050  0.01066600  1
  Si  Si35  1  0.88024350  0.36053050  0.33876400  1
  Si  Si36  1  0.11975650  0.63946950  0.66123600  1
  Si  Si37  1  0.83134450  0.97222050  0.48933400  1
  Si  Si38  1  0.93760300  0.77255400  0.07744600  1
  Si  Si39  1  0.61975650  0.86053050  0.16123600  1
  Si  Si40  1  0.38024350  0.13946950  0.83876400  1
  Si  Si41  1  0.06239700  0.77255400  0.42255400  1
  Si  Si42  1  0.93760300  0.22744600  0.57744600  1
  Si  Si43  1  0.16865550  0.02777950  0.51066600  1
  Si  Si44  1  0.33134450  0.52777950  0.98933400  1
  Si  Si45  1  0.66315500  0.52371700  0.29670200  1
  Si  Si46  1  0.06239700  0.22744600  0.92255400  1
  Si  Si47  1  0.16315500  0.97628300  0.79670200  1
  Si  Si48  1  0.33684500  0.52371700  0.20329800  1
  Si  Si49  1  0.83684500  0.97628300  0.70329800  1
  Si  Si50  1  0.16865550  0.97222050  0.01066600  1
  Si  Si51  1  0.38024350  0.86053050  0.33876400  1
  Si  Si52  1  0.61975650  0.13946950  0.66123600  1
  Si  Si53  1  0.33134450  0.47222050  0.48933400  1
  Si  Si54  1  0.43760300  0.27255400  0.07744600  1
  Si  Si55  1  0.11975650  0.36053050  0.16123600  1
  Si  Si56  1  0.88024350  0.63946950  0.83876400  1
  Si  Si57  1  0.56239700  0.27255400  0.42255400  1
  Si  Si58  1  0.43760300  0.72744600  0.57744600  1
  Si  Si59  1  0.66865550  0.52777950  0.51066600  1
  Si  Si60  1  0.83134450  0.02777950  0.98933400  1
  Si  Si61  1  0.16315500  0.02371700  0.29670200  1
  Si  Si62  1  0.56239700  0.72744600  0.92255400  1
  Si  Si63  1  0.66315500  0.47628300  0.79670200  1
  O  O64  1  0.99468350  0.82910450  0.37892100  1
  O  O65  1  0.72271600  0.51879600  0.29686400  1
  O  O66  1  0.09160650  0.65518350  0.53257200  1
  O  O67  1  0.85879950  0.81120250  0.22872000  1
  O  O68  1  0.28729400  0.36201600  0.92306100  1
  O  O69  1  0.93226850  0.36100350  0.65810200  1
  O  O70  1  0.06773150  0.63899650  0.34189800  1
  O  O71  1  0.07261150  0.49024350  0.16516400  1
  O  O72  1  0.06773150  0.36100350  0.84189800  1
  O  O73  1  0.17777600  0.90713100  0.91310000  1
  O  O74  1  0.92738850  0.49024350  0.33483600  1
  O  O75  1  0.93226850  0.63899650  0.15810200  1
  O  O76  1  0.11351250  0.84161450  0.70331600  1
  O  O77  1  0.27728400  0.48120400  0.70313600  1
  O  O78  1  0.09815650  0.96331050  0.44353900  1
  O  O79  1  0.77728400  0.01879600  0.20313600  1
  O  O80  1  0.07261150  0.50975650  0.66516400  1
  O  O81  1  0.88648750  0.15838550  0.29668400  1
  O  O82  1  0.17411800  0.20639100  0.57786700  1
  O  O83  1  0.35879950  0.68879750  0.72872000  1
  O  O84  1  0.22271600  0.98120400  0.79686400  1
  O  O85  1  0.18750300  0.57368100  0.72580700  1
  O  O86  1  0.71270600  0.63798400  0.07693900  1
  O  O87  1  0.59160650  0.84481650  0.03257200  1
  O  O88  1  0.90184350  0.03668950  0.55646100  1
  O  O89  1  0.82222400  0.90713100  0.58690000  1
  O  O90  1  0.61351250  0.65838550  0.20331600  1
  O  O91  1  0.90184350  0.96331050  0.05646100  1
  O  O92  1  0.21270600  0.86201600  0.57693900  1
  O  O93  1  0.82588200  0.79360900  0.42213300  1
  O  O94  1  0.81249700  0.42631900  0.27419300  1
  O  O95  1  0.40839350  0.15518350  0.96742800  1
  O  O96  1  0.64120050  0.31120250  0.27128000  1
  O  O97  1  0.38648750  0.34161450  0.79668400  1
  O  O98  1  0.90839350  0.34481650  0.46742800  1
  O  O99  1  0.67411800  0.29360900  0.07786700  1
  O  O100  1  0.92738850  0.50975650  0.83483600  1
  O  O101  1  0.31249700  0.07368100  0.77419300  1
  O  O102  1  0.14120050  0.18879750  0.77128000  1
  O  O103  1  0.78729400  0.13798400  0.42306100  1
  O  O104  1  0.09815650  0.03668950  0.94353900  1
  O  O105  1  0.00531650  0.82910450  0.12107900  1
  O  O106  1  0.17777600  0.09286900  0.41310000  1
  O  O107  1  0.82222400  0.09286900  0.08690000  1
  O  O108  1  0.32588200  0.70639100  0.92213300  1
  O  O109  1  0.68750300  0.92631900  0.22580700  1
  O  O110  1  0.00531650  0.17089550  0.62107900  1
  O  O111  1  0.99468350  0.17089550  0.87892100  1
  O  O112  1  0.49468350  0.32910450  0.37892100  1
  O  O113  1  0.22271600  0.01879600  0.29686400  1
  O  O114  1  0.59160650  0.15518350  0.53257200  1
  O  O115  1  0.35879950  0.31120250  0.22872000  1
  O  O116  1  0.78729400  0.86201600  0.92306100  1
  O  O117  1  0.43226850  0.86100350  0.65810200  1
  O  O118  1  0.56773150  0.13899650  0.34189800  1
  O  O119  1  0.57261150  0.99024350  0.16516400  1
  O  O120  1  0.56773150  0.86100350  0.84189800  1
  O  O121  1  0.67777600  0.40713100  0.91310000  1
  O  O122  1  0.42738850  0.99024350  0.33483600  1
  O  O123  1  0.43226850  0.13899650  0.15810200  1
  O  O124  1  0.61351250  0.34161450  0.70331600  1
  O  O125  1  0.77728400  0.98120400  0.70313600  1
  O  O126  1  0.59815650  0.46331050  0.44353900  1
  O  O127  1  0.27728400  0.51879600  0.20313600  1
  O  O128  1  0.57261150  0.00975650  0.66516400  1
  O  O129  1  0.38648750  0.65838550  0.29668400  1
  O  O130  1  0.67411800  0.70639100  0.57786700  1
  O  O131  1  0.85879950  0.18879750  0.72872000  1
  O  O132  1  0.72271600  0.48120400  0.79686400  1
  O  O133  1  0.68750300  0.07368100  0.72580700  1
  O  O134  1  0.21270600  0.13798400  0.07693900  1
  O  O135  1  0.09160650  0.34481650  0.03257200  1
  O  O136  1  0.40184350  0.53668950  0.55646100  1
  O  O137  1  0.32222400  0.40713100  0.58690000  1
  O  O138  1  0.11351250  0.15838550  0.20331600  1
  O  O139  1  0.40184350  0.46331050  0.05646100  1
  O  O140  1  0.71270600  0.36201600  0.57693900  1
  O  O141  1  0.32588200  0.29360900  0.42213300  1
  O  O142  1  0.31249700  0.92631900  0.27419300  1
  O  O143  1  0.90839350  0.65518350  0.96742800  1
  O  O144  1  0.14120050  0.81120250  0.27128000  1
  O  O145  1  0.88648750  0.84161450  0.79668400  1
  O  O146  1  0.40839350  0.84481650  0.46742800  1
  O  O147  1  0.17411800  0.79360900  0.07786700  1
  O  O148  1  0.42738850  0.00975650  0.83483600  1
  O  O149  1  0.81249700  0.57368100  0.77419300  1
  O  O150  1  0.64120050  0.68879750  0.77128000  1
  O  O151  1  0.28729400  0.63798400  0.42306100  1
  O  O152  1  0.59815650  0.53668950  0.94353900  1
  O  O153  1  0.50531650  0.32910450  0.12107900  1
  O  O154  1  0.67777600  0.59286900  0.41310000  1
  O  O155  1  0.32222400  0.59286900  0.08690000  1
  O  O156  1  0.82588200  0.20639100  0.92213300  1
  O  O157  1  0.18750300  0.42631900  0.22580700  1
  O  O158  1  0.50531650  0.67089550  0.62107900  1
  O  O159  1  0.49468350  0.67089550  0.87892100  1
