# generated using pymatgen
data_ZrNCl
_symmetry_space_group_name_H-M   'P 1'
_cell_length_a   3.64660789
_cell_length_b   3.64660789
_cell_length_c   28.69408581
_cell_angle_alpha   90.00000000
_cell_angle_beta   90.00000000
_cell_angle_gamma   120.00000000
_symmetry_Int_Tables_number   1
_chemical_formula_structural   ZrNCl
_chemical_formula_sum   'Zr6 N6 Cl6'
_cell_volume   330.44650143
_cell_formula_units_Z   6
loop_
 _symmetry_equiv_pos_site_id
 _symmetry_equiv_pos_as_xyz
  1  'x, y, z'
loop_
 _atom_site_type_symbol
 _atom_site_label
 _atom_site_symmetry_multiplicity
 _atom_site_fract_x
 _atom_site_fract_y
 _atom_site_fract_z
 _atom_site_occupancy
  Zr  Zr0  1  0.00000000  0.00000000  0.12067700  1
  Zr  Zr1  1  0.66666667  0.33333333  0.21265633  1
  Zr  Zr2  1  0.66666667  0.33333333  0.45401033  1
  Zr  Zr3  1  0.33333333  0.66666667  0.54598967  1
  Zr  Zr4  1  0.33333333  0.66666667  0.78734367  1
  Zr  Zr5  1  0.00000000  0.00000000  0.87932300  1
  N  N6  1  0.00000000  0.00000000  0.19690600  1
  N  N7  1  0.66666667  0.33333333  0.13642733  1
  N  N8  1  0.66666667  0.33333333  0.53023933  1
  N  N9  1  0.33333333  0.66666667  0.46976067  1
  N  N10  1  0.33333333  0.66666667  0.86357267  1
  N  N11  1  0.00000000  0.00000000  0.80309400  1
  Cl  Cl12  1  0.33333333  0.66666667  0.05739367  1
  Cl  Cl13  1  0.33333333  0.66666667  0.27593967  1
  Cl  Cl14  1  0.00000000  0.00000000  0.39072700  1
  Cl  Cl15  1  0.00000000  0.00000000  0.60927300  1
  Cl  Cl16  1  0.66666667  0.33333333  0.72406033  1
  Cl  Cl17  1  0.66666667  0.33333333  0.94260633  1
