# generated using pymatgen
data_ZrIN
_symmetry_space_group_name_H-M   'P 1'
_cell_length_a   3.75824001
_cell_length_b   3.75824001
_cell_length_c   32.50902355
_cell_angle_alpha   90.00000000
_cell_angle_beta   90.00000000
_cell_angle_gamma   120.00000000
_symmetry_Int_Tables_number   1
_chemical_formula_structural   ZrIN
_chemical_formula_sum   'Zr6 I6 N6'
_cell_volume   397.65237558
_cell_formula_units_Z   6
loop_
 _symmetry_equiv_pos_site_id
 _symmetry_equiv_pos_as_xyz
  1  'x, y, z'
loop_
 _atom_site_type_symbol
 _atom_site_label
 _atom_site_symmetry_multiplicity
 _atom_site_fract_x
 _atom_site_fract_y
 _atom_site_fract_z
 _atom_site_occupancy
  Zr  Zr0  1  0.00000000  0.00000000  0.20612100  1
  Zr  Zr1  1  0.66666667  0.33333333  0.12721233  1
  Zr  Zr2  1  0.66666667  0.33333333  0.53945433  1
  Zr  Zr3  1  0.33333333  0.66666667  0.46054567  1
  Zr  Zr4  1  0.33333333  0.66666667  0.87278767  1
  Zr  Zr5  1  0.00000000  0.00000000  0.79387900  1
  I  I6  1  0.33333333  0.66666667  0.27441467  1
  I  I7  1  0.33333333  0.66666667  0.05891867  1
  I  I8  1  0.00000000  0.00000000  0.60774800  1
  I  I9  1  0.00000000  0.00000000  0.39225200  1
  I  I10  1  0.66666667  0.33333333  0.94108133  1
  I  I11  1  0.66666667  0.33333333  0.72558533  1
  N  N12  1  0.66666667  0.33333333  0.19386133  1
  N  N13  1  0.00000000  0.00000000  0.13947200  1
  N  N14  1  0.33333333  0.66666667  0.52719467  1
  N  N15  1  0.66666667  0.33333333  0.47280533  1
  N  N16  1  0.00000000  0.00000000  0.86052800  1
  N  N17  1  0.33333333  0.66666667  0.80613867  1
