# generated using pymatgen
data_BaFeF4
_symmetry_space_group_name_H-M   'P 1'
_cell_length_a   4.30916600
_cell_length_b   15.24329800
_cell_length_c   5.89726600
_cell_angle_alpha   90.00000000
_cell_angle_beta   90.00000000
_cell_angle_gamma   90.00000000
_symmetry_Int_Tables_number   1
_chemical_formula_structural   BaFeF4
_chemical_formula_sum   'Ba4 Fe4 F16'
_cell_volume   387.36723342
_cell_formula_units_Z   4
loop_
 _symmetry_equiv_pos_site_id
 _symmetry_equiv_pos_as_xyz
  1  'x, y, z'
loop_
 _atom_site_type_symbol
 _atom_site_label
 _atom_site_symmetry_multiplicity
 _atom_site_fract_x
 _atom_site_fract_y
 _atom_site_fract_z
 _atom_site_occupancy
  Ba  Ba0  1  0.00000000  0.84682700  0.03650100  1
  Ba  Ba1  1  0.50000000  0.65317300  0.53650100  1
  Ba  Ba2  1  0.50000000  0.34682700  0.03650100  1
  Ba  Ba3  1  0.00000000  0.15317300  0.53650100  1
  Fe  Fe4  1  0.50000000  0.91415200  0.49454000  1
  Fe  Fe5  1  0.00000000  0.58584800  0.99454000  1
  Fe  Fe6  1  0.00000000  0.41415200  0.49454000  1
  Fe  Fe7  1  0.50000000  0.08584800  0.99454000  1
  F  F8  1  0.00000000  0.91733500  0.48083100  1
  F  F9  1  0.50000000  0.58266500  0.98083100  1
  F  F10  1  0.50000000  0.96748800  0.14781200  1
  F  F11  1  0.00000000  0.53251200  0.64781200  1
  F  F12  1  0.00000000  0.69765700  0.79853300  1
  F  F13  1  0.50000000  0.80234300  0.29853300  1
  F  F14  1  0.00000000  0.67009800  0.26938300  1
  F  F15  1  0.50000000  0.82990200  0.76938300  1
  F  F16  1  0.50000000  0.41733500  0.48083100  1
  F  F17  1  0.00000000  0.08266500  0.98083100  1
  F  F18  1  0.00000000  0.46748800  0.14781200  1
  F  F19  1  0.50000000  0.03251200  0.64781200  1
  F  F20  1  0.50000000  0.19765700  0.79853300  1
  F  F21  1  0.00000000  0.30234300  0.29853300  1
  F  F22  1  0.50000000  0.17009800  0.26938300  1
  F  F23  1  0.00000000  0.32990200  0.76938300  1
