# generated using pymatgen
data_Na4MgC6(SN)6
_symmetry_space_group_name_H-M   'P 1'
_cell_length_a   8.74645146
_cell_length_b   8.74645146
_cell_length_c   14.08479800
_cell_angle_alpha   90.00000000
_cell_angle_beta   90.00000000
_cell_angle_gamma   120.00000000
_symmetry_Int_Tables_number   1
_chemical_formula_structural   Na4MgC6(SN)6
_chemical_formula_sum   'Na8 Mg2 C12 S12 N12'
_cell_volume   933.13619411
_cell_formula_units_Z   2
loop_
 _symmetry_equiv_pos_site_id
 _symmetry_equiv_pos_as_xyz
  1  'x, y, z'
loop_
 _atom_site_type_symbol
 _atom_site_label
 _atom_site_symmetry_multiplicity
 _atom_site_fract_x
 _atom_site_fract_y
 _atom_site_fract_z
 _atom_site_occupancy
  Na  Na0  1  0.33333333  0.66666667  0.97482600  1
  Na  Na1  1  0.66666667  0.33333333  0.47482600  1
  Na  Na2  1  0.66666667  0.33333333  0.02517400  1
  Na  Na3  1  0.33333333  0.66666667  0.52517400  1
  Na  Na4  1  0.00000000  0.00000000  0.00000000  1
  Na  Na5  1  0.33333333  0.66666667  0.25000000  1
  Na  Na6  1  0.00000000  0.00000000  0.50000000  1
  Na  Na7  1  0.66666667  0.33333333  0.75000000  1
  Mg  Mg8  1  0.66666667  0.33333333  0.25000000  1
  Mg  Mg9  1  0.33333333  0.66666667  0.75000000  1
  C  C10  1  0.34203300  0.99872900  0.36432200  1
  C  C11  1  0.65796700  0.00127100  0.63567800  1
  C  C12  1  0.34330400  0.00127100  0.86432200  1
  C  C13  1  0.99872900  0.65669600  0.63567800  1
  C  C14  1  0.00127100  0.34330400  0.36432200  1
  C  C15  1  0.34330400  0.34203300  0.63567800  1
  C  C16  1  0.99872900  0.34203300  0.86432200  1
  C  C17  1  0.65669600  0.99872900  0.13567800  1
  C  C18  1  0.00127100  0.65796700  0.13567800  1
  C  C19  1  0.65796700  0.65669600  0.86432200  1
  C  C20  1  0.65669600  0.65796700  0.36432200  1
  C  C21  1  0.34203300  0.34330400  0.13567800  1
  S  S22  1  0.16617300  0.81290700  0.39210900  1
  S  S23  1  0.64673400  0.81290700  0.10789100  1
  S  S24  1  0.83382700  0.18709300  0.60789100  1
  S  S25  1  0.18709300  0.35326600  0.39210900  1
  S  S26  1  0.64673400  0.83382700  0.39210900  1
  S  S27  1  0.16617300  0.35326600  0.10789100  1
  S  S28  1  0.83382700  0.64673400  0.89210900  1
  S  S29  1  0.35326600  0.16617300  0.60789100  1
  S  S30  1  0.81290700  0.64673400  0.60789100  1
  S  S31  1  0.81290700  0.16617300  0.89210900  1
  S  S32  1  0.35326600  0.18709300  0.89210900  1
  S  S33  1  0.18709300  0.83382700  0.10789100  1
  N  N34  1  0.33724100  0.86737400  0.84288300  1
  N  N35  1  0.53013300  0.66275900  0.84288300  1
  N  N36  1  0.13262600  0.66275900  0.65711700  1
  N  N37  1  0.86737400  0.53013300  0.15711700  1
  N  N38  1  0.53013300  0.86737400  0.65711700  1
  N  N39  1  0.13262600  0.46986700  0.84288300  1
  N  N40  1  0.86737400  0.33724100  0.34288300  1
  N  N41  1  0.33724100  0.46986700  0.65711700  1
  N  N42  1  0.46986700  0.33724100  0.15711700  1
  N  N43  1  0.46986700  0.13262600  0.34288300  1
  N  N44  1  0.66275900  0.53013300  0.34288300  1
  N  N45  1  0.66275900  0.13262600  0.15711700  1
