# generated using pymatgen
data_KGd(PO3)4
_symmetry_space_group_name_H-M   'P 1'
_cell_length_a   7.35857800
_cell_length_b   8.52620000
_cell_length_c   7.99774742
_cell_angle_alpha   90.00000000
_cell_angle_beta   91.55080625
_cell_angle_gamma   90.00000000
_symmetry_Int_Tables_number   1
_chemical_formula_structural   KGd(PO3)4
_chemical_formula_sum   'K2 Gd2 P8 O24'
_cell_volume   501.60053960
_cell_formula_units_Z   2
loop_
 _symmetry_equiv_pos_site_id
 _symmetry_equiv_pos_as_xyz
  1  'x, y, z'
loop_
 _atom_site_type_symbol
 _atom_site_label
 _atom_site_symmetry_multiplicity
 _atom_site_fract_x
 _atom_site_fract_y
 _atom_site_fract_z
 _atom_site_occupancy
  K  K0  1  0.73197700  0.56169600  0.27923500  1
  K  K1  1  0.26802300  0.06169600  0.72076500  1
  Gd  Gd2  1  0.76283300  0.24952700  0.75872700  1
  Gd  Gd3  1  0.23716700  0.74952700  0.24127300  1
  P  P4  1  0.43557900  0.12366200  0.09825600  1
  P  P5  1  0.56442100  0.62366200  0.90174400  1
  P  P6  1  0.38496900  0.49869200  0.59734300  1
  P  P7  1  0.09762200  0.32594600  0.10292300  1
  P  P8  1  0.90237800  0.82594600  0.89707700  1
  P  P9  1  0.99601800  0.09662700  0.38371600  1
  P  P10  1  0.61503100  0.99869200  0.40265700  1
  P  P11  1  0.00398200  0.59662700  0.61628400  1
  O  O12  1  0.97343200  0.79416100  0.07197200  1
  O  O13  1  0.17699900  0.48524600  0.65373200  1
  O  O14  1  0.30790500  0.27549100  0.11983100  1
  O  O15  1  0.69209500  0.77549100  0.88016900  1
  O  O16  1  0.16210300  0.99429500  0.38501400  1
  O  O17  1  0.82300100  0.98524600  0.34626800  1
  O  O18  1  0.46075700  0.63546700  0.72172400  1
  O  O19  1  0.02656800  0.29416100  0.92802800  1
  O  O20  1  0.96727900  0.19442900  0.53711000  1
  O  O21  1  0.08605800  0.48766500  0.17413700  1
  O  O22  1  0.39144400  0.55851600  0.42145200  1
  O  O23  1  0.03272100  0.69442900  0.46289000  1
  O  O24  1  0.56785900  0.15729100  0.96295200  1
  O  O25  1  0.83789700  0.49429500  0.61498600  1
  O  O26  1  0.01322000  0.70593400  0.77978400  1
  O  O27  1  0.52537700  0.84592600  0.35896000  1
  O  O28  1  0.32391700  0.97782900  0.07479400  1
  O  O29  1  0.91394200  0.98766500  0.82586300  1
  O  O30  1  0.43214100  0.65729100  0.03704800  1
  O  O31  1  0.47462300  0.34592600  0.64104000  1
  O  O32  1  0.60855600  0.05851600  0.57854800  1
  O  O33  1  0.53924300  0.13546700  0.27827600  1
  O  O34  1  0.98678000  0.20593400  0.22021600  1
  O  O35  1  0.67608300  0.47782900  0.92520600  1
