# generated using pymatgen
data_Bi4RuI2
_symmetry_space_group_name_H-M   'P 1'
_cell_length_a   12.46332400
_cell_length_b   12.46332400
_cell_length_c   6.88257400
_cell_angle_alpha   90.00000000
_cell_angle_beta   90.00000000
_cell_angle_gamma   90.00000000
_symmetry_Int_Tables_number   1
_chemical_formula_structural   Bi4RuI2
_chemical_formula_sum   'Bi16 Ru4 I8'
_cell_volume   1069.10081335
_cell_formula_units_Z   4
loop_
 _symmetry_equiv_pos_site_id
 _symmetry_equiv_pos_as_xyz
  1  'x, y, z'
loop_
 _atom_site_type_symbol
 _atom_site_label
 _atom_site_symmetry_multiplicity
 _atom_site_fract_x
 _atom_site_fract_y
 _atom_site_fract_z
 _atom_site_occupancy
  Bi  Bi0  1  0.83765850  0.94170950  0.00000000  1
  Bi  Bi1  1  0.44170950  0.66234150  0.50000000  1
  Bi  Bi2  1  0.55829050  0.33765850  0.50000000  1
  Bi  Bi3  1  0.16234150  0.05829050  0.00000000  1
  Bi  Bi4  1  0.41480300  0.32769500  0.00000000  1
  Bi  Bi5  1  0.82769500  0.08519700  0.50000000  1
  Bi  Bi6  1  0.17230500  0.91480300  0.50000000  1
  Bi  Bi7  1  0.58519700  0.67230500  0.00000000  1
  Bi  Bi8  1  0.33765850  0.44170950  0.50000000  1
  Bi  Bi9  1  0.94170950  0.16234150  0.00000000  1
  Bi  Bi10  1  0.05829050  0.83765850  0.00000000  1
  Bi  Bi11  1  0.66234150  0.55829050  0.50000000  1
  Bi  Bi12  1  0.91480300  0.82769500  0.50000000  1
  Bi  Bi13  1  0.32769500  0.58519700  0.00000000  1
  Bi  Bi14  1  0.67230500  0.41480300  0.00000000  1
  Bi  Bi15  1  0.08519700  0.17230500  0.50000000  1
  Ru  Ru16  1  0.00000000  0.00000000  0.70952200  1
  Ru  Ru17  1  0.00000000  0.00000000  0.29047800  1
  Ru  Ru18  1  0.50000000  0.50000000  0.20952200  1
  Ru  Ru19  1  0.50000000  0.50000000  0.79047800  1
  I  I20  1  0.66276600  0.88432700  0.50000000  1
  I  I21  1  0.38432700  0.83723400  0.00000000  1
  I  I22  1  0.61567300  0.16276600  0.00000000  1
  I  I23  1  0.33723400  0.11567300  0.50000000  1
  I  I24  1  0.16276600  0.38432700  0.00000000  1
  I  I25  1  0.88432700  0.33723400  0.50000000  1
  I  I26  1  0.11567300  0.66276600  0.50000000  1
  I  I27  1  0.83723400  0.61567300  0.00000000  1
