# generated using pymatgen
data_DyTiClO3
_symmetry_space_group_name_H-M   'P 1'
_cell_length_a   9.84150600
_cell_length_b   3.92210000
_cell_length_c   9.90590831
_cell_angle_alpha   90.00000000
_cell_angle_beta   106.76593005
_cell_angle_gamma   90.00000000
_symmetry_Int_Tables_number   1
_chemical_formula_structural   DyTiClO3
_chemical_formula_sum   'Dy4 Ti4 Cl4 O12'
_cell_volume   366.10808304
_cell_formula_units_Z   4
loop_
 _symmetry_equiv_pos_site_id
 _symmetry_equiv_pos_as_xyz
  1  'x, y, z'
loop_
 _atom_site_type_symbol
 _atom_site_label
 _atom_site_symmetry_multiplicity
 _atom_site_fract_x
 _atom_site_fract_y
 _atom_site_fract_z
 _atom_site_occupancy
  Dy  Dy0  1  0.27833100  0.50000000  0.79511700  1
  Dy  Dy1  1  0.72166900  0.50000000  0.20488300  1
  Dy  Dy2  1  0.77833100  0.00000000  0.79511700  1
  Dy  Dy3  1  0.22166900  0.00000000  0.20488300  1
  Ti  Ti4  1  0.11870100  0.50000000  0.42988300  1
  Ti  Ti5  1  0.88129900  0.50000000  0.57011700  1
  Ti  Ti6  1  0.61870100  0.00000000  0.42988300  1
  Ti  Ti7  1  0.38129900  0.00000000  0.57011700  1
  Cl  Cl8  1  0.11403500  0.00000000  0.90521300  1
  Cl  Cl9  1  0.88596500  0.00000000  0.09478700  1
  Cl  Cl10  1  0.61403500  0.50000000  0.90521300  1
  Cl  Cl11  1  0.38596500  0.50000000  0.09478700  1
  O  O12  1  0.16782700  0.00000000  0.43505900  1
  O  O13  1  0.07785600  0.50000000  0.62474000  1
  O  O14  1  0.65064800  0.00000000  0.25209800  1
  O  O15  1  0.34935200  0.00000000  0.74790200  1
  O  O16  1  0.83217300  0.00000000  0.56494100  1
  O  O17  1  0.92214400  0.50000000  0.37526000  1
  O  O18  1  0.66782700  0.50000000  0.43505900  1
  O  O19  1  0.57785600  0.00000000  0.62474000  1
  O  O20  1  0.15064800  0.50000000  0.25209800  1
  O  O21  1  0.84935200  0.50000000  0.74790200  1
  O  O22  1  0.33217300  0.50000000  0.56494100  1
  O  O23  1  0.42214400  0.00000000  0.37526000  1
