# generated using pymatgen
data_Cs2LiInCl6
_symmetry_space_group_name_H-M   'P 1'
_cell_length_a   7.47253653
_cell_length_b   7.47253653
_cell_length_c   36.90467108
_cell_angle_alpha   90.00000000
_cell_angle_beta   90.00000000
_cell_angle_gamma   120.00000000
_symmetry_Int_Tables_number   1
_chemical_formula_structural   Cs2LiInCl6
_chemical_formula_sum   'Cs12 Li6 In6 Cl36'
_cell_volume   1784.62948482
_cell_formula_units_Z   6
loop_
 _symmetry_equiv_pos_site_id
 _symmetry_equiv_pos_as_xyz
  1  'x, y, z'
loop_
 _atom_site_type_symbol
 _atom_site_label
 _atom_site_symmetry_multiplicity
 _atom_site_fract_x
 _atom_site_fract_y
 _atom_site_fract_z
 _atom_site_occupancy
  Cs  Cs0  1  0.66666667  0.33333333  0.20719800  1
  Cs  Cs1  1  0.66666667  0.33333333  0.04403700  1
  Cs  Cs2  1  0.00000000  0.00000000  0.12613533  1
  Cs  Cs3  1  0.00000000  0.00000000  0.28929633  1
  Cs  Cs4  1  0.33333333  0.66666667  0.54053133  1
  Cs  Cs5  1  0.33333333  0.66666667  0.37737033  1
  Cs  Cs6  1  0.66666667  0.33333333  0.45946867  1
  Cs  Cs7  1  0.66666667  0.33333333  0.62262967  1
  Cs  Cs8  1  0.00000000  0.00000000  0.87386467  1
  Cs  Cs9  1  0.00000000  0.00000000  0.71070367  1
  Cs  Cs10  1  0.33333333  0.66666667  0.79280200  1
  Cs  Cs11  1  0.33333333  0.66666667  0.95596300  1
  Li  Li12  1  0.33333333  0.66666667  0.07756567  1
  Li  Li13  1  0.33333333  0.66666667  0.25576767  1
  Li  Li14  1  0.00000000  0.00000000  0.41089900  1
  Li  Li15  1  0.00000000  0.00000000  0.58910100  1
  Li  Li16  1  0.66666667  0.33333333  0.74423233  1
  Li  Li17  1  0.66666667  0.33333333  0.92243433  1
  In  In18  1  0.00000000  0.00000000  0.00000000  1
  In  In19  1  0.33333333  0.66666667  0.16666667  1
  In  In20  1  0.66666667  0.33333333  0.33333333  1
  In  In21  1  1.00000000  1.00000000  0.50000000  1
  In  In22  1  0.33333333  0.66666667  0.66666667  1
  In  In23  1  0.66666667  0.33333333  0.83333333  1
  Cl  Cl24  1  0.67573033  0.83786517  0.03972167  1
  Cl  Cl25  1  0.99093633  0.49546817  0.29361167  1
  Cl  Cl26  1  0.48976617  0.51023383  0.12473633  1
  Cl  Cl27  1  0.02046767  0.51023383  0.12473633  1
  Cl  Cl28  1  0.17690050  0.82309950  0.20859700  1
  Cl  Cl29  1  0.48976617  0.97953233  0.12473633  1
  Cl  Cl30  1  0.16213483  0.83786517  0.03972167  1
  Cl  Cl31  1  0.17690050  0.35380100  0.20859700  1
  Cl  Cl32  1  0.50453183  0.00906367  0.29361167  1
  Cl  Cl33  1  0.64619900  0.82309950  0.20859700  1
  Cl  Cl34  1  0.50453183  0.49546817  0.29361167  1
  Cl  Cl35  1  0.16213483  0.32426967  0.03972167  1
  Cl  Cl36  1  0.34239700  0.17119850  0.37305500  1
  Cl  Cl37  1  0.65760300  0.82880150  0.62694500  1
  Cl  Cl38  1  0.15643283  0.84356717  0.45806967  1
  Cl  Cl39  1  0.68713433  0.84356717  0.45806967  1
  Cl  Cl40  1  0.84356717  0.15643283  0.54193033  1
  Cl  Cl41  1  0.15643283  0.31286567  0.45806967  1
  Cl  Cl42  1  0.82880150  0.17119850  0.37305500  1
  Cl  Cl43  1  0.84356717  0.68713433  0.54193033  1
  Cl  Cl44  1  0.17119850  0.34239700  0.62694500  1
  Cl  Cl45  1  0.31286567  0.15643283  0.54193033  1
  Cl  Cl46  1  0.17119850  0.82880150  0.62694500  1
  Cl  Cl47  1  0.82880150  0.65760300  0.37305500  1
  Cl  Cl48  1  0.00906367  0.50453183  0.70638833  1
  Cl  Cl49  1  0.32426967  0.16213483  0.96027833  1
  Cl  Cl50  1  0.82309950  0.17690050  0.79140300  1
  Cl  Cl51  1  0.35380100  0.17690050  0.79140300  1
  Cl  Cl52  1  0.51023383  0.48976617  0.87526367  1
  Cl  Cl53  1  0.82309950  0.64619900  0.79140300  1
  Cl  Cl54  1  0.49546817  0.50453183  0.70638833  1
  Cl  Cl55  1  0.51023383  0.02046767  0.87526367  1
  Cl  Cl56  1  0.83786517  0.67573033  0.96027833  1
  Cl  Cl57  1  0.97953233  0.48976617  0.87526367  1
  Cl  Cl58  1  0.83786517  0.16213483  0.96027833  1
  Cl  Cl59  1  0.49546817  0.99093633  0.70638833  1
