# generated using pymatgen
data_RbNb(BO3)2
_symmetry_space_group_name_H-M   'P 1'
_cell_length_a   7.52184000
_cell_length_b   20.22424000
_cell_length_c   12.21590974
_cell_angle_alpha   90.00000000
_cell_angle_beta   127.97275068
_cell_angle_gamma   90.00000000
_symmetry_Int_Tables_number   1
_chemical_formula_structural   RbNb(BO3)2
_chemical_formula_sum   'Rb10 Nb10 B20 O60'
_cell_volume   1464.92554871
_cell_formula_units_Z   10
loop_
 _symmetry_equiv_pos_site_id
 _symmetry_equiv_pos_as_xyz
  1  'x, y, z'
loop_
 _atom_site_type_symbol
 _atom_site_label
 _atom_site_symmetry_multiplicity
 _atom_site_fract_x
 _atom_site_fract_y
 _atom_site_fract_z
 _atom_site_occupancy
  Rb  Rb0  1  0.38256800  0.40690600  0.89431400  1
  Rb  Rb1  1  0.38256800  0.59309400  0.39431400  1
  Rb  Rb2  1  0.40288800  0.39332400  0.39975500  1
  Rb  Rb3  1  0.39639700  0.99308800  0.39939500  1
  Rb  Rb4  1  0.38900900  0.20670700  0.89490400  1
  Rb  Rb5  1  0.39639700  0.00691200  0.89939500  1
  Rb  Rb6  1  0.40288800  0.60667600  0.89975500  1
  Rb  Rb7  1  0.38914700  0.19313600  0.40302100  1
  Rb  Rb8  1  0.38914700  0.80686400  0.90302100  1
  Rb  Rb9  1  0.38900900  0.79329300  0.39490400  1
  Nb  Nb10  1  0.01052700  0.66609800  0.49959500  1
  Nb  Nb11  1  0.99829500  0.26769200  0.50106000  1
  Nb  Nb12  1  0.98388500  0.53333800  0.99990600  1
  Nb  Nb13  1  0.01052700  0.33390200  0.99959500  1
  Nb  Nb14  1  0.00251000  0.06800100  0.50301400  1
  Nb  Nb15  1  0.97952800  0.13293800  0.00229200  1
  Nb  Nb16  1  0.00251000  0.93199900  0.00301400  1
  Nb  Nb17  1  0.97952800  0.86706200  0.50229200  1
  Nb  Nb18  1  0.99829500  0.73230800  0.00106000  1
  Nb  Nb19  1  0.98388500  0.46666200  0.49990600  1
  B  B20  1  0.55773000  0.70219800  0.70615800  1
  B  B21  1  0.83902800  0.10264600  0.20625000  1
  B  B22  1  0.86059800  0.49405200  0.21015100  1
  B  B23  1  0.55773000  0.29780200  0.20615800  1
  B  B24  1  0.55154600  0.90750400  0.20636300  1
  B  B25  1  0.86067900  0.70961200  0.20692400  1
  B  B26  1  0.53403700  0.49006300  0.71234900  1
  B  B27  1  0.86067900  0.29038800  0.70692400  1
  B  B28  1  0.89976300  0.31009700  0.21976100  1
  B  B29  1  0.52867900  0.10597800  0.22520400  1
  B  B30  1  0.86059800  0.50594800  0.71015100  1
  B  B31  1  0.89984500  0.90038500  0.22431900  1
  B  B32  1  0.54094800  0.30433000  0.71714200  1
  B  B33  1  0.55154600  0.09249600  0.70636300  1
  B  B34  1  0.53403700  0.50993700  0.21234900  1
  B  B35  1  0.89976300  0.68990300  0.71976100  1
  B  B36  1  0.89984500  0.09961500  0.72431900  1
  B  B37  1  0.54094800  0.69567000  0.21714200  1
  B  B38  1  0.52867900  0.89402200  0.72520400  1
  B  B39  1  0.83902800  0.89735400  0.70625000  1
  O  O40  1  0.33854600  0.06668800  0.62585300  1
  O  O41  1  0.31861400  0.70865700  0.15053500  1
  O  O42  1  0.67136100  0.67181500  0.34940100  1
  O  O43  1  0.99019500  0.08866700  0.65752700  1
  O  O44  1  0.64660900  0.88141400  0.33416100  1
  O  O45  1  0.61058000  0.89003400  0.64848400  1
  O  O46  1  0.33755200  0.31581200  0.12970500  1
  O  O47  1  0.03572000  0.88196900  0.36047600  1
  O  O48  1  0.63157200  0.49201900  0.64395800  1
  O  O49  1  0.66637800  0.08980600  0.64882900  1
  O  O50  1  0.66383200  0.91066600  0.86251300  1
  O  O51  1  0.97594900  0.66949200  0.64849300  1
  O  O52  1  0.61058000  0.10996600  0.14848400  1
  O  O53  1  0.30672600  0.87889700  0.65722500  1
  O  O54  1  0.64772600  0.48999900  0.34652700  1
  O  O55  1  0.67136100  0.32818500  0.84940100  1
  O  O56  1  0.66440200  0.69005400  0.64567500  1
  O  O57  1  0.31935800  0.46538500  0.63733600  1
  O  O58  1  0.99019500  0.91133300  0.15752700  1
  O  O59  1  0.99333300  0.07412100  0.33247900  1
  O  O60  1  0.02116400  0.31338500  0.83764400  1
  O  O61  1  0.66637800  0.91019400  0.14882900  1
  O  O62  1  0.04419500  0.17939400  0.50270600  1
  O  O63  1  0.97155600  0.02078500  0.00413700  1
  O  O64  1  0.91591000  0.26388100  0.62818900  1
  O  O65  1  0.62867900  0.29106300  0.64536400  1
  O  O66  1  0.64660900  0.11858600  0.83416100  1
  O  O67  1  0.33755200  0.68418800  0.62970500  1
  O  O68  1  0.89624100  0.12625000  0.12734600  1
  O  O69  1  0.91591000  0.73611900  0.12818900  1
  O  O70  1  0.04570000  0.70767600  0.85619400  1
  O  O71  1  0.66653700  0.26989500  0.33396200  1
  O  O72  1  0.03401900  0.57679000  0.49668800  1
  O  O73  1  0.94136900  0.49082600  0.63971100  1
  O  O74  1  0.66440200  0.30994600  0.14567500  1
  O  O75  1  0.94398500  0.37810100  0.50212900  1
  O  O76  1  0.03572000  0.11803100  0.86047600  1
  O  O77  1  0.64772600  0.51000100  0.84652700  1
  O  O78  1  0.66383200  0.08933400  0.36251300  1
  O  O79  1  0.99865600  0.53272600  0.83970600  1
  O  O80  1  0.33854600  0.93331200  0.12585300  1
  O  O81  1  0.97832700  0.77745000  0.49786900  1
  O  O82  1  0.99865600  0.46727400  0.33970600  1
  O  O83  1  0.62867900  0.70893700  0.14536400  1
  O  O84  1  0.97155600  0.97921500  0.50413700  1
  O  O85  1  0.31861400  0.29134300  0.65053500  1
  O  O86  1  0.63157200  0.50798100  0.14395800  1
  O  O87  1  0.97832700  0.22255000  0.99786900  1
  O  O88  1  0.99333300  0.92587900  0.83247900  1
  O  O89  1  0.30672600  0.12110300  0.15722500  1
  O  O90  1  0.31935800  0.53461500  0.13733600  1
  O  O91  1  0.02116400  0.68661500  0.33764400  1
  O  O92  1  0.03401900  0.42321000  0.99668800  1
  O  O93  1  0.94136900  0.50917400  0.13971100  1
  O  O94  1  0.89624100  0.87375000  0.62734600  1
  O  O95  1  0.97594900  0.33050800  0.14849300  1
  O  O96  1  0.66653700  0.73010500  0.83396200  1
  O  O97  1  0.04570000  0.29232400  0.35619400  1
  O  O98  1  0.94398500  0.62189900  0.00212900  1
  O  O99  1  0.04419500  0.82060600  0.00270600  1
