# generated using pymatgen
data_GaHg2SbCl4
_symmetry_space_group_name_H-M   'P 1'
_cell_length_a   8.98096100
_cell_length_b   12.50565700
_cell_length_c   18.03982000
_cell_angle_alpha   90.00000000
_cell_angle_beta   90.00000000
_cell_angle_gamma   90.00000000
_symmetry_Int_Tables_number   1
_chemical_formula_structural   GaHg2SbCl4
_chemical_formula_sum   'Ga8 Hg16 Sb8 Cl32'
_cell_volume   2026.10301674
_cell_formula_units_Z   8
loop_
 _symmetry_equiv_pos_site_id
 _symmetry_equiv_pos_as_xyz
  1  'x, y, z'
loop_
 _atom_site_type_symbol
 _atom_site_label
 _atom_site_symmetry_multiplicity
 _atom_site_fract_x
 _atom_site_fract_y
 _atom_site_fract_z
 _atom_site_occupancy
  Ga  Ga0  1  0.33163900  0.98958000  0.62257900  1
  Ga  Ga1  1  0.33775200  0.21000200  0.86554200  1
  Ga  Ga2  1  0.16836100  0.98958000  0.12257900  1
  Ga  Ga3  1  0.66224800  0.71000200  0.13445800  1
  Ga  Ga4  1  0.83163900  0.48958000  0.87742100  1
  Ga  Ga5  1  0.66836100  0.48958000  0.37742100  1
  Ga  Ga6  1  0.83775200  0.71000200  0.63445800  1
  Ga  Ga7  1  0.16224800  0.21000200  0.36554200  1
  Hg  Hg8  1  0.91838800  0.83323000  0.37570500  1
  Hg  Hg9  1  0.58161200  0.83323000  0.87570500  1
  Hg  Hg10  1  0.75509900  0.10105000  0.49249200  1
  Hg  Hg11  1  0.70335000  0.09649500  0.24335800  1
  Hg  Hg12  1  0.20335000  0.59649500  0.25664200  1
  Hg  Hg13  1  0.25509900  0.60105000  0.00750800  1
  Hg  Hg14  1  0.41927000  0.86310100  0.37883500  1
  Hg  Hg15  1  0.79665000  0.09649500  0.74335800  1
  Hg  Hg16  1  0.08073000  0.86310100  0.87883500  1
  Hg  Hg17  1  0.91927000  0.36310100  0.12116500  1
  Hg  Hg18  1  0.08161200  0.33323000  0.62429500  1
  Hg  Hg19  1  0.41838800  0.33323000  0.12429500  1
  Hg  Hg20  1  0.58073000  0.36310100  0.62116500  1
  Hg  Hg21  1  0.74490100  0.10105000  0.99249200  1
  Hg  Hg22  1  0.29665000  0.59649500  0.75664200  1
  Hg  Hg23  1  0.24490100  0.60105000  0.50750800  1
  Sb  Sb24  1  0.18467100  0.47553700  0.12907000  1
  Sb  Sb25  1  0.81670100  0.22177400  0.61778700  1
  Sb  Sb26  1  0.31670100  0.72177400  0.88221300  1
  Sb  Sb27  1  0.68467100  0.97553700  0.37093000  1
  Sb  Sb28  1  0.18329900  0.72177400  0.38221300  1
  Sb  Sb29  1  0.31532900  0.47553700  0.62907000  1
  Sb  Sb30  1  0.81532900  0.97553700  0.87093000  1
  Sb  Sb31  1  0.68329900  0.22177400  0.11778700  1
  Cl  Cl32  1  0.92542200  0.63088300  0.93567600  1
  Cl  Cl33  1  0.63939900  0.69320500  0.70432700  1
  Cl  Cl34  1  0.09232400  0.01555800  0.63411800  1
  Cl  Cl35  1  0.59232400  0.51555800  0.86588200  1
  Cl  Cl36  1  0.62262400  0.34452600  0.44396100  1
  Cl  Cl37  1  0.05671000  0.97084400  0.23025300  1
  Cl  Cl38  1  0.13939900  0.19320500  0.79567300  1
  Cl  Cl39  1  0.61554300  0.56098400  0.07270100  1
  Cl  Cl40  1  0.87737600  0.34452600  0.94396100  1
  Cl  Cl41  1  0.30672700  0.34066600  0.94649600  1
  Cl  Cl42  1  0.55671000  0.47084400  0.26974700  1
  Cl  Cl43  1  0.46837800  0.74974400  0.20530800  1
  Cl  Cl44  1  0.03162200  0.74974400  0.70530800  1
  Cl  Cl45  1  0.40767600  0.01555800  0.13411800  1
  Cl  Cl46  1  0.19327300  0.34066600  0.44649600  1
  Cl  Cl47  1  0.86060100  0.69320500  0.20432700  1
  Cl  Cl48  1  0.42542200  0.13088300  0.56432400  1
  Cl  Cl49  1  0.90767600  0.51555800  0.36588200  1
  Cl  Cl50  1  0.53162200  0.24974400  0.79469200  1
  Cl  Cl51  1  0.80672700  0.84066600  0.55350400  1
  Cl  Cl52  1  0.11554300  0.06098400  0.42729900  1
  Cl  Cl53  1  0.12262400  0.84452600  0.05603900  1
  Cl  Cl54  1  0.88445700  0.56098400  0.57270100  1
  Cl  Cl55  1  0.96837800  0.24974400  0.29469200  1
  Cl  Cl56  1  0.94329000  0.47084400  0.76974700  1
  Cl  Cl57  1  0.07457800  0.13088300  0.06432400  1
  Cl  Cl58  1  0.38445700  0.06098400  0.92729900  1
  Cl  Cl59  1  0.36060100  0.19320500  0.29567300  1
  Cl  Cl60  1  0.57457800  0.63088300  0.43567600  1
  Cl  Cl61  1  0.37737600  0.84452600  0.55603900  1
  Cl  Cl62  1  0.69327300  0.84066600  0.05350400  1
  Cl  Cl63  1  0.44329000  0.97084400  0.73025300  1
