# generated using pymatgen
data_Na3Sc2(PO4)3
_symmetry_space_group_name_H-M   'P 1'
_cell_length_a   9.14550411
_cell_length_b   9.14550411
_cell_length_c   22.35983141
_cell_angle_alpha   90.00000000
_cell_angle_beta   90.00000000
_cell_angle_gamma   120.00000000
_symmetry_Int_Tables_number   1
_chemical_formula_structural   Na3Sc2(PO4)3
_chemical_formula_sum   'Na18 Sc12 P18 O72'
_cell_volume   1619.62493584
_cell_formula_units_Z   6
loop_
 _symmetry_equiv_pos_site_id
 _symmetry_equiv_pos_as_xyz
  1  'x, y, z'
loop_
 _atom_site_type_symbol
 _atom_site_label
 _atom_site_symmetry_multiplicity
 _atom_site_fract_x
 _atom_site_fract_y
 _atom_site_fract_z
 _atom_site_occupancy
  Na  Na0  1  0.29387367  0.96054033  0.08333333  1
  Na  Na1  1  0.66666667  0.70612633  0.08333333  1
  Na  Na2  1  0.00000000  0.62720700  0.25000000  1
  Na  Na3  1  0.03945967  0.33333333  0.08333333  1
  Na  Na4  1  0.62720700  0.00000000  0.25000000  1
  Na  Na5  1  0.37279300  0.37279300  0.25000000  1
  Na  Na6  1  0.96054033  0.29387367  0.41666667  1
  Na  Na7  1  0.33333333  0.03945967  0.41666667  1
  Na  Na8  1  0.66666667  0.96054033  0.58333333  1
  Na  Na9  1  0.70612633  0.66666667  0.41666667  1
  Na  Na10  1  0.29387367  0.33333333  0.58333333  1
  Na  Na11  1  0.03945967  0.70612633  0.58333333  1
  Na  Na12  1  0.62720700  0.62720700  0.75000000  1
  Na  Na13  1  0.00000000  0.37279300  0.75000000  1
  Na  Na14  1  0.33333333  0.29387367  0.91666667  1
  Na  Na15  1  0.37279300  0.00000000  0.75000000  1
  Na  Na16  1  0.96054033  0.66666667  0.91666667  1
  Na  Na17  1  0.70612633  0.03945967  0.91666667  1
  Sc  Sc18  1  0.33333333  0.66666667  0.31376567  1
  Sc  Sc19  1  0.33333333  0.66666667  0.51956767  1
  Sc  Sc20  1  0.33333333  0.66666667  0.01956767  1
  Sc  Sc21  1  0.33333333  0.66666667  0.81376567  1
  Sc  Sc22  1  0.00000000  0.00000000  0.64709900  1
  Sc  Sc23  1  1.00000000  0.00000000  0.85290100  1
  Sc  Sc24  1  0.00000000  0.00000000  0.35290100  1
  Sc  Sc25  1  0.00000000  0.00000000  0.14709900  1
  Sc  Sc26  1  0.66666667  0.33333333  0.98043233  1
  Sc  Sc27  1  0.66666667  0.33333333  0.18623433  1
  Sc  Sc28  1  0.66666667  0.33333333  0.68623433  1
  Sc  Sc29  1  0.66666667  0.33333333  0.48043233  1
  P  P30  1  0.29183200  0.00000000  0.25000000  1
  P  P31  1  0.70816800  0.70816800  0.25000000  1
  P  P32  1  0.00000000  0.29183200  0.25000000  1
  P  P33  1  0.37483467  0.33333333  0.08333333  1
  P  P34  1  0.66666667  0.04150133  0.08333333  1
  P  P35  1  0.95849867  0.62516533  0.08333333  1
  P  P36  1  0.95849867  0.33333333  0.58333333  1
  P  P37  1  0.37483467  0.04150133  0.58333333  1
  P  P38  1  0.66666667  0.62516533  0.58333333  1
  P  P39  1  0.04150133  0.66666667  0.41666667  1
  P  P40  1  0.33333333  0.37483467  0.41666667  1
  P  P41  1  0.62516533  0.95849867  0.41666667  1
  P  P42  1  0.62516533  0.66666667  0.91666667  1
  P  P43  1  0.04150133  0.37483467  0.91666667  1
  P  P44  1  0.33333333  0.95849867  0.91666667  1
  P  P45  1  0.70816800  0.00000000  0.75000000  1
  P  P46  1  0.00000000  0.70816800  0.75000000  1
  P  P47  1  0.29183200  0.29183200  0.75000000  1
  O  O48  1  0.87573667  0.51299833  0.13902633  1
  O  O49  1  0.82501067  0.02300333  0.09115133  1
  O  O50  1  0.30392833  0.84633167  0.97235967  1
  O  O51  1  0.46867400  0.15834400  0.24218200  1
  O  O52  1  0.35633667  0.49167733  0.07551533  1
  O  O53  1  0.13534067  0.64366333  0.07551533  1
  O  O54  1  0.31033000  0.84165600  0.25781800  1
  O  O55  1  0.79093000  0.82033500  0.19430700  1
  O  O56  1  0.36273833  0.48700167  0.36097367  1
  O  O57  1  0.84165600  0.31033000  0.24218200  1
  O  O58  1  0.12426333  0.63726167  0.36097367  1
  O  O59  1  0.02940500  0.20907000  0.19430700  1
  O  O60  1  0.50832267  0.86465933  0.07551533  1
  O  O61  1  0.17966500  0.97059500  0.19430700  1
  O  O62  1  0.97699667  0.80200733  0.09115133  1
  O  O63  1  0.48700167  0.36273833  0.13902633  1
  O  O64  1  0.15834400  0.46867400  0.25781800  1
  O  O65  1  0.53132600  0.68967000  0.25781800  1
  O  O66  1  0.63726167  0.12426333  0.13902633  1
  O  O67  1  0.51299833  0.87573667  0.36097367  1
  O  O68  1  0.19799267  0.17498933  0.09115133  1
  O  O69  1  0.68967000  0.53132600  0.24218200  1
  O  O70  1  0.54240333  0.69607167  0.97235967  1
  O  O71  1  0.15366833  0.45759667  0.97235967  1
  O  O72  1  0.54240333  0.84633167  0.47235967  1
  O  O73  1  0.49167733  0.35633667  0.42448467  1
  O  O74  1  0.97059500  0.17966500  0.30569300  1
  O  O75  1  0.13534067  0.49167733  0.57551533  1
  O  O76  1  0.02300333  0.82501067  0.40884867  1
  O  O77  1  0.80200733  0.97699667  0.40884867  1
  O  O78  1  0.97699667  0.17498933  0.59115133  1
  O  O79  1  0.45759667  0.15366833  0.52764033  1
  O  O80  1  0.02940500  0.82033500  0.69430700  1
  O  O81  1  0.50832267  0.64366333  0.57551533  1
  O  O82  1  0.79093000  0.97059500  0.69430700  1
  O  O83  1  0.69607167  0.54240333  0.52764033  1
  O  O84  1  0.17498933  0.19799267  0.40884867  1
  O  O85  1  0.84633167  0.30392833  0.52764033  1
  O  O86  1  0.64366333  0.13534067  0.42448467  1
  O  O87  1  0.15366833  0.69607167  0.47235967  1
  O  O88  1  0.82501067  0.80200733  0.59115133  1
  O  O89  1  0.19799267  0.02300333  0.59115133  1
  O  O90  1  0.30392833  0.45759667  0.47235967  1
  O  O91  1  0.17966500  0.20907000  0.69430700  1
  O  O92  1  0.86465933  0.50832267  0.42448467  1
  O  O93  1  0.35633667  0.86465933  0.57551533  1
  O  O94  1  0.20907000  0.02940500  0.30569300  1
  O  O95  1  0.82033500  0.79093000  0.30569300  1
  O  O96  1  0.20907000  0.17966500  0.80569300  1
  O  O97  1  0.15834400  0.68967000  0.75781800  1
  O  O98  1  0.63726167  0.51299833  0.63902633  1
  O  O99  1  0.80200733  0.82501067  0.90884867  1
  O  O100  1  0.68967000  0.15834400  0.74218200  1
  O  O101  1  0.46867400  0.31033000  0.74218200  1
  O  O102  1  0.64366333  0.50832267  0.92448467  1
  O  O103  1  0.12426333  0.48700167  0.86097367  1
  O  O104  1  0.69607167  0.15366833  0.02764033  1
  O  O105  1  0.17498933  0.97699667  0.90884867  1
  O  O106  1  0.45759667  0.30392833  0.02764033  1
  O  O107  1  0.36273833  0.87573667  0.86097367  1
  O  O108  1  0.84165600  0.53132600  0.74218200  1
  O  O109  1  0.51299833  0.63726167  0.86097367  1
  O  O110  1  0.31033000  0.46867400  0.75781800  1
  O  O111  1  0.82033500  0.02940500  0.80569300  1
  O  O112  1  0.49167733  0.13534067  0.92448467  1
  O  O113  1  0.86465933  0.35633667  0.92448467  1
  O  O114  1  0.97059500  0.79093000  0.80569300  1
  O  O115  1  0.84633167  0.54240333  0.02764033  1
  O  O116  1  0.53132600  0.84165600  0.75781800  1
  O  O117  1  0.02300333  0.19799267  0.90884867  1
  O  O118  1  0.87573667  0.36273833  0.63902633  1
  O  O119  1  0.48700167  0.12426333  0.63902633  1
