# generated using pymatgen
data_SrLi2Ta2O7
_symmetry_space_group_name_H-M   'P 1'
_cell_length_a   5.63716600
_cell_length_b   18.41090400
_cell_length_c   5.63089300
_cell_angle_alpha   90.00000000
_cell_angle_beta   90.00000000
_cell_angle_gamma   90.00000000
_symmetry_Int_Tables_number   1
_chemical_formula_structural   SrLi2Ta2O7
_chemical_formula_sum   'Sr4 Li8 Ta8 O28'
_cell_volume   584.40404348
_cell_formula_units_Z   4
loop_
 _symmetry_equiv_pos_site_id
 _symmetry_equiv_pos_as_xyz
  1  'x, y, z'
loop_
 _atom_site_type_symbol
 _atom_site_label
 _atom_site_symmetry_multiplicity
 _atom_site_fract_x
 _atom_site_fract_y
 _atom_site_fract_z
 _atom_site_occupancy
  Sr  Sr0  1  0.74519900  0.00000000  0.25000000  1
  Sr  Sr1  1  0.25480100  0.00000000  0.75000000  1
  Sr  Sr2  1  0.24519900  0.50000000  0.25000000  1
  Sr  Sr3  1  0.75480100  0.50000000  0.75000000  1
  Li  Li4  1  0.00000000  0.25829800  0.50000000  1
  Li  Li5  1  0.50000000  0.24170200  0.50000000  1
  Li  Li6  1  0.50000000  0.24170200  0.00000000  1
  Li  Li7  1  0.00000000  0.25829800  0.00000000  1
  Li  Li8  1  0.50000000  0.75829800  0.50000000  1
  Li  Li9  1  0.00000000  0.74170200  0.50000000  1
  Li  Li10  1  0.00000000  0.74170200  0.00000000  1
  Li  Li11  1  0.50000000  0.75829800  0.00000000  1
  Ta  Ta12  1  0.75263600  0.11463800  0.75000000  1
  Ta  Ta13  1  0.25263600  0.38536200  0.75000000  1
  Ta  Ta14  1  0.24736400  0.11463800  0.25000000  1
  Ta  Ta15  1  0.74736400  0.38536200  0.25000000  1
  Ta  Ta16  1  0.25263600  0.61463800  0.75000000  1
  Ta  Ta17  1  0.75263600  0.88536200  0.75000000  1
  Ta  Ta18  1  0.74736400  0.61463800  0.25000000  1
  Ta  Ta19  1  0.24736400  0.88536200  0.25000000  1
  O  O20  1  0.00000000  0.09691500  0.00000000  1
  O  O21  1  0.72719050  0.28301450  0.25000000  1
  O  O22  1  0.00000000  0.38762000  0.00000000  1
  O  O23  1  0.00000000  0.09691500  0.50000000  1
  O  O24  1  0.22719050  0.21698550  0.25000000  1
  O  O25  1  0.50000000  0.40308500  0.00000000  1
  O  O26  1  0.00000000  0.38762000  0.50000000  1
  O  O27  1  0.50000000  0.11238000  0.50000000  1
  O  O28  1  0.50000000  0.40308500  0.50000000  1
  O  O29  1  0.27280950  0.28301450  0.75000000  1
  O  O30  1  0.71520900  0.00000000  0.75000000  1
  O  O31  1  0.77280950  0.21698550  0.75000000  1
  O  O32  1  0.50000000  0.11238000  0.00000000  1
  O  O33  1  0.28479100  0.00000000  0.25000000  1
  O  O34  1  0.50000000  0.59691500  0.00000000  1
  O  O35  1  0.22719050  0.78301450  0.25000000  1
  O  O36  1  0.50000000  0.88762000  0.00000000  1
  O  O37  1  0.50000000  0.59691500  0.50000000  1
  O  O38  1  0.72719050  0.71698550  0.25000000  1
  O  O39  1  0.00000000  0.90308500  0.00000000  1
  O  O40  1  0.50000000  0.88762000  0.50000000  1
  O  O41  1  0.00000000  0.61238000  0.50000000  1
  O  O42  1  0.00000000  0.90308500  0.50000000  1
  O  O43  1  0.77280950  0.78301450  0.75000000  1
  O  O44  1  0.21520900  0.50000000  0.75000000  1
  O  O45  1  0.27280950  0.71698550  0.75000000  1
  O  O46  1  0.00000000  0.61238000  0.00000000  1
  O  O47  1  0.78479100  0.50000000  0.25000000  1
