# generated using pymatgen
data_Sr(Si3N4)2
_symmetry_space_group_name_H-M   'P 1'
_cell_length_a   4.84296000
_cell_length_b   7.93412000
_cell_length_c   9.35032600
_cell_angle_alpha   90.00000000
_cell_angle_beta   90.00000000
_cell_angle_gamma   90.00000000
_symmetry_Int_Tables_number   1
_chemical_formula_structural   Sr(Si3N4)2
_chemical_formula_sum   'Sr2 Si12 N16'
_cell_volume   359.28277761
_cell_formula_units_Z   2
loop_
 _symmetry_equiv_pos_site_id
 _symmetry_equiv_pos_as_xyz
  1  'x, y, z'
loop_
 _atom_site_type_symbol
 _atom_site_label
 _atom_site_symmetry_multiplicity
 _atom_site_fract_x
 _atom_site_fract_y
 _atom_site_fract_z
 _atom_site_occupancy
  Sr  Sr0  1  0.65719000  0.50000000  0.00000000  1
  Sr  Sr1  1  0.15719000  0.00000000  0.50000000  1
  Si  Si2  1  0.14814450  0.79669650  0.83972050  1
  Si  Si3  1  0.14814450  0.79669650  0.16027950  1
  Si  Si4  1  0.14814450  0.20330350  0.83972050  1
  Si  Si5  1  0.14814450  0.20330350  0.16027950  1
  Si  Si6  1  0.14015700  0.50000000  0.37298300  1
  Si  Si7  1  0.14015700  0.50000000  0.62701700  1
  Si  Si8  1  0.64814450  0.29669650  0.33972050  1
  Si  Si9  1  0.64814450  0.29669650  0.66027950  1
  Si  Si10  1  0.64814450  0.70330350  0.33972050  1
  Si  Si11  1  0.64814450  0.70330350  0.66027950  1
  Si  Si12  1  0.64015700  0.00000000  0.87298300  1
  Si  Si13  1  0.64015700  0.00000000  0.12701700  1
  N  N14  1  0.21539400  0.70833500  0.00000000  1
  N  N15  1  0.29364550  0.31795850  0.30251750  1
  N  N16  1  0.79467300  0.50000000  0.31614400  1
  N  N17  1  0.29364550  0.68204150  0.69748250  1
  N  N18  1  0.21539400  0.29166500  0.00000000  1
  N  N19  1  0.29364550  0.68204150  0.30251750  1
  N  N20  1  0.29364550  0.31795850  0.69748250  1
  N  N21  1  0.79467300  0.50000000  0.68385600  1
  N  N22  1  0.71539400  0.20833500  0.50000000  1
  N  N23  1  0.79364550  0.81795850  0.80251750  1
  N  N24  1  0.29467300  0.00000000  0.81614400  1
  N  N25  1  0.79364550  0.18204150  0.19748250  1
  N  N26  1  0.71539400  0.79166500  0.50000000  1
  N  N27  1  0.79364550  0.18204150  0.80251750  1
  N  N28  1  0.79364550  0.81795850  0.19748250  1
  N  N29  1  0.29467300  0.00000000  0.18385600  1
