# generated using pymatgen
data_Ga2Pb2S5
_symmetry_space_group_name_H-M   'P 1'
_cell_length_a   11.21487800
_cell_length_b   12.12488200
_cell_length_c   12.57454900
_cell_angle_alpha   90.00000000
_cell_angle_beta   90.00000000
_cell_angle_gamma   90.00000000
_symmetry_Int_Tables_number   1
_chemical_formula_structural   Ga2Pb2S5
_chemical_formula_sum   'Ga16 Pb16 S40'
_cell_volume   1709.87550880
_cell_formula_units_Z   8
loop_
 _symmetry_equiv_pos_site_id
 _symmetry_equiv_pos_as_xyz
  1  'x, y, z'
loop_
 _atom_site_type_symbol
 _atom_site_label
 _atom_site_symmetry_multiplicity
 _atom_site_fract_x
 _atom_site_fract_y
 _atom_site_fract_z
 _atom_site_occupancy
  Ga  Ga0  1  0.26482900  0.54014900  0.47466700  1
  Ga  Ga1  1  0.43568800  0.80077800  0.95683400  1
  Ga  Ga2  1  0.26482900  0.04014900  0.02533300  1
  Ga  Ga3  1  0.56431200  0.69922200  0.45683400  1
  Ga  Ga4  1  0.93568800  0.69922200  0.95683400  1
  Ga  Ga5  1  0.56431200  0.19922200  0.04316600  1
  Ga  Ga6  1  0.23517100  0.54014900  0.97466700  1
  Ga  Ga7  1  0.06431200  0.30077800  0.04316600  1
  Ga  Ga8  1  0.93568800  0.19922200  0.54316600  1
  Ga  Ga9  1  0.76482900  0.45985100  0.02533300  1
  Ga  Ga10  1  0.43568800  0.30077800  0.54316600  1
  Ga  Ga11  1  0.73517100  0.95985100  0.97466700  1
  Ga  Ga12  1  0.23517100  0.04014900  0.52533300  1
  Ga  Ga13  1  0.06431200  0.80077800  0.45683400  1
  Ga  Ga14  1  0.73517100  0.45985100  0.52533300  1
  Ga  Ga15  1  0.76482900  0.95985100  0.47466700  1
  Pb  Pb16  1  0.23578100  0.75498900  0.19346100  1
  Pb  Pb17  1  0.49024500  0.98279900  0.29319000  1
  Pb  Pb18  1  0.00975500  0.98279900  0.79319000  1
  Pb  Pb19  1  0.26421900  0.75498900  0.69346100  1
  Pb  Pb20  1  0.50975500  0.01720100  0.70681000  1
  Pb  Pb21  1  0.73578100  0.24501100  0.30653900  1
  Pb  Pb22  1  0.76421900  0.74501100  0.69346100  1
  Pb  Pb23  1  0.99024500  0.51720100  0.29319000  1
  Pb  Pb24  1  0.49024500  0.48279900  0.20681000  1
  Pb  Pb25  1  0.26421900  0.25498900  0.80653900  1
  Pb  Pb26  1  0.00975500  0.48279900  0.70681000  1
  Pb  Pb27  1  0.76421900  0.24501100  0.80653900  1
  Pb  Pb28  1  0.50975500  0.51720100  0.79319000  1
  Pb  Pb29  1  0.99024500  0.01720100  0.20681000  1
  Pb  Pb30  1  0.73578100  0.74501100  0.19346100  1
  Pb  Pb31  1  0.23578100  0.25498900  0.30653900  1
  S  S32  1  0.74223300  0.13716200  0.53525800  1
  S  S33  1  0.24223300  0.36283800  0.53525800  1
  S  S34  1  0.00677400  0.78957000  0.28522000  1
  S  S35  1  0.58871100  0.37623500  0.97165600  1
  S  S36  1  0.07401400  0.11338900  0.43242800  1
  S  S37  1  0.42598600  0.11338900  0.93242800  1
  S  S38  1  0.25776700  0.86283800  0.46474200  1
  S  S39  1  0.99322600  0.71043000  0.78522000  1
  S  S40  1  0.24223300  0.86283800  0.96474200  1
  S  S41  1  0.99322600  0.21043000  0.71478000  1
  S  S42  1  0.75384300  0.47060700  0.20508400  1
  S  S43  1  0.74615700  0.47060700  0.70508400  1
  S  S44  1  0.57401400  0.88661100  0.06757200  1
  S  S45  1  0.08871100  0.12376500  0.97165600  1
  S  S46  1  0.25384300  0.52939300  0.29491600  1
  S  S47  1  0.75776700  0.63716200  0.46474200  1
  S  S48  1  0.91128900  0.87623500  0.02834400  1
  S  S49  1  0.24615700  0.02939300  0.70508400  1
  S  S50  1  0.50677400  0.21043000  0.21478000  1
  S  S51  1  0.74223300  0.63716200  0.96474200  1
  S  S52  1  0.41128900  0.62376500  0.02834400  1
  S  S53  1  0.25384300  0.02939300  0.20508400  1
  S  S54  1  0.24615700  0.52939300  0.79491600  1
  S  S55  1  0.57401400  0.38661100  0.43242800  1
  S  S56  1  0.92598600  0.88661100  0.56757200  1
  S  S57  1  0.91128900  0.37623500  0.47165600  1
  S  S58  1  0.92598600  0.38661100  0.93242800  1
  S  S59  1  0.07401400  0.61338900  0.06757200  1
  S  S60  1  0.25776700  0.36283800  0.03525800  1
  S  S61  1  0.42598600  0.61338900  0.56757200  1
  S  S62  1  0.74615700  0.97060700  0.79491600  1
  S  S63  1  0.41128900  0.12376500  0.47165600  1
  S  S64  1  0.75776700  0.13716200  0.03525800  1
  S  S65  1  0.50677400  0.71043000  0.28522000  1
  S  S66  1  0.00677400  0.28957000  0.21478000  1
  S  S67  1  0.08871100  0.62376500  0.52834400  1
  S  S68  1  0.49322600  0.28957000  0.71478000  1
  S  S69  1  0.58871100  0.87623500  0.52834400  1
  S  S70  1  0.49322600  0.78957000  0.78522000  1
  S  S71  1  0.75384300  0.97060700  0.29491600  1
