# generated using pymatgen
data_ZrP2H4O9
_symmetry_space_group_name_H-M   'P 1'
_cell_length_a   9.50830800
_cell_length_b   5.47876600
_cell_length_c   15.85142004
_cell_angle_alpha   90.00000000
_cell_angle_beta   108.75935610
_cell_angle_gamma   90.00000000
_symmetry_Int_Tables_number   1
_chemical_formula_structural   ZrP2H4O9
_chemical_formula_sum   'Zr4 P8 H16 O36'
_cell_volume   781.89425627
_cell_formula_units_Z   4
loop_
 _symmetry_equiv_pos_site_id
 _symmetry_equiv_pos_as_xyz
  1  'x, y, z'
loop_
 _atom_site_type_symbol
 _atom_site_label
 _atom_site_symmetry_multiplicity
 _atom_site_fract_x
 _atom_site_fract_y
 _atom_site_fract_z
 _atom_site_occupancy
  Zr  Zr0  1  0.24085500  0.25025300  0.97304700  1
  Zr  Zr1  1  0.75914500  0.75025300  0.52695300  1
  Zr  Zr2  1  0.75914500  0.74974700  0.02695300  1
  Zr  Zr3  1  0.24085500  0.24974700  0.47304700  1
  P  P4  1  0.99521000  0.76269500  0.89290000  1
  P  P5  1  0.00479000  0.26269500  0.60710000  1
  P  P6  1  0.00479000  0.23730500  0.10710000  1
  P  P7  1  0.99521000  0.73730500  0.39290000  1
  P  P8  1  0.58025300  0.26658100  0.89366100  1
  P  P9  1  0.41974700  0.76658100  0.60633900  1
  P  P10  1  0.41974700  0.73341900  0.10633900  1
  P  P11  1  0.58025300  0.23341900  0.39366100  1
  H  H12  1  0.81682200  0.46035200  0.77201700  1
  H  H13  1  0.18317800  0.96035200  0.72798300  1
  H  H14  1  0.18317800  0.53964800  0.22798300  1
  H  H15  1  0.81682200  0.03964800  0.27201700  1
  H  H16  1  0.66568300  0.31495200  0.78549100  1
  H  H17  1  0.33431700  0.81495200  0.71450900  1
  H  H18  1  0.33431700  0.68504800  0.21450900  1
  H  H19  1  0.66568300  0.18504800  0.28549100  1
  H  H20  1  0.14206700  0.28741800  0.75738300  1
  H  H21  1  0.85793300  0.78741800  0.74261700  1
  H  H22  1  0.85793300  0.71258200  0.24261700  1
  H  H23  1  0.14206700  0.21258200  0.25738300  1
  H  H24  1  0.33574800  0.95091800  0.81105500  1
  H  H25  1  0.66425200  0.45091800  0.68894500  1
  H  H26  1  0.66425200  0.04908200  0.18894500  1
  H  H27  1  0.33574800  0.54908200  0.31105500  1
  O  O28  1  0.86524300  0.80012400  0.92822600  1
  O  O29  1  0.13475700  0.30012400  0.57177400  1
  O  O30  1  0.13475700  0.19987600  0.07177400  1
  O  O31  1  0.86524300  0.69987600  0.42822600  1
  O  O32  1  0.08112500  0.99896100  0.89277200  1
  O  O33  1  0.91887500  0.49896100  0.60722800  1
  O  O34  1  0.91887500  0.00103900  0.10722800  1
  O  O35  1  0.08112500  0.50103900  0.39277200  1
  O  O36  1  0.09367600  0.54974600  0.93727200  1
  O  O37  1  0.90632400  0.04974600  0.56272800  1
  O  O38  1  0.90632400  0.45025400  0.06272800  1
  O  O39  1  0.09367600  0.95025400  0.43727200  1
  O  O40  1  0.92441500  0.67467700  0.79036600  1
  O  O41  1  0.07558500  0.17467700  0.70963400  1
  O  O42  1  0.07558500  0.32532300  0.20963400  1
  O  O43  1  0.92441500  0.82532300  0.29036600  1
  O  O44  1  0.63988000  0.05648100  0.96057700  1
  O  O45  1  0.36012000  0.55648100  0.53942300  1
  O  O46  1  0.36012000  0.94351900  0.03942300  1
  O  O47  1  0.63988000  0.44351900  0.46057700  1
  O  O48  1  0.59871600  0.51617000  0.94306600  1
  O  O49  1  0.40128400  0.01617000  0.55693400  1
  O  O50  1  0.40128400  0.48383000  0.05693400  1
  O  O51  1  0.59871600  0.98383000  0.44306600  1
  O  O52  1  0.27044100  0.36808500  0.85077400  1
  O  O53  1  0.72955900  0.86808500  0.64922600  1
  O  O54  1  0.72955900  0.63191500  0.14922600  1
  O  O55  1  0.27044100  0.13191500  0.35077400  1
  O  O56  1  0.38756800  0.17711500  0.88132100  1
  O  O57  1  0.61243200  0.67711500  0.61867900  1
  O  O58  1  0.61243200  0.82288500  0.11867900  1
  O  O59  1  0.38756800  0.32288500  0.38132100  1
  O  O60  1  0.27489300  0.84897300  0.75761900  1
  O  O61  1  0.72510700  0.34897300  0.74238100  1
  O  O62  1  0.72510700  0.15102700  0.24238100  1
  O  O63  1  0.27489300  0.65102700  0.25761900  1
