# generated using pymatgen
data_K6Be4C6O19
_symmetry_space_group_name_H-M   'P 1'
_cell_length_a   14.38919342
_cell_length_b   14.38919342
_cell_length_c   17.25457569
_cell_angle_alpha   90.00000000
_cell_angle_beta   90.00000000
_cell_angle_gamma   120.00000000
_symmetry_Int_Tables_number   1
_chemical_formula_structural   K6Be4C6O19
_chemical_formula_sum   'K36 Be24 C36 O114'
_cell_volume   3093.91100172
_cell_formula_units_Z   6
loop_
 _symmetry_equiv_pos_site_id
 _symmetry_equiv_pos_as_xyz
  1  'x, y, z'
loop_
 _atom_site_type_symbol
 _atom_site_label
 _atom_site_symmetry_multiplicity
 _atom_site_fract_x
 _atom_site_fract_y
 _atom_site_fract_z
 _atom_site_occupancy
  K  K0  1  0.11244133  0.38153567  0.70762667  1
  K  K1  1  0.88755867  0.61846433  0.29237333  1
  K  K2  1  0.79259133  0.70056467  0.55939167  1
  K  K3  1  0.61846433  0.73090567  0.70762667  1
  K  K4  1  0.09202667  0.79259133  0.44060833  1
  K  K5  1  0.20740867  0.29943533  0.44060833  1
  K  K6  1  0.26909433  0.88755867  0.70762667  1
  K  K7  1  0.90797333  0.20740867  0.55939167  1
  K  K8  1  0.70056467  0.90797333  0.44060833  1
  K  K9  1  0.29943533  0.09202667  0.55939167  1
  K  K10  1  0.38153567  0.26909433  0.29237333  1
  K  K11  1  0.73090567  0.11244133  0.29237333  1
  K  K12  1  0.77910800  0.71486900  0.04096000  1
  K  K13  1  0.55422533  0.95179767  0.62570667  1
  K  K14  1  0.45925800  0.03389800  0.89272500  1
  K  K15  1  0.28513100  0.06423900  0.04096000  1
  K  K16  1  0.75869333  0.12592467  0.77394167  1
  K  K17  1  0.87407533  0.63276867  0.77394167  1
  K  K18  1  0.93576100  0.22089200  0.04096000  1
  K  K19  1  0.57464000  0.54074200  0.89272500  1
  K  K20  1  0.36723133  0.24130667  0.77394167  1
  K  K21  1  0.96610200  0.42536000  0.89272500  1
  K  K22  1  0.04820233  0.60242767  0.62570667  1
  K  K23  1  0.39757233  0.44577467  0.62570667  1
  K  K24  1  0.44577467  0.04820233  0.37429333  1
  K  K25  1  0.22089200  0.28513100  0.95904000  1
  K  K26  1  0.12592467  0.36723133  0.22605833  1
  K  K27  1  0.95179767  0.39757233  0.37429333  1
  K  K28  1  0.42536000  0.45925800  0.10727500  1
  K  K29  1  0.54074200  0.96610200  0.10727500  1
  K  K30  1  0.60242767  0.55422533  0.37429333  1
  K  K31  1  0.24130667  0.87407533  0.22605833  1
  K  K32  1  0.03389800  0.57464000  0.10727500  1
  K  K33  1  0.63276867  0.75869333  0.22605833  1
  K  K34  1  0.71486900  0.93576100  0.95904000  1
  K  K35  1  0.06423900  0.77910800  0.95904000  1
  Be  Be36  1  0.12089767  0.03203633  0.71786933  1
  Be  Be37  1  0.03203633  0.91113867  0.28213067  1
  Be  Be38  1  0.00000000  0.00000000  0.15302000  1
  Be  Be39  1  0.96796367  0.08886133  0.71786933  1
  Be  Be40  1  0.00000000  0.00000000  0.84698000  1
  Be  Be41  1  0.91113867  0.87910233  0.71786933  1
  Be  Be42  1  0.87910233  0.96796367  0.28213067  1
  Be  Be43  1  0.08886133  0.12089767  0.28213067  1
  Be  Be44  1  0.78756433  0.36536967  0.05120267  1
  Be  Be45  1  0.69870300  0.24447200  0.61546400  1
  Be  Be46  1  0.66666667  0.33333333  0.48635333  1
  Be  Be47  1  0.63463033  0.42219467  0.05120267  1
  Be  Be48  1  0.66666667  0.33333333  0.18031333  1
  Be  Be49  1  0.57780533  0.21243567  0.05120267  1
  Be  Be50  1  0.54576900  0.30129700  0.61546400  1
  Be  Be51  1  0.75552800  0.45423100  0.61546400  1
  Be  Be52  1  0.45423100  0.69870300  0.38453600  1
  Be  Be53  1  0.36536967  0.57780533  0.94879733  1
  Be  Be54  1  0.33333333  0.66666667  0.81968667  1
  Be  Be55  1  0.30129700  0.75552800  0.38453600  1
  Be  Be56  1  0.33333333  0.66666667  0.51364667  1
  Be  Be57  1  0.24447200  0.54576900  0.38453600  1
  Be  Be58  1  0.21243567  0.63463033  0.94879733  1
  Be  Be59  1  0.42219467  0.78756433  0.94879733  1
  C  C60  1  0.14433667  0.49396733  0.52004233  1
  C  C61  1  0.05050567  0.85115533  0.63900933  1
  C  C62  1  0.80064967  0.94949433  0.63900933  1
  C  C63  1  0.94949433  0.14884467  0.36099067  1
  C  C64  1  0.19935033  0.05050567  0.36099067  1
  C  C65  1  0.49396733  0.34963067  0.47995767  1
  C  C66  1  0.85115533  0.80064967  0.36099067  1
  C  C67  1  0.50603267  0.65036933  0.52004233  1
  C  C68  1  0.85566333  0.50603267  0.47995767  1
  C  C69  1  0.65036933  0.14433667  0.47995767  1
  C  C70  1  0.34963067  0.85566333  0.52004233  1
  C  C71  1  0.14884467  0.19935033  0.63900933  1
  C  C72  1  0.81100333  0.82730067  0.85337567  1
  C  C73  1  0.71717233  0.18448867  0.97234267  1
  C  C74  1  0.46731633  0.28282767  0.97234267  1
  C  C75  1  0.61616100  0.48217800  0.69432400  1
  C  C76  1  0.86601700  0.38383900  0.69432400  1
  C  C77  1  0.16063400  0.68296400  0.81329100  1
  C  C78  1  0.51782200  0.13398300  0.69432400  1
  C  C79  1  0.17269933  0.98370267  0.85337567  1
  C  C80  1  0.52233000  0.83936600  0.81329100  1
  C  C81  1  0.31703600  0.47767000  0.81329100  1
  C  C82  1  0.01629733  0.18899667  0.85337567  1
  C  C83  1  0.81551133  0.53268367  0.97234267  1
  C  C84  1  0.47767000  0.16063400  0.18670900  1
  C  C85  1  0.38383900  0.51782200  0.30567600  1
  C  C86  1  0.13398300  0.61616100  0.30567600  1
  C  C87  1  0.28282767  0.81551133  0.02765733  1
  C  C88  1  0.53268367  0.71717233  0.02765733  1
  C  C89  1  0.82730067  0.01629733  0.14662433  1
  C  C90  1  0.18448867  0.46731633  0.02765733  1
  C  C91  1  0.83936600  0.31703600  0.18670900  1
  C  C92  1  0.18899667  0.17269933  0.14662433  1
  C  C93  1  0.98370267  0.81100333  0.14662433  1
  C  C94  1  0.68296400  0.52233000  0.18670900  1
  C  C95  1  0.48217800  0.86601700  0.30567600  1
  O  O96  1  0.93881200  0.57025600  0.44166000  1
  O  O97  1  0.07049400  0.79439200  0.59336000  1
  O  O98  1  0.92950600  0.20560800  0.40664000  1
  O  O99  1  0.63144400  0.06118800  0.44166000  1
  O  O100  1  0.00000000  0.00000000  0.25111400  1
  O  O101  1  0.19073467  0.15148633  0.67874833  1
  O  O102  1  0.12141233  0.07719467  0.11905667  1
  O  O103  1  0.27610200  0.07049400  0.40664000  1
  O  O104  1  0.16686133  0.12034067  0.35185167  1
  O  O105  1  0.79972200  0.96963100  0.21495600  1
  O  O106  1  0.20560800  0.27610200  0.59336000  1
  O  O107  1  0.42974400  0.36855600  0.44166000  1
  O  O108  1  0.87965933  0.04652067  0.35185167  1
  O  O109  1  0.92280533  0.04421767  0.11905667  1
  O  O110  1  0.95347933  0.83313867  0.35185167  1
  O  O111  1  0.03924833  0.19073467  0.32125167  1
  O  O112  1  0.04652067  0.16686133  0.64814833  1
  O  O113  1  0.83313867  0.87965933  0.64814833  1
  O  O114  1  0.96075167  0.80926533  0.67874833  1
  O  O115  1  0.04421767  0.12141233  0.88094333  1
  O  O116  1  0.96963100  0.16990900  0.78504400  1
  O  O117  1  0.12034067  0.95347933  0.64814833  1
  O  O118  1  0.36855600  0.93881200  0.55834000  1
  O  O119  1  0.07719467  0.95578233  0.88094333  1
  O  O120  1  0.00000000  0.00000000  0.74888600  1
  O  O121  1  0.15148633  0.96075167  0.32125167  1
  O  O122  1  0.87858767  0.92280533  0.88094333  1
  O  O123  1  0.57025600  0.63144400  0.55834000  1
  O  O124  1  0.06118800  0.42974400  0.55834000  1
  O  O125  1  0.16990900  0.20027800  0.21495600  1
  O  O126  1  0.83009100  0.79972200  0.78504400  1
  O  O127  1  0.95578233  0.87858767  0.11905667  1
  O  O128  1  0.80926533  0.84851367  0.32125167  1
  O  O129  1  0.03036900  0.83009100  0.21495600  1
  O  O130  1  0.79439200  0.72389800  0.40664000  1
  O  O131  1  0.84851367  0.03924833  0.67874833  1
  O  O132  1  0.72389800  0.92950600  0.59336000  1
  O  O133  1  0.20027800  0.03036900  0.78504400  1
  O  O134  1  0.60547867  0.90358933  0.77499333  1
  O  O135  1  0.73716067  0.12772533  0.92669333  1
  O  O136  1  0.59617267  0.53894133  0.73997333  1
  O  O137  1  0.29811067  0.39452133  0.77499333  1
  O  O138  1  0.66666667  0.33333333  0.58444733  1
  O  O139  1  0.85740133  0.48481967  0.01208167  1
  O  O140  1  0.78807900  0.41052800  0.45239000  1
  O  O141  1  0.94276867  0.40382733  0.73997333  1
  O  O142  1  0.83352800  0.45367400  0.68518500  1
  O  O143  1  0.46638867  0.30296433  0.54828933  1
  O  O144  1  0.87227467  0.60943533  0.92669333  1
  O  O145  1  0.09641067  0.70188933  0.77499333  1
  O  O146  1  0.54632600  0.37985400  0.68518500  1
  O  O147  1  0.58947200  0.37755100  0.45239000  1
  O  O148  1  0.62014600  0.16647200  0.68518500  1
  O  O149  1  0.70591500  0.52406800  0.65458500  1
  O  O150  1  0.71318733  0.50019467  0.98148167  1
  O  O151  1  0.49980533  0.21299267  0.98148167  1
  O  O152  1  0.62741833  0.14259867  0.01208167  1
  O  O153  1  0.71088433  0.45474567  0.21427667  1
  O  O154  1  0.63629767  0.50324233  0.11837733  1
  O  O155  1  0.78700733  0.28681267  0.98148167  1
  O  O156  1  0.03522267  0.27214533  0.89167333  1
  O  O157  1  0.74386133  0.28911567  0.21427667  1
  O  O158  1  0.66666667  0.33333333  0.08221933  1
  O  O159  1  0.81815300  0.29408500  0.65458500  1
  O  O160  1  0.54525433  0.25613867  0.21427667  1
  O  O161  1  0.23692267  0.96477733  0.89167333  1
  O  O162  1  0.72785467  0.76307733  0.89167333  1
  O  O163  1  0.83657567  0.53361133  0.54828933  1
  O  O164  1  0.49675767  0.13305533  0.11837733  1
  O  O165  1  0.62244900  0.21192100  0.45239000  1
  O  O166  1  0.47593200  0.18184700  0.65458500  1
  O  O167  1  0.69703567  0.16342433  0.54828933  1
  O  O168  1  0.46105867  0.05723133  0.73997333  1
  O  O169  1  0.51518033  0.37258167  0.01208167  1
  O  O170  1  0.39056467  0.26283933  0.92669333  1
  O  O171  1  0.86694467  0.36370233  0.11837733  1
  O  O172  1  0.27214533  0.23692267  0.10832667  1
  O  O173  1  0.40382733  0.46105867  0.26002667  1
  O  O174  1  0.26283933  0.87227467  0.07330667  1
  O  O175  1  0.96477733  0.72785467  0.10832667  1
  O  O176  1  0.33333333  0.66666667  0.91778067  1
  O  O177  1  0.52406800  0.81815300  0.34541500  1
  O  O178  1  0.45474567  0.74386133  0.78572333  1
  O  O179  1  0.60943533  0.73716067  0.07330667  1
  O  O180  1  0.50019467  0.78700733  0.01851833  1
  O  O181  1  0.13305533  0.63629767  0.88162267  1
  O  O182  1  0.53894133  0.94276867  0.26002667  1
  O  O183  1  0.76307733  0.03522267  0.10832667  1
  O  O184  1  0.21299267  0.71318733  0.01851833  1
  O  O185  1  0.25613867  0.71088433  0.78572333  1
  O  O186  1  0.28681267  0.49980533  0.01851833  1
  O  O187  1  0.37258167  0.85740133  0.98791833  1
  O  O188  1  0.37985400  0.83352800  0.31481500  1
  O  O189  1  0.16647200  0.54632600  0.31481500  1
  O  O190  1  0.29408500  0.47593200  0.34541500  1
  O  O191  1  0.37755100  0.78807900  0.54761000  1
  O  O192  1  0.30296433  0.83657567  0.45171067  1
  O  O193  1  0.45367400  0.62014600  0.31481500  1
  O  O194  1  0.70188933  0.60547867  0.22500667  1
  O  O195  1  0.41052800  0.62244900  0.54761000  1
  O  O196  1  0.33333333  0.66666667  0.41555267  1
  O  O197  1  0.48481967  0.62741833  0.98791833  1
  O  O198  1  0.21192100  0.58947200  0.54761000  1
  O  O199  1  0.90358933  0.29811067  0.22500667  1
  O  O200  1  0.39452133  0.09641067  0.22500667  1
  O  O201  1  0.50324233  0.86694467  0.88162267  1
  O  O202  1  0.16342433  0.46638867  0.45171067  1
  O  O203  1  0.28911567  0.54525433  0.78572333  1
  O  O204  1  0.14259867  0.51518033  0.98791833  1
  O  O205  1  0.36370233  0.49675767  0.88162267  1
  O  O206  1  0.12772533  0.39056467  0.07330667  1
  O  O207  1  0.18184700  0.70591500  0.34541500  1
  O  O208  1  0.05723133  0.59617267  0.26002667  1
  O  O209  1  0.53361133  0.69703567  0.45171067  1
