# generated using pymatgen
data_Cs3TlF6
_symmetry_space_group_name_H-M   'P 1'
_cell_length_a   7.09944200
_cell_length_b   7.09944200
_cell_length_c   10.31375000
_cell_angle_alpha   90.00000000
_cell_angle_beta   90.00000000
_cell_angle_gamma   90.00000000
_symmetry_Int_Tables_number   1
_chemical_formula_structural   Cs3TlF6
_chemical_formula_sum   'Cs6 Tl2 F12'
_cell_volume   519.83441868
_cell_formula_units_Z   2
loop_
 _symmetry_equiv_pos_site_id
 _symmetry_equiv_pos_as_xyz
  1  'x, y, z'
loop_
 _atom_site_type_symbol
 _atom_site_label
 _atom_site_symmetry_multiplicity
 _atom_site_fract_x
 _atom_site_fract_y
 _atom_site_fract_z
 _atom_site_occupancy
  Cs  Cs0  1  0.50000000  0.50000000  0.00000000  1
  Cs  Cs1  1  0.50000000  0.00000000  0.25000000  1
  Cs  Cs2  1  0.00000000  0.50000000  0.25000000  1
  Cs  Cs3  1  0.00000000  0.00000000  0.50000000  1
  Cs  Cs4  1  0.00000000  0.50000000  0.75000000  1
  Cs  Cs5  1  0.50000000  0.00000000  0.75000000  1
  Tl  Tl6  1  0.00000000  0.00000000  0.00000000  1
  Tl  Tl7  1  0.50000000  0.50000000  0.50000000  1
  F  F8  1  0.00000000  0.69406600  0.00000000  1
  F  F9  1  0.50000000  0.50000000  0.27703800  1
  F  F10  1  0.69406600  0.00000000  0.00000000  1
  F  F11  1  0.00000000  0.00000000  0.22296200  1
  F  F12  1  0.00000000  0.30593400  0.00000000  1
  F  F13  1  0.30593400  0.00000000  0.00000000  1
  F  F14  1  0.50000000  0.19406600  0.50000000  1
  F  F15  1  0.00000000  0.00000000  0.77703800  1
  F  F16  1  0.19406600  0.50000000  0.50000000  1
  F  F17  1  0.50000000  0.50000000  0.72296200  1
  F  F18  1  0.50000000  0.80593400  0.50000000  1
  F  F19  1  0.80593400  0.50000000  0.50000000  1
