# generated using pymatgen
data_LaSiO3F
_symmetry_space_group_name_H-M   'P 1'
_cell_length_a   7.12909442
_cell_length_b   7.12909442
_cell_length_c   10.99063400
_cell_angle_alpha   90.00000000
_cell_angle_beta   90.00000000
_cell_angle_gamma   120.00000000
_symmetry_Int_Tables_number   1
_chemical_formula_structural   LaSiO3F
_chemical_formula_sum   'La6 Si6 O18 F6'
_cell_volume   483.75126225
_cell_formula_units_Z   6
loop_
 _symmetry_equiv_pos_site_id
 _symmetry_equiv_pos_as_xyz
  1  'x, y, z'
loop_
 _atom_site_type_symbol
 _atom_site_label
 _atom_site_symmetry_multiplicity
 _atom_site_fract_x
 _atom_site_fract_y
 _atom_site_fract_z
 _atom_site_occupancy
  La  La0  1  0.64318900  0.00000000  0.00000000  1
  La  La1  1  0.35681100  0.35681100  0.50000000  1
  La  La2  1  0.00000000  0.64318900  0.50000000  1
  La  La3  1  0.00000000  0.64318900  0.00000000  1
  La  La4  1  0.35681100  0.35681100  0.00000000  1
  La  La5  1  0.64318900  0.00000000  0.50000000  1
  Si  Si6  1  0.27219500  0.04700800  0.25000000  1
  Si  Si7  1  0.77481300  0.72780500  0.25000000  1
  Si  Si8  1  0.95299200  0.22518700  0.25000000  1
  Si  Si9  1  0.22518700  0.95299200  0.75000000  1
  Si  Si10  1  0.72780500  0.77481300  0.75000000  1
  Si  Si11  1  0.04700800  0.27219500  0.75000000  1
  O  O12  1  0.19478800  0.23657500  0.25000000  1
  O  O13  1  0.04178700  0.80521200  0.25000000  1
  O  O14  1  0.76342500  0.95821300  0.25000000  1
  O  O15  1  0.95821300  0.76342500  0.75000000  1
  O  O16  1  0.80521200  0.04178700  0.75000000  1
  O  O17  1  0.23657500  0.19478800  0.75000000  1
  O  O18  1  0.39656700  0.07771200  0.12289700  1
  O  O19  1  0.68114500  0.60343300  0.37710300  1
  O  O20  1  0.92228800  0.31885500  0.37710300  1
  O  O21  1  0.92228800  0.31885500  0.12289700  1
  O  O22  1  0.68114500  0.60343300  0.12289700  1
  O  O23  1  0.31885500  0.92228800  0.87710300  1
  O  O24  1  0.60343300  0.68114500  0.87710300  1
  O  O25  1  0.07771200  0.39656700  0.87710300  1
  O  O26  1  0.39656700  0.07771200  0.37710300  1
  O  O27  1  0.07771200  0.39656700  0.62289700  1
  O  O28  1  0.31885500  0.92228800  0.62289700  1
  O  O29  1  0.60343300  0.68114500  0.62289700  1
  F  F30  1  0.00000000  0.00000000  0.00000000  1
  F  F31  1  0.00000000  0.00000000  0.50000000  1
  F  F32  1  0.33333333  0.66666667  0.07336700  1
  F  F33  1  0.33333333  0.66666667  0.42663300  1
  F  F34  1  0.66666667  0.33333333  0.92663300  1
  F  F35  1  0.66666667  0.33333333  0.57336700  1
