# generated using pymatgen
data_K2Mn(NbCl3)6
_symmetry_space_group_name_H-M   'P 1'
_cell_length_a   9.32809821
_cell_length_b   9.32809821
_cell_length_c   25.62643528
_cell_angle_alpha   90.00000000
_cell_angle_beta   90.00000000
_cell_angle_gamma   120.00000000
_symmetry_Int_Tables_number   1
_chemical_formula_structural   K2Mn(NbCl3)6
_chemical_formula_sum   'K6 Mn3 Nb18 Cl54'
_cell_volume   1931.10127328
_cell_formula_units_Z   3
loop_
 _symmetry_equiv_pos_site_id
 _symmetry_equiv_pos_as_xyz
  1  'x, y, z'
loop_
 _atom_site_type_symbol
 _atom_site_label
 _atom_site_symmetry_multiplicity
 _atom_site_fract_x
 _atom_site_fract_y
 _atom_site_fract_z
 _atom_site_occupancy
  K  K0  1  0.66666667  0.33333333  0.05542033  1
  K  K1  1  0.00000000  0.00000000  0.27791300  1
  K  K2  1  0.33333333  0.66666667  0.38875367  1
  K  K3  1  0.66666667  0.33333333  0.61124633  1
  K  K4  1  0.00000000  0.00000000  0.72208700  1
  K  K5  1  0.33333333  0.66666667  0.94457967  1
  Mn  Mn6  1  0.00000000  0.00000000  0.00000000  1
  Mn  Mn7  1  0.66666667  0.33333333  0.33333333  1
  Mn  Mn8  1  0.33333333  0.66666667  0.66666667  1
  Nb  Nb9  1  0.17563733  0.70896867  0.11988767  1
  Nb  Nb10  1  0.29103133  0.46666867  0.11988767  1
  Nb  Nb11  1  0.53333133  0.82436267  0.11988767  1
  Nb  Nb12  1  0.13333533  0.50897067  0.21344567  1
  Nb  Nb13  1  0.37563533  0.86666467  0.21344567  1
  Nb  Nb14  1  0.49102933  0.62436467  0.21344567  1
  Nb  Nb15  1  0.84230400  0.04230200  0.45322100  1
  Nb  Nb16  1  0.95769800  0.80000200  0.45322100  1
  Nb  Nb17  1  0.19999800  0.15769600  0.45322100  1
  Nb  Nb18  1  0.80000200  0.84230400  0.54677900  1
  Nb  Nb19  1  0.04230200  0.19999800  0.54677900  1
  Nb  Nb20  1  0.15769600  0.95769800  0.54677900  1
  Nb  Nb21  1  0.50897067  0.37563533  0.78655433  1
  Nb  Nb22  1  0.62436467  0.13333533  0.78655433  1
  Nb  Nb23  1  0.86666467  0.49102933  0.78655433  1
  Nb  Nb24  1  0.46666867  0.17563733  0.88011233  1
  Nb  Nb25  1  0.70896867  0.53333133  0.88011233  1
  Nb  Nb26  1  0.82436267  0.29103133  0.88011233  1
  Cl  Cl27  1  0.19410267  0.94781233  0.16751433  1
  Cl  Cl28  1  0.24193233  0.21449767  0.05841867  1
  Cl  Cl29  1  0.61447900  0.08704300  0.16581900  1
  Cl  Cl30  1  0.51851633  0.61755967  0.05623667  1
  Cl  Cl31  1  0.38244033  0.90095667  0.05623667  1
  Cl  Cl32  1  0.78550233  0.02743467  0.05841867  1
  Cl  Cl33  1  0.75370967  0.80589733  0.16751433  1
  Cl  Cl34  1  0.42473433  0.11883567  0.27491467  1
  Cl  Cl35  1  0.47256400  0.38552100  0.16581900  1
  Cl  Cl36  1  0.91295700  0.52743600  0.16581900  1
  Cl  Cl37  1  0.88116433  0.30589867  0.27491467  1
  Cl  Cl38  1  0.05218767  0.24629033  0.16751433  1
  Cl  Cl39  1  0.28422633  0.43237667  0.27709667  1
  Cl  Cl40  1  0.97256533  0.75806767  0.05841867  1
  Cl  Cl41  1  0.69410133  0.57526567  0.27491467  1
  Cl  Cl42  1  0.09904333  0.48148367  0.05623667  1
  Cl  Cl43  1  0.56762333  0.85184967  0.27709667  1
  Cl  Cl44  1  0.14815033  0.71577367  0.27709667  1
  Cl  Cl45  1  0.86076933  0.28114567  0.50084767  1
  Cl  Cl46  1  0.90859900  0.54783100  0.39175200  1
  Cl  Cl47  1  0.28114567  0.42037633  0.49915233  1
  Cl  Cl48  1  0.18518300  0.95089300  0.38957000  1
  Cl  Cl49  1  0.04910700  0.23429000  0.38957000  1
  Cl  Cl50  1  0.45216900  0.36076800  0.39175200  1
  Cl  Cl51  1  0.42037633  0.13923067  0.50084767  1
  Cl  Cl52  1  0.09140100  0.45216900  0.60824800  1
  Cl  Cl53  1  0.13923067  0.71885433  0.49915233  1
  Cl  Cl54  1  0.57962367  0.86076933  0.49915233  1
  Cl  Cl55  1  0.54783100  0.63923200  0.60824800  1
  Cl  Cl56  1  0.71885433  0.57962367  0.50084767  1
  Cl  Cl57  1  0.95089300  0.76571000  0.61043000  1
  Cl  Cl58  1  0.63923200  0.09140100  0.39175200  1
  Cl  Cl59  1  0.36076800  0.90859900  0.60824800  1
  Cl  Cl60  1  0.76571000  0.81481700  0.38957000  1
  Cl  Cl61  1  0.23429000  0.18518300  0.61043000  1
  Cl  Cl62  1  0.81481700  0.04910700  0.61043000  1
  Cl  Cl63  1  0.52743600  0.61447900  0.83418100  1
  Cl  Cl64  1  0.57526567  0.88116433  0.72508533  1
  Cl  Cl65  1  0.94781233  0.75370967  0.83248567  1
  Cl  Cl66  1  0.85184967  0.28422633  0.72290333  1
  Cl  Cl67  1  0.71577367  0.56762333  0.72290333  1
  Cl  Cl68  1  0.11883567  0.69410133  0.72508533  1
  Cl  Cl69  1  0.08704300  0.47256400  0.83418100  1
  Cl  Cl70  1  0.75806767  0.78550233  0.94158133  1
  Cl  Cl71  1  0.80589733  0.05218767  0.83248567  1
  Cl  Cl72  1  0.24629033  0.19410267  0.83248567  1
  Cl  Cl73  1  0.21449767  0.97256533  0.94158133  1
  Cl  Cl74  1  0.38552100  0.91295700  0.83418100  1
  Cl  Cl75  1  0.61755967  0.09904333  0.94376333  1
  Cl  Cl76  1  0.30589867  0.42473433  0.72508533  1
  Cl  Cl77  1  0.02743467  0.24193233  0.94158133  1
  Cl  Cl78  1  0.43237667  0.14815033  0.72290333  1
  Cl  Cl79  1  0.90095667  0.51851633  0.94376333  1
  Cl  Cl80  1  0.48148367  0.38244033  0.94376333  1
