# generated using pymatgen
data_NaNd(GaSe2)4
_symmetry_space_group_name_H-M   'P 1'
_cell_length_a   12.87028600
_cell_length_b   21.38940600
_cell_length_c   21.44513400
_cell_angle_alpha   90.00000000
_cell_angle_beta   90.00000000
_cell_angle_gamma   90.00000000
_symmetry_Int_Tables_number   1
_chemical_formula_structural   NaNd(GaSe2)4
_chemical_formula_sum   'Na16 Nd16 Ga64 Se128'
_cell_volume   5903.58317176
_cell_formula_units_Z   16
loop_
 _symmetry_equiv_pos_site_id
 _symmetry_equiv_pos_as_xyz
  1  'x, y, z'
loop_
 _atom_site_type_symbol
 _atom_site_label
 _atom_site_symmetry_multiplicity
 _atom_site_fract_x
 _atom_site_fract_y
 _atom_site_fract_z
 _atom_site_occupancy
  Na  Na0  1  0.75000000  0.75000000  0.49662600  1
  Na  Na1  1  0.75000000  0.75000000  0.00337400  1
  Na  Na2  1  0.00000000  0.00000000  0.24662600  1
  Na  Na3  1  0.50000000  0.00000000  0.25337400  1
  Na  Na4  1  0.75000000  0.25000000  0.99662600  1
  Na  Na5  1  0.75000000  0.25000000  0.50337400  1
  Na  Na6  1  0.00000000  0.50000000  0.74662600  1
  Na  Na7  1  0.50000000  0.50000000  0.75337400  1
  Na  Na8  1  0.25000000  0.75000000  0.99662600  1
  Na  Na9  1  0.25000000  0.75000000  0.50337400  1
  Na  Na10  1  0.50000000  0.00000000  0.74662600  1
  Na  Na11  1  0.00000000  0.00000000  0.75337400  1
  Na  Na12  1  0.25000000  0.25000000  0.49662600  1
  Na  Na13  1  0.25000000  0.25000000  0.00337400  1
  Na  Na14  1  0.50000000  0.50000000  0.24662600  1
  Na  Na15  1  0.00000000  0.50000000  0.25337400  1
  Nd  Nd16  1  0.75000000  0.75000000  0.25000000  1
  Nd  Nd17  1  0.00000000  0.00000000  0.00000000  1
  Nd  Nd18  1  0.50000000  0.00000000  0.00000000  1
  Nd  Nd19  1  0.75000000  0.25000000  0.25000000  1
  Nd  Nd20  1  0.75000000  0.25000000  0.75000000  1
  Nd  Nd21  1  0.00000000  0.50000000  0.50000000  1
  Nd  Nd22  1  0.50000000  0.50000000  0.50000000  1
  Nd  Nd23  1  0.75000000  0.75000000  0.75000000  1
  Nd  Nd24  1  0.25000000  0.75000000  0.75000000  1
  Nd  Nd25  1  0.50000000  0.00000000  0.50000000  1
  Nd  Nd26  1  0.00000000  0.00000000  0.50000000  1
  Nd  Nd27  1  0.25000000  0.25000000  0.75000000  1
  Nd  Nd28  1  0.25000000  0.25000000  0.25000000  1
  Nd  Nd29  1  0.50000000  0.50000000  0.00000000  1
  Nd  Nd30  1  0.00000000  0.50000000  0.00000000  1
  Nd  Nd31  1  0.25000000  0.75000000  0.25000000  1
  Ga  Ga32  1  0.75103950  0.11466750  0.37761900  1
  Ga  Ga33  1  0.29052150  0.07007300  0.37589250  1
  Ga  Ga34  1  0.25103950  0.88533250  0.12238100  1
  Ga  Ga35  1  0.54052150  0.67992700  0.12589250  1
  Ga  Ga36  1  0.99896050  0.13533250  0.37238100  1
  Ga  Ga37  1  0.04052150  0.32007300  0.37410750  1
  Ga  Ga38  1  0.74896050  0.11466750  0.12238100  1
  Ga  Ga39  1  0.20947850  0.07007300  0.12410750  1
  Ga  Ga40  1  0.95947850  0.67992700  0.37410750  1
  Ga  Ga41  1  0.70947850  0.92992700  0.37589250  1
  Ga  Ga42  1  0.50103950  0.13533250  0.12761900  1
  Ga  Ga43  1  0.79052150  0.92992700  0.12410750  1
  Ga  Ga44  1  0.00103950  0.86466750  0.37238100  1
  Ga  Ga45  1  0.24896050  0.88533250  0.37761900  1
  Ga  Ga46  1  0.49896050  0.86466750  0.12761900  1
  Ga  Ga47  1  0.45947850  0.32007300  0.12589250  1
  Ga  Ga48  1  0.75103950  0.61466750  0.87761900  1
  Ga  Ga49  1  0.29052150  0.57007300  0.87589250  1
  Ga  Ga50  1  0.25103950  0.38533250  0.62238100  1
  Ga  Ga51  1  0.54052150  0.17992700  0.62589250  1
  Ga  Ga52  1  0.99896050  0.63533250  0.87238100  1
  Ga  Ga53  1  0.04052150  0.82007300  0.87410750  1
  Ga  Ga54  1  0.74896050  0.61466750  0.62238100  1
  Ga  Ga55  1  0.20947850  0.57007300  0.62410750  1
  Ga  Ga56  1  0.95947850  0.17992700  0.87410750  1
  Ga  Ga57  1  0.70947850  0.42992700  0.87589250  1
  Ga  Ga58  1  0.50103950  0.63533250  0.62761900  1
  Ga  Ga59  1  0.79052150  0.42992700  0.62410750  1
  Ga  Ga60  1  0.00103950  0.36466750  0.87238100  1
  Ga  Ga61  1  0.24896050  0.38533250  0.87761900  1
  Ga  Ga62  1  0.49896050  0.36466750  0.62761900  1
  Ga  Ga63  1  0.45947850  0.82007300  0.62589250  1
  Ga  Ga64  1  0.25103950  0.11466750  0.87761900  1
  Ga  Ga65  1  0.79052150  0.07007300  0.87589250  1
  Ga  Ga66  1  0.75103950  0.88533250  0.62238100  1
  Ga  Ga67  1  0.04052150  0.67992700  0.62589250  1
  Ga  Ga68  1  0.49896050  0.13533250  0.87238100  1
  Ga  Ga69  1  0.54052150  0.32007300  0.87410750  1
  Ga  Ga70  1  0.24896050  0.11466750  0.62238100  1
  Ga  Ga71  1  0.70947850  0.07007300  0.62410750  1
  Ga  Ga72  1  0.45947850  0.67992700  0.87410750  1
  Ga  Ga73  1  0.20947850  0.92992700  0.87589250  1
  Ga  Ga74  1  0.00103950  0.13533250  0.62761900  1
  Ga  Ga75  1  0.29052150  0.92992700  0.62410750  1
  Ga  Ga76  1  0.50103950  0.86466750  0.87238100  1
  Ga  Ga77  1  0.74896050  0.88533250  0.87761900  1
  Ga  Ga78  1  0.99896050  0.86466750  0.62761900  1
  Ga  Ga79  1  0.95947850  0.32007300  0.62589250  1
  Ga  Ga80  1  0.25103950  0.61466750  0.37761900  1
  Ga  Ga81  1  0.79052150  0.57007300  0.37589250  1
  Ga  Ga82  1  0.75103950  0.38533250  0.12238100  1
  Ga  Ga83  1  0.04052150  0.17992700  0.12589250  1
  Ga  Ga84  1  0.49896050  0.63533250  0.37238100  1
  Ga  Ga85  1  0.54052150  0.82007300  0.37410750  1
  Ga  Ga86  1  0.24896050  0.61466750  0.12238100  1
  Ga  Ga87  1  0.70947850  0.57007300  0.12410750  1
  Ga  Ga88  1  0.45947850  0.17992700  0.37410750  1
  Ga  Ga89  1  0.20947850  0.42992700  0.37589250  1
  Ga  Ga90  1  0.00103950  0.63533250  0.12761900  1
  Ga  Ga91  1  0.29052150  0.42992700  0.12410750  1
  Ga  Ga92  1  0.50103950  0.36466750  0.37238100  1
  Ga  Ga93  1  0.74896050  0.38533250  0.37761900  1
  Ga  Ga94  1  0.99896050  0.36466750  0.12761900  1
  Ga  Ga95  1  0.95947850  0.82007300  0.12589250  1
  Se  Se96  1  0.11903750  0.87756800  0.46170950  1
  Se  Se97  1  0.87913550  0.87726950  0.03794700  1
  Se  Se98  1  0.89152000  0.95916350  0.37453450  1
  Se  Se99  1  0.62086450  0.87726950  0.46205300  1
  Se  Se100  1  0.63096250  0.12756800  0.21170950  1
  Se  Se101  1  0.85848000  0.20916350  0.12453450  1
  Se  Se102  1  0.62913550  0.87273050  0.28794700  1
  Se  Se103  1  0.62230200  0.46775050  0.12171950  1
  Se  Se104  1  0.62086450  0.62273050  0.03794700  1
  Se  Se105  1  0.39152000  0.04083650  0.12546550  1
  Se  Se106  1  0.13096250  0.87243200  0.28829050  1
  Se  Se107  1  0.62769800  0.78224950  0.12828050  1
  Se  Se108  1  0.61903750  0.12243200  0.03829050  1
  Se  Se109  1  0.87769800  0.03224950  0.12171950  1
  Se  Se110  1  0.37230200  0.21775050  0.12828050  1
  Se  Se111  1  0.87913550  0.62273050  0.46205300  1
  Se  Se112  1  0.85848000  0.29083650  0.37546550  1
  Se  Se113  1  0.62230200  0.03224950  0.37828050  1
  Se  Se114  1  0.60848000  0.95916350  0.12546550  1
  Se  Se115  1  0.64152000  0.20916350  0.37546550  1
  Se  Se116  1  0.64152000  0.29083650  0.12453450  1
  Se  Se117  1  0.38096250  0.87756800  0.03829050  1
  Se  Se118  1  0.87769800  0.46775050  0.37828050  1
  Se  Se119  1  0.87086450  0.87273050  0.21205300  1
  Se  Se120  1  0.36903750  0.87243200  0.21170950  1
  Se  Se121  1  0.88096250  0.12243200  0.46170950  1
  Se  Se122  1  0.87230200  0.78224950  0.37171950  1
  Se  Se123  1  0.10848000  0.04083650  0.37453450  1
  Se  Se124  1  0.87086450  0.62726950  0.28794700  1
  Se  Se125  1  0.12769800  0.21775050  0.37171950  1
  Se  Se126  1  0.86903750  0.12756800  0.28829050  1
  Se  Se127  1  0.62913550  0.62726950  0.21205300  1
  Se  Se128  1  0.11903750  0.37756800  0.96170950  1
  Se  Se129  1  0.87913550  0.37726950  0.53794700  1
  Se  Se130  1  0.89152000  0.45916350  0.87453450  1
  Se  Se131  1  0.62086450  0.37726950  0.96205300  1
  Se  Se132  1  0.63096250  0.62756800  0.71170950  1
  Se  Se133  1  0.85848000  0.70916350  0.62453450  1
  Se  Se134  1  0.62913550  0.37273050  0.78794700  1
  Se  Se135  1  0.62230200  0.96775050  0.62171950  1
  Se  Se136  1  0.62086450  0.12273050  0.53794700  1
  Se  Se137  1  0.39152000  0.54083650  0.62546550  1
  Se  Se138  1  0.13096250  0.37243200  0.78829050  1
  Se  Se139  1  0.62769800  0.28224950  0.62828050  1
  Se  Se140  1  0.61903750  0.62243200  0.53829050  1
  Se  Se141  1  0.87769800  0.53224950  0.62171950  1
  Se  Se142  1  0.37230200  0.71775050  0.62828050  1
  Se  Se143  1  0.87913550  0.12273050  0.96205300  1
  Se  Se144  1  0.85848000  0.79083650  0.87546550  1
  Se  Se145  1  0.62230200  0.53224950  0.87828050  1
  Se  Se146  1  0.60848000  0.45916350  0.62546550  1
  Se  Se147  1  0.64152000  0.70916350  0.87546550  1
  Se  Se148  1  0.64152000  0.79083650  0.62453450  1
  Se  Se149  1  0.38096250  0.37756800  0.53829050  1
  Se  Se150  1  0.87769800  0.96775050  0.87828050  1
  Se  Se151  1  0.87086450  0.37273050  0.71205300  1
  Se  Se152  1  0.36903750  0.37243200  0.71170950  1
  Se  Se153  1  0.88096250  0.62243200  0.96170950  1
  Se  Se154  1  0.87230200  0.28224950  0.87171950  1
  Se  Se155  1  0.10848000  0.54083650  0.87453450  1
  Se  Se156  1  0.87086450  0.12726950  0.78794700  1
  Se  Se157  1  0.12769800  0.71775050  0.87171950  1
  Se  Se158  1  0.86903750  0.62756800  0.78829050  1
  Se  Se159  1  0.62913550  0.12726950  0.71205300  1
  Se  Se160  1  0.61903750  0.87756800  0.96170950  1
  Se  Se161  1  0.37913550  0.87726950  0.53794700  1
  Se  Se162  1  0.39152000  0.95916350  0.87453450  1
  Se  Se163  1  0.12086450  0.87726950  0.96205300  1
  Se  Se164  1  0.13096250  0.12756800  0.71170950  1
  Se  Se165  1  0.35848000  0.20916350  0.62453450  1
  Se  Se166  1  0.12913550  0.87273050  0.78794700  1
  Se  Se167  1  0.12230200  0.46775050  0.62171950  1
  Se  Se168  1  0.12086450  0.62273050  0.53794700  1
  Se  Se169  1  0.89152000  0.04083650  0.62546550  1
  Se  Se170  1  0.63096250  0.87243200  0.78829050  1
  Se  Se171  1  0.12769800  0.78224950  0.62828050  1
  Se  Se172  1  0.11903750  0.12243200  0.53829050  1
  Se  Se173  1  0.37769800  0.03224950  0.62171950  1
  Se  Se174  1  0.87230200  0.21775050  0.62828050  1
  Se  Se175  1  0.37913550  0.62273050  0.96205300  1
  Se  Se176  1  0.35848000  0.29083650  0.87546550  1
  Se  Se177  1  0.12230200  0.03224950  0.87828050  1
  Se  Se178  1  0.10848000  0.95916350  0.62546550  1
  Se  Se179  1  0.14152000  0.20916350  0.87546550  1
  Se  Se180  1  0.14152000  0.29083650  0.62453450  1
  Se  Se181  1  0.88096250  0.87756800  0.53829050  1
  Se  Se182  1  0.37769800  0.46775050  0.87828050  1
  Se  Se183  1  0.37086450  0.87273050  0.71205300  1
  Se  Se184  1  0.86903750  0.87243200  0.71170950  1
  Se  Se185  1  0.38096250  0.12243200  0.96170950  1
  Se  Se186  1  0.37230200  0.78224950  0.87171950  1
  Se  Se187  1  0.60848000  0.04083650  0.87453450  1
  Se  Se188  1  0.37086450  0.62726950  0.78794700  1
  Se  Se189  1  0.62769800  0.21775050  0.87171950  1
  Se  Se190  1  0.36903750  0.12756800  0.78829050  1
  Se  Se191  1  0.12913550  0.62726950  0.71205300  1
  Se  Se192  1  0.61903750  0.37756800  0.46170950  1
  Se  Se193  1  0.37913550  0.37726950  0.03794700  1
  Se  Se194  1  0.39152000  0.45916350  0.37453450  1
  Se  Se195  1  0.12086450  0.37726950  0.46205300  1
  Se  Se196  1  0.13096250  0.62756800  0.21170950  1
  Se  Se197  1  0.35848000  0.70916350  0.12453450  1
  Se  Se198  1  0.12913550  0.37273050  0.28794700  1
  Se  Se199  1  0.12230200  0.96775050  0.12171950  1
  Se  Se200  1  0.12086450  0.12273050  0.03794700  1
  Se  Se201  1  0.89152000  0.54083650  0.12546550  1
  Se  Se202  1  0.63096250  0.37243200  0.28829050  1
  Se  Se203  1  0.12769800  0.28224950  0.12828050  1
  Se  Se204  1  0.11903750  0.62243200  0.03829050  1
  Se  Se205  1  0.37769800  0.53224950  0.12171950  1
  Se  Se206  1  0.87230200  0.71775050  0.12828050  1
  Se  Se207  1  0.37913550  0.12273050  0.46205300  1
  Se  Se208  1  0.35848000  0.79083650  0.37546550  1
  Se  Se209  1  0.12230200  0.53224950  0.37828050  1
  Se  Se210  1  0.10848000  0.45916350  0.12546550  1
  Se  Se211  1  0.14152000  0.70916350  0.37546550  1
  Se  Se212  1  0.14152000  0.79083650  0.12453450  1
  Se  Se213  1  0.88096250  0.37756800  0.03829050  1
  Se  Se214  1  0.37769800  0.96775050  0.37828050  1
  Se  Se215  1  0.37086450  0.37273050  0.21205300  1
  Se  Se216  1  0.86903750  0.37243200  0.21170950  1
  Se  Se217  1  0.38096250  0.62243200  0.46170950  1
  Se  Se218  1  0.37230200  0.28224950  0.37171950  1
  Se  Se219  1  0.60848000  0.54083650  0.37453450  1
  Se  Se220  1  0.37086450  0.12726950  0.28794700  1
  Se  Se221  1  0.62769800  0.71775050  0.37171950  1
  Se  Se222  1  0.36903750  0.62756800  0.28829050  1
  Se  Se223  1  0.12913550  0.12726950  0.21205300  1
