# generated using pymatgen
data_AgNO3
_symmetry_space_group_name_H-M   'P 1'
_cell_length_a   5.23839804
_cell_length_b   5.23839804
_cell_length_c   17.19726612
_cell_angle_alpha   90.00000000
_cell_angle_beta   90.00000000
_cell_angle_gamma   120.00000000
_symmetry_Int_Tables_number   1
_chemical_formula_structural   AgNO3
_chemical_formula_sum   'Ag6 N6 O18'
_cell_volume   408.68343452
_cell_formula_units_Z   6
loop_
 _symmetry_equiv_pos_site_id
 _symmetry_equiv_pos_as_xyz
  1  'x, y, z'
loop_
 _atom_site_type_symbol
 _atom_site_label
 _atom_site_symmetry_multiplicity
 _atom_site_fract_x
 _atom_site_fract_y
 _atom_site_fract_z
 _atom_site_occupancy
  Ag  Ag0  1  0.00000000  0.00000000  0.00089100  1
  Ag  Ag1  1  0.33333333  0.66666667  0.16755767  1
  Ag  Ag2  1  0.66666667  0.33333333  0.33422433  1
  Ag  Ag3  1  0.00000000  0.00000000  0.50089100  1
  Ag  Ag4  1  0.33333333  0.66666667  0.66755767  1
  Ag  Ag5  1  0.66666667  0.33333333  0.83422433  1
  N  N6  1  0.66666667  0.33333333  0.11096033  1
  N  N7  1  0.00000000  0.00000000  0.27762700  1
  N  N8  1  0.33333333  0.66666667  0.44429367  1
  N  N9  1  0.66666667  0.33333333  0.61096033  1
  N  N10  1  0.00000000  0.00000000  0.77762700  1
  N  N11  1  0.33333333  0.66666667  0.94429367  1
  O  O12  1  0.20821067  0.26677133  0.27819133  1
  O  O13  1  0.87487733  0.27477267  0.11152467  1
  O  O14  1  0.73322867  0.94143933  0.27819133  1
  O  O15  1  0.05856067  0.79178933  0.27819133  1
  O  O16  1  0.39989533  0.12512267  0.11152467  1
  O  O17  1  0.72522733  0.60010467  0.11152467  1
  O  O18  1  0.87487733  0.60010467  0.61152467  1
  O  O19  1  0.54154400  0.60810600  0.44485800  1
  O  O20  1  0.39989533  0.27477267  0.61152467  1
  O  O21  1  0.72522733  0.12512267  0.61152467  1
  O  O22  1  0.06656200  0.45845600  0.44485800  1
  O  O23  1  0.39189400  0.93343800  0.44485800  1
  O  O24  1  0.54154400  0.93343800  0.94485800  1
  O  O25  1  0.20821067  0.94143933  0.77819133  1
  O  O26  1  0.06656200  0.60810600  0.94485800  1
  O  O27  1  0.39189400  0.45845600  0.94485800  1
  O  O28  1  0.73322867  0.79178933  0.77819133  1
  O  O29  1  0.05856067  0.26677133  0.77819133  1
