# generated using pymatgen
data_Na4Si3(SnO6)2
_symmetry_space_group_name_H-M   'P 1'
_cell_length_a   9.16206579
_cell_length_b   9.16206579
_cell_length_c   22.21601142
_cell_angle_alpha   90.00000000
_cell_angle_beta   90.00000000
_cell_angle_gamma   120.00000000
_symmetry_Int_Tables_number   1
_chemical_formula_structural   Na4Si3(SnO6)2
_chemical_formula_sum   'Na24 Si18 Sn12 O72'
_cell_volume   1615.04093283
_cell_formula_units_Z   6
loop_
 _symmetry_equiv_pos_site_id
 _symmetry_equiv_pos_as_xyz
  1  'x, y, z'
loop_
 _atom_site_type_symbol
 _atom_site_label
 _atom_site_symmetry_multiplicity
 _atom_site_fract_x
 _atom_site_fract_y
 _atom_site_fract_z
 _atom_site_occupancy
  Na  Na0  1  0.00000000  0.00000000  0.00000000  1
  Na  Na1  1  0.66666667  0.96650933  0.08333333  1
  Na  Na2  1  0.29984267  0.33333333  0.08333333  1
  Na  Na3  1  0.03349067  0.70015733  0.08333333  1
  Na  Na4  1  0.63317600  0.63317600  0.25000000  1
  Na  Na5  1  0.33333333  0.66666667  0.16666667  1
  Na  Na6  1  0.36682400  0.00000000  0.25000000  1
  Na  Na7  1  0.00000000  0.36682400  0.25000000  1
  Na  Na8  1  0.66666667  0.33333333  0.33333333  1
  Na  Na9  1  0.33333333  0.29984267  0.41666667  1
  Na  Na10  1  0.96650933  0.66666667  0.41666667  1
  Na  Na11  1  0.70015733  0.03349067  0.41666667  1
  Na  Na12  1  0.29984267  0.96650933  0.58333333  1
  Na  Na13  1  0.00000000  0.00000000  0.50000000  1
  Na  Na14  1  0.03349067  0.33333333  0.58333333  1
  Na  Na15  1  0.66666667  0.70015733  0.58333333  1
  Na  Na16  1  0.33333333  0.66666667  0.66666667  1
  Na  Na17  1  0.00000000  0.63317600  0.75000000  1
  Na  Na18  1  0.63317600  0.00000000  0.75000000  1
  Na  Na19  1  0.36682400  0.36682400  0.75000000  1
  Na  Na20  1  0.96650933  0.29984267  0.91666667  1
  Na  Na21  1  0.66666667  0.33333333  0.83333333  1
  Na  Na22  1  0.70015733  0.66666667  0.91666667  1
  Na  Na23  1  0.33333333  0.03349067  0.91666667  1
  Si  Si24  1  0.37235767  0.03902433  0.08333333  1
  Si  Si25  1  0.00000000  0.70569100  0.25000000  1
  Si  Si26  1  0.29430900  0.29430900  0.25000000  1
  Si  Si27  1  0.96097567  0.33333333  0.08333333  1
  Si  Si28  1  0.70569100  1.00000000  0.25000000  1
  Si  Si29  1  0.66666667  0.62764233  0.08333333  1
  Si  Si30  1  0.03902433  0.37235767  0.41666667  1
  Si  Si31  1  0.66666667  0.03902433  0.58333333  1
  Si  Si32  1  0.96097567  0.62764233  0.58333333  1
  Si  Si33  1  0.62764233  0.66666667  0.41666667  1
  Si  Si34  1  0.37235767  0.33333333  0.58333333  1
  Si  Si35  1  0.33333333  0.96097567  0.41666667  1
  Si  Si36  1  0.70569100  0.70569100  0.75000000  1
  Si  Si37  1  0.33333333  0.37235767  0.91666667  1
  Si  Si38  1  0.62764233  0.96097567  0.91666667  1
  Si  Si39  1  0.29430900  0.00000000  0.75000000  1
  Si  Si40  1  0.03902433  0.66666667  0.91666667  1
  Si  Si41  1  0.00000000  0.29430900  0.75000000  1
  Sn  Sn42  1  0.33333333  0.66666667  0.31330167  1
  Sn  Sn43  1  0.33333333  0.66666667  0.81330167  1
  Sn  Sn44  1  0.33333333  0.66666667  0.52003167  1
  Sn  Sn45  1  0.33333333  0.66666667  0.02003167  1
  Sn  Sn46  1  0.00000000  0.00000000  0.64663500  1
  Sn  Sn47  1  0.00000000  0.00000000  0.14663500  1
  Sn  Sn48  1  1.00000000  0.00000000  0.85336500  1
  Sn  Sn49  1  0.00000000  0.00000000  0.35336500  1
  Sn  Sn50  1  0.66666667  0.33333333  0.97996833  1
  Sn  Sn51  1  0.66666667  0.33333333  0.47996833  1
  Sn  Sn52  1  0.66666667  0.33333333  0.18669833  1
  Sn  Sn53  1  0.66666667  0.33333333  0.68669833  1
  O  O54  1  0.30384633  0.45705667  0.97699667  1
  O  O55  1  0.48228433  0.31225567  0.24796767  1
  O  O56  1  0.83669533  0.81561767  0.08536567  1
  O  O57  1  0.79039000  0.97051300  0.18967000  1
  O  O58  1  0.48654367  0.12372333  0.14366333  1
  O  O59  1  0.63717967  0.51345633  0.14366333  1
  O  O60  1  0.18012300  0.20961000  0.18967000  1
  O  O61  1  0.02948700  0.81987700  0.18967000  1
  O  O62  1  0.17002867  0.68774433  0.25203233  1
  O  O63  1  0.31225567  0.48228433  0.25203233  1
  O  O64  1  0.82997133  0.51771567  0.24796767  1
  O  O65  1  0.36282033  0.87627667  0.35633667  1
  O  O66  1  0.14895100  0.50336200  0.08130100  1
  O  O67  1  0.68774433  0.17002867  0.24796767  1
  O  O68  1  0.49663800  0.64558900  0.08130100  1
  O  O69  1  0.54294333  0.84678967  0.97699667  1
  O  O70  1  0.15321033  0.69615367  0.97699667  1
  O  O71  1  0.18438233  0.02107767  0.08536567  1
  O  O72  1  0.35441100  0.85104900  0.08130100  1
  O  O73  1  0.51771567  0.82997133  0.25203233  1
  O  O74  1  0.97892233  0.16330467  0.08536567  1
  O  O75  1  0.51345633  0.63717967  0.35633667  1
  O  O76  1  0.12372333  0.48654367  0.35633667  1
  O  O77  1  0.87627667  0.36282033  0.14366333  1
  O  O78  1  0.97051300  0.79039000  0.31033000  1
  O  O79  1  0.14895100  0.64558900  0.58130100  1
  O  O80  1  0.50336200  0.14895100  0.41869900  1
  O  O81  1  0.45705667  0.30384633  0.52300333  1
  O  O82  1  0.15321033  0.45705667  0.47699667  1
  O  O83  1  0.30384633  0.84678967  0.47699667  1
  O  O84  1  0.84678967  0.54294333  0.52300333  1
  O  O85  1  0.69615367  0.15321033  0.52300333  1
  O  O86  1  0.83669533  0.02107767  0.58536567  1
  O  O87  1  0.97892233  0.81561767  0.58536567  1
  O  O88  1  0.49663800  0.85104900  0.58130100  1
  O  O89  1  0.02948700  0.20961000  0.68967000  1
  O  O90  1  0.81561767  0.83669533  0.41463433  1
  O  O91  1  0.35441100  0.50336200  0.58130100  1
  O  O92  1  0.16330467  0.97892233  0.41463433  1
  O  O93  1  0.20961000  0.18012300  0.31033000  1
  O  O94  1  0.81987700  0.02948700  0.31033000  1
  O  O95  1  0.85104900  0.35441100  0.41869900  1
  O  O96  1  0.02107767  0.18438233  0.41463433  1
  O  O97  1  0.18438233  0.16330467  0.58536567  1
  O  O98  1  0.64558900  0.49663800  0.41869900  1
  O  O99  1  0.18012300  0.97051300  0.68967000  1
  O  O100  1  0.79039000  0.81987700  0.68967000  1
  O  O101  1  0.54294333  0.69615367  0.47699667  1
  O  O102  1  0.63717967  0.12372333  0.64366333  1
  O  O103  1  0.81561767  0.97892233  0.91463433  1
  O  O104  1  0.17002867  0.48228433  0.75203233  1
  O  O105  1  0.12372333  0.63717967  0.85633667  1
  O  O106  1  0.81987700  0.79039000  0.81033000  1
  O  O107  1  0.97051300  0.18012300  0.81033000  1
  O  O108  1  0.51345633  0.87627667  0.85633667  1
  O  O109  1  0.36282033  0.48654367  0.85633667  1
  O  O110  1  0.50336200  0.35441100  0.91869900  1
  O  O111  1  0.64558900  0.14895100  0.91869900  1
  O  O112  1  0.16330467  0.18438233  0.91463433  1
  O  O113  1  0.69615367  0.54294333  0.02300333  1
  O  O114  1  0.48228433  0.17002867  0.74796767  1
  O  O115  1  0.02107767  0.83669533  0.91463433  1
  O  O116  1  0.82997133  0.31225567  0.74796767  1
  O  O117  1  0.87627667  0.51345633  0.64366333  1
  O  O118  1  0.48654367  0.36282033  0.64366333  1
  O  O119  1  0.51771567  0.68774433  0.75203233  1
  O  O120  1  0.68774433  0.51771567  0.74796767  1
  O  O121  1  0.85104900  0.49663800  0.91869900  1
  O  O122  1  0.31225567  0.82997133  0.75203233  1
  O  O123  1  0.84678967  0.30384633  0.02300333  1
  O  O124  1  0.45705667  0.15321033  0.02300333  1
  O  O125  1  0.20961000  0.02948700  0.81033000  1
