# generated using pymatgen
data_Na5P3O10
_symmetry_space_group_name_H-M   'P 1'
_cell_length_a   9.84046800
_cell_length_b   5.40812000
_cell_length_c   18.72673488
_cell_angle_alpha   90.00000000
_cell_angle_beta   96.86137397
_cell_angle_gamma   90.00000000
_symmetry_Int_Tables_number   1
_chemical_formula_structural   Na5P3O10
_chemical_formula_sum   'Na20 P12 O40'
_cell_volume   989.46986658
_cell_formula_units_Z   4
loop_
 _symmetry_equiv_pos_site_id
 _symmetry_equiv_pos_as_xyz
  1  'x, y, z'
loop_
 _atom_site_type_symbol
 _atom_site_label
 _atom_site_symmetry_multiplicity
 _atom_site_fract_x
 _atom_site_fract_y
 _atom_site_fract_z
 _atom_site_occupancy
  Na  Na0  1  0.92449100  0.23458400  0.93275700  1
  Na  Na1  1  0.78486800  0.82079100  0.17626100  1
  Na  Na2  1  0.71513200  0.32079100  0.32373900  1
  Na  Na3  1  0.57550900  0.73458400  0.56724300  1
  Na  Na4  1  0.57550900  0.26541600  0.06724300  1
  Na  Na5  1  0.78486800  0.17920900  0.67626100  1
  Na  Na6  1  0.75000000  0.75000000  0.00000000  1
  Na  Na7  1  0.71513200  0.67920900  0.82373900  1
  Na  Na8  1  0.92449100  0.76541600  0.43275700  1
  Na  Na9  1  0.75000000  0.25000000  0.50000000  1
  Na  Na10  1  0.42449100  0.73458400  0.93275700  1
  Na  Na11  1  0.28486800  0.32079100  0.17626100  1
  Na  Na12  1  0.21513200  0.82079100  0.32373900  1
  Na  Na13  1  0.07550900  0.23458400  0.56724300  1
  Na  Na14  1  0.07550900  0.76541600  0.06724300  1
  Na  Na15  1  0.28486800  0.67920900  0.67626100  1
  Na  Na16  1  0.25000000  0.25000000  0.00000000  1
  Na  Na17  1  0.21513200  0.17920900  0.82373900  1
  Na  Na18  1  0.42449100  0.26541600  0.43275700  1
  Na  Na19  1  0.25000000  0.75000000  0.50000000  1
  P  P20  1  0.91676550  0.72769050  0.59973300  1
  P  P21  1  0.91676550  0.27230950  0.09973300  1
  P  P22  1  0.00000000  0.59891400  0.75000000  1
  P  P23  1  0.00000000  0.40108600  0.25000000  1
  P  P24  1  0.58323450  0.22769050  0.90026700  1
  P  P25  1  0.58323450  0.77230950  0.40026700  1
  P  P26  1  0.41676550  0.22769050  0.59973300  1
  P  P27  1  0.41676550  0.77230950  0.09973300  1
  P  P28  1  0.50000000  0.09891400  0.75000000  1
  P  P29  1  0.50000000  0.90108600  0.25000000  1
  P  P30  1  0.08323450  0.72769050  0.90026700  1
  P  P31  1  0.08323450  0.27230950  0.40026700  1
  O  O32  1  0.61823450  0.04771350  0.40336100  1
  O  O33  1  0.54374700  0.70027000  0.31301600  1
  O  O34  1  0.87663300  0.45551700  0.76767000  1
  O  O35  1  0.54438300  0.70820800  0.06401000  1
  O  O36  1  0.70424550  0.60114150  0.42271800  1
  O  O37  1  0.87663300  0.54448300  0.26767000  1
  O  O38  1  0.79575450  0.89885850  0.57728200  1
  O  O39  1  0.70424550  0.39885850  0.92271800  1
  O  O40  1  0.88176550  0.54771350  0.09663900  1
  O  O41  1  0.79575450  0.10114150  0.07728200  1
  O  O42  1  0.95561700  0.20820800  0.43599000  1
  O  O43  1  0.88176550  0.45228650  0.59663900  1
  O  O44  1  0.61823450  0.95228650  0.90336100  1
  O  O45  1  0.62336700  0.95551700  0.73233000  1
  O  O46  1  0.54438300  0.29179200  0.56401000  1
  O  O47  1  0.95561700  0.79179200  0.93599000  1
  O  O48  1  0.95625300  0.79973000  0.68698400  1
  O  O49  1  0.62336700  0.04448300  0.23233000  1
  O  O50  1  0.54374700  0.29973000  0.81301600  1
  O  O51  1  0.95625300  0.20027000  0.18698400  1
  O  O52  1  0.11823450  0.54771350  0.40336100  1
  O  O53  1  0.04374700  0.20027000  0.31301600  1
  O  O54  1  0.37663300  0.95551700  0.76767000  1
  O  O55  1  0.04438300  0.20820800  0.06401000  1
  O  O56  1  0.20424550  0.10114150  0.42271800  1
  O  O57  1  0.37663300  0.04448300  0.26767000  1
  O  O58  1  0.29575450  0.39885850  0.57728200  1
  O  O59  1  0.20424550  0.89885850  0.92271800  1
  O  O60  1  0.38176550  0.04771350  0.09663900  1
  O  O61  1  0.29575450  0.60114150  0.07728200  1
  O  O62  1  0.45561700  0.70820800  0.43599000  1
  O  O63  1  0.38176550  0.95228650  0.59663900  1
  O  O64  1  0.11823450  0.45228650  0.90336100  1
  O  O65  1  0.12336700  0.45551700  0.73233000  1
  O  O66  1  0.04438300  0.79179200  0.56401000  1
  O  O67  1  0.45561700  0.29179200  0.93599000  1
  O  O68  1  0.45625300  0.29973000  0.68698400  1
  O  O69  1  0.12336700  0.54448300  0.23233000  1
  O  O70  1  0.04374700  0.79973000  0.81301600  1
  O  O71  1  0.45625300  0.70027000  0.18698400  1
