# generated using pymatgen
data_K3Na4Si3BF22
_symmetry_space_group_name_H-M   'P 1'
_cell_length_a   5.62691800
_cell_length_b   9.31085000
_cell_length_c   17.40873000
_cell_angle_alpha   90.00000000
_cell_angle_beta   90.00000000
_cell_angle_gamma   90.00000000
_symmetry_Int_Tables_number   1
_chemical_formula_structural   K3Na4Si3BF22
_chemical_formula_sum   'K6 Na8 Si6 B2 F44'
_cell_volume   912.06755344
_cell_formula_units_Z   2
loop_
 _symmetry_equiv_pos_site_id
 _symmetry_equiv_pos_as_xyz
  1  'x, y, z'
loop_
 _atom_site_type_symbol
 _atom_site_label
 _atom_site_symmetry_multiplicity
 _atom_site_fract_x
 _atom_site_fract_y
 _atom_site_fract_z
 _atom_site_occupancy
  K  K0  1  0.00000000  0.21722450  0.37396350  1
  K  K1  1  0.50000000  0.71722450  0.12603650  1
  K  K2  1  0.00000000  0.05521400  0.00000000  1
  K  K3  1  0.50000000  0.71722450  0.87396350  1
  K  K4  1  0.00000000  0.21722450  0.62603650  1
  K  K5  1  0.50000000  0.55521400  0.50000000  1
  Na  Na6  1  0.00000000  0.64882400  0.32956600  1
  Na  Na7  1  0.00000000  0.39629150  0.14175050  1
  Na  Na8  1  0.50000000  0.89629150  0.35824950  1
  Na  Na9  1  0.50000000  0.14882400  0.17043400  1
  Na  Na10  1  0.50000000  0.14882400  0.82956600  1
  Na  Na11  1  0.50000000  0.89629150  0.64175050  1
  Na  Na12  1  0.00000000  0.39629150  0.85824950  1
  Na  Na13  1  0.00000000  0.64882400  0.67043400  1
  Si  Si14  1  0.50000000  0.48109950  0.28586650  1
  Si  Si15  1  0.50000000  0.29581400  0.00000000  1
  Si  Si16  1  0.00000000  0.98109950  0.21413350  1
  Si  Si17  1  0.00000000  0.98109950  0.78586650  1
  Si  Si18  1  0.00000000  0.79581400  0.50000000  1
  Si  Si19  1  0.50000000  0.48109950  0.71413350  1
  B  B20  1  0.00000000  0.68617000  0.00000000  1
  B  B21  1  0.50000000  0.18617000  0.50000000  1
  F  F22  1  0.71680900  0.50021100  0.21689200  1
  F  F23  1  0.78483650  0.78969550  0.42930850  1
  F  F24  1  0.21726350  0.96858350  0.14498250  1
  F  F25  1  0.28273650  0.46858350  0.35501750  1
  F  F26  1  0.71516350  0.28969550  0.07069150  1
  F  F27  1  0.50000000  0.29980050  0.27406150  1
  F  F28  1  0.71726350  0.46858350  0.35501750  1
  F  F29  1  0.78273650  0.96858350  0.14498250  1
  F  F30  1  0.50000000  0.11065200  0.00000000  1
  F  F31  1  0.50000000  0.10128700  0.43283800  1
  F  F32  1  0.00000000  0.60128700  0.06716200  1
  F  F33  1  0.20603200  0.77488300  0.00000000  1
  F  F34  1  0.50000000  0.47672500  0.00000000  1
  F  F35  1  0.28319100  0.50021100  0.21689200  1
  F  F36  1  0.28483650  0.28969550  0.07069150  1
  F  F37  1  0.78319100  0.00021100  0.28310800  1
  F  F38  1  0.29396800  0.27488300  0.50000000  1
  F  F39  1  0.00000000  0.16639000  0.20326700  1
  F  F40  1  0.21680900  0.00021100  0.28310800  1
  F  F41  1  0.50000000  0.66639000  0.29673300  1
  F  F42  1  0.00000000  0.79980050  0.22593850  1
  F  F43  1  0.21516350  0.78969550  0.42930850  1
  F  F44  1  0.21680900  0.00021100  0.71689200  1
  F  F45  1  0.28483650  0.28969550  0.92930850  1
  F  F46  1  0.71726350  0.46858350  0.64498250  1
  F  F47  1  0.78273650  0.96858350  0.85501750  1
  F  F48  1  0.21516350  0.78969550  0.57069150  1
  F  F49  1  0.00000000  0.79980050  0.77406150  1
  F  F50  1  0.21726350  0.96858350  0.85501750  1
  F  F51  1  0.28273650  0.46858350  0.64498250  1
  F  F52  1  0.00000000  0.61065200  0.50000000  1
  F  F53  1  0.00000000  0.60128700  0.93283800  1
  F  F54  1  0.50000000  0.10128700  0.56716200  1
  F  F55  1  0.70603200  0.27488300  0.50000000  1
  F  F56  1  0.00000000  0.97672500  0.50000000  1
  F  F57  1  0.78319100  0.00021100  0.71689200  1
  F  F58  1  0.78483650  0.78969550  0.57069150  1
  F  F59  1  0.28319100  0.50021100  0.78310800  1
  F  F60  1  0.79396800  0.77488300  0.00000000  1
  F  F61  1  0.50000000  0.66639000  0.70326700  1
  F  F62  1  0.71680900  0.50021100  0.78310800  1
  F  F63  1  0.00000000  0.16639000  0.79673300  1
  F  F64  1  0.50000000  0.29980050  0.72593850  1
  F  F65  1  0.71516350  0.28969550  0.92930850  1
