# generated using pymatgen
data_Nb3Tl2Br9
_symmetry_space_group_name_H-M   'P 1'
_cell_length_a   11.40072600
_cell_length_b   16.87630800
_cell_length_c   10.39055298
_cell_angle_alpha   90.00000000
_cell_angle_beta   117.22104275
_cell_angle_gamma   90.00000000
_symmetry_Int_Tables_number   1
_chemical_formula_structural   Nb3Tl2Br9
_chemical_formula_sum   'Nb12 Tl8 Br36'
_cell_volume   1777.75423854
_cell_formula_units_Z   4
loop_
 _symmetry_equiv_pos_site_id
 _symmetry_equiv_pos_as_xyz
  1  'x, y, z'
loop_
 _atom_site_type_symbol
 _atom_site_label
 _atom_site_symmetry_multiplicity
 _atom_site_fract_x
 _atom_site_fract_y
 _atom_site_fract_z
 _atom_site_occupancy
  Nb  Nb0  1  0.10360000  0.00000000  0.87527900  1
  Nb  Nb1  1  0.89640000  0.00000000  0.12472100  1
  Nb  Nb2  1  0.12715000  0.08807500  0.13539700  1
  Nb  Nb3  1  0.87285000  0.08807500  0.86460300  1
  Nb  Nb4  1  0.87285000  0.91192500  0.86460300  1
  Nb  Nb5  1  0.12715000  0.91192500  0.13539700  1
  Nb  Nb6  1  0.60360000  0.50000000  0.87527900  1
  Nb  Nb7  1  0.39640000  0.50000000  0.12472100  1
  Nb  Nb8  1  0.62715000  0.58807500  0.13539700  1
  Nb  Nb9  1  0.37285000  0.58807500  0.86460300  1
  Nb  Nb10  1  0.37285000  0.41192500  0.86460300  1
  Nb  Nb11  1  0.62715000  0.41192500  0.13539700  1
  Tl  Tl12  1  0.39507450  0.15527250  0.66109300  1
  Tl  Tl13  1  0.60492550  0.15527250  0.33890700  1
  Tl  Tl14  1  0.60492550  0.84472750  0.33890700  1
  Tl  Tl15  1  0.39507450  0.84472750  0.66109300  1
  Tl  Tl16  1  0.89507450  0.65527250  0.66109300  1
  Tl  Tl17  1  0.10492550  0.65527250  0.33890700  1
  Tl  Tl18  1  0.10492550  0.34472750  0.33890700  1
  Tl  Tl19  1  0.89507450  0.34472750  0.66109300  1
  Br  Br20  1  0.31569500  0.00000000  0.33088100  1
  Br  Br21  1  0.68430500  0.00000000  0.66911900  1
  Br  Br22  1  0.50000000  0.71650000  0.00000000  1
  Br  Br23  1  0.50000000  0.28350000  0.00000000  1
  Br  Br24  1  0.46945150  0.39248550  0.68205700  1
  Br  Br25  1  0.53054850  0.39248550  0.31794300  1
  Br  Br26  1  0.53054850  0.60751450  0.31794300  1
  Br  Br27  1  0.46945150  0.60751450  0.68205700  1
  Br  Br28  1  0.30152850  0.20844750  0.32341900  1
  Br  Br29  1  0.69847150  0.20844750  0.67658100  1
  Br  Br30  1  0.69847150  0.79155250  0.67658100  1
  Br  Br31  1  0.30152850  0.79155250  0.32341900  1
  Br  Br32  1  0.28046950  0.10924250  0.01231700  1
  Br  Br33  1  0.71953050  0.10924250  0.98768300  1
  Br  Br34  1  0.71953050  0.89075750  0.98768300  1
  Br  Br35  1  0.28046950  0.89075750  0.01231700  1
  Br  Br36  1  0.24531800  0.00000000  0.70917600  1
  Br  Br37  1  0.75468200  0.00000000  0.29082400  1
  Br  Br38  1  0.81569500  0.50000000  0.33088100  1
  Br  Br39  1  0.18430500  0.50000000  0.66911900  1
  Br  Br40  1  0.00000000  0.21650000  0.00000000  1
  Br  Br41  1  0.00000000  0.78350000  0.00000000  1
  Br  Br42  1  0.96945150  0.89248550  0.68205700  1
  Br  Br43  1  0.03054850  0.89248550  0.31794300  1
  Br  Br44  1  0.03054850  0.10751450  0.31794300  1
  Br  Br45  1  0.96945150  0.10751450  0.68205700  1
  Br  Br46  1  0.80152850  0.70844750  0.32341900  1
  Br  Br47  1  0.19847150  0.70844750  0.67658100  1
  Br  Br48  1  0.19847150  0.29155250  0.67658100  1
  Br  Br49  1  0.80152850  0.29155250  0.32341900  1
  Br  Br50  1  0.78046950  0.60924250  0.01231700  1
  Br  Br51  1  0.21953050  0.60924250  0.98768300  1
  Br  Br52  1  0.21953050  0.39075750  0.98768300  1
  Br  Br53  1  0.78046950  0.39075750  0.01231700  1
  Br  Br54  1  0.74531800  0.50000000  0.70917600  1
  Br  Br55  1  0.25468200  0.50000000  0.29082400  1
