# generated using pymatgen
data_Cs2HgI4
_symmetry_space_group_name_H-M   'P 1'
_cell_length_a   8.12100500
_cell_length_b   8.65715700
_cell_length_c   11.30729031
_cell_angle_alpha   90.00000000
_cell_angle_beta   110.38795361
_cell_angle_gamma   90.00000000
_symmetry_Int_Tables_number   1
_chemical_formula_structural   Cs2HgI4
_chemical_formula_sum   'Cs4 Hg2 I8'
_cell_volume   745.15708133
_cell_formula_units_Z   2
loop_
 _symmetry_equiv_pos_site_id
 _symmetry_equiv_pos_as_xyz
  1  'x, y, z'
loop_
 _atom_site_type_symbol
 _atom_site_label
 _atom_site_symmetry_multiplicity
 _atom_site_fract_x
 _atom_site_fract_y
 _atom_site_fract_z
 _atom_site_occupancy
  Cs  Cs0  1  0.30672300  0.74445400  0.09266400  1
  Cs  Cs1  1  0.80550500  0.23855400  0.46631200  1
  Cs  Cs2  1  0.69327700  0.24445400  0.90733600  1
  Cs  Cs3  1  0.19449500  0.73855400  0.53368800  1
  Hg  Hg4  1  0.81955900  0.73972600  0.72671800  1
  Hg  Hg5  1  0.18044100  0.23972600  0.27328200  1
  I  I6  1  0.96057500  0.50566600  0.21017500  1
  I  I7  1  0.57489000  0.74375000  0.85400400  1
  I  I8  1  0.35680900  0.24861400  0.54419900  1
  I  I9  1  0.95764500  0.97723500  0.21660600  1
  I  I10  1  0.42511000  0.24375000  0.14599600  1
  I  I11  1  0.03942500  0.00566600  0.78982500  1
  I  I12  1  0.64319100  0.74861400  0.45580100  1
  I  I13  1  0.04235500  0.47723500  0.78339400  1
