# generated using pymatgen
data_LiSi2BO6
_symmetry_space_group_name_H-M   'P 1'
_cell_length_a   5.08036900
_cell_length_b   13.25509100
_cell_length_c   13.47956450
_cell_angle_alpha   90.00000000
_cell_angle_beta   90.11362196
_cell_angle_gamma   90.00000000
_symmetry_Int_Tables_number   1
_chemical_formula_structural   LiSi2BO6
_chemical_formula_sum   'Li8 Si16 B8 O48'
_cell_volume   907.72224452
_cell_formula_units_Z   8
loop_
 _symmetry_equiv_pos_site_id
 _symmetry_equiv_pos_as_xyz
  1  'x, y, z'
loop_
 _atom_site_type_symbol
 _atom_site_label
 _atom_site_symmetry_multiplicity
 _atom_site_fract_x
 _atom_site_fract_y
 _atom_site_fract_z
 _atom_site_occupancy
  Li  Li0  1  0.39706800  0.67034500  0.46204500  1
  Li  Li1  1  0.60293200  0.17034500  0.53795500  1
  Li  Li2  1  0.35069200  0.94437200  0.29005100  1
  Li  Li3  1  0.15944900  0.43899700  0.22712700  1
  Li  Li4  1  0.08981900  0.15771900  0.02752900  1
  Li  Li5  1  0.91018100  0.65771900  0.97247100  1
  Li  Li6  1  0.84055100  0.93899700  0.77287300  1
  Li  Li7  1  0.64930800  0.44437200  0.70994900  1
  Si  Si8  1  0.82633300  0.37261400  0.02365300  1
  Si  Si9  1  0.93834700  0.14267800  0.33284500  1
  Si  Si10  1  0.57231300  0.73061000  0.77230200  1
  Si  Si11  1  0.75884000  0.87740400  0.48107800  1
  Si  Si12  1  0.99897800  0.23238900  0.73069600  1
  Si  Si13  1  0.42768700  0.23061000  0.22769800  1
  Si  Si14  1  0.26625300  0.96563300  0.58209400  1
  Si  Si15  1  0.49518200  0.64212300  0.16772700  1
  Si  Si16  1  0.68269900  0.96191200  0.08272600  1
  Si  Si17  1  0.73374700  0.46563300  0.41790600  1
  Si  Si18  1  0.17366700  0.87261400  0.97634700  1
  Si  Si19  1  0.31730100  0.46191200  0.91727400  1
  Si  Si20  1  0.24116000  0.37740400  0.51892200  1
  Si  Si21  1  0.00102200  0.73238900  0.26930400  1
  Si  Si22  1  0.50481800  0.14212300  0.83227300  1
  Si  Si23  1  0.06165300  0.64267800  0.66715500  1
  B  B24  1  0.10235800  0.16852200  0.53704100  1
  B  B25  1  0.66063000  0.43673400  0.21214200  1
  B  B26  1  0.58898900  0.16785100  0.03801200  1
  B  B27  1  0.89764200  0.66852200  0.46295900  1
  B  B28  1  0.33937000  0.93673400  0.78785800  1
  B  B29  1  0.85070700  0.93964100  0.28620200  1
  B  B30  1  0.14929300  0.43964100  0.71379800  1
  B  B31  1  0.41101100  0.66785100  0.96198800  1
  O  O32  1  0.10625200  0.38435600  0.96631900  1
  O  O33  1  0.85376800  0.72237700  0.71491200  1
  O  O34  1  0.64487500  0.17096200  0.29368600  1
  O  O35  1  0.28716200  0.08381500  0.55007100  1
  O  O36  1  0.23931600  0.57717200  0.94998100  1
  O  O37  1  0.71283800  0.58381500  0.44992900  1
  O  O38  1  0.29926700  0.20384400  0.76170200  1
  O  O39  1  0.28157800  0.25546700  0.52374100  1
  O  O40  1  0.07653100  0.68129200  0.37657500  1
  O  O41  1  0.14623200  0.22237700  0.28508800  1
  O  O42  1  0.42281900  0.15982200  0.94788000  1
  O  O43  1  0.39235600  0.93170300  0.04198500  1
  O  O44  1  0.47746200  0.35084400  0.21723400  1
  O  O45  1  0.06210600  0.90481200  0.50999500  1
  O  O46  1  0.32351200  0.42816900  0.62552700  1
  O  O47  1  0.77997300  0.25165500  0.03459400  1
  O  O48  1  0.20075000  0.68776800  0.18595600  1
  O  O49  1  0.47925800  0.52348200  0.19895900  1
  O  O50  1  0.52074200  0.02348200  0.80104100  1
  O  O51  1  0.33507800  0.44829800  0.79707200  1
  O  O52  1  0.52253800  0.85084400  0.78276600  1
  O  O53  1  0.92346900  0.18129200  0.62342500  1
  O  O54  1  0.43717000  0.42082600  0.43339300  1
  O  O55  1  0.79925000  0.18776800  0.81404400  1
  O  O56  1  0.67648800  0.92816900  0.37447300  1
  O  O57  1  0.76068400  0.07717200  0.05001900  1
  O  O58  1  0.02388200  0.02931300  0.29655200  1
  O  O59  1  0.14262600  0.92655800  0.86745200  1
  O  O60  1  0.60764400  0.43170300  0.95801500  1
  O  O61  1  0.22002700  0.75165500  0.96540600  1
  O  O62  1  0.71842200  0.75546700  0.47625900  1
  O  O63  1  0.08007900  0.65364800  0.54673700  1
  O  O64  1  0.56283000  0.92082600  0.56660700  1
  O  O65  1  0.93789400  0.40481200  0.49000500  1
  O  O66  1  0.89374800  0.88435600  0.03368100  1
  O  O67  1  0.35512500  0.67096200  0.70631400  1
  O  O68  1  0.03815600  0.85483100  0.27534500  1
  O  O69  1  0.85737400  0.42655800  0.13254800  1
  O  O70  1  0.82383700  0.44847700  0.30304400  1
  O  O71  1  0.66492200  0.94829800  0.20292800  1
  O  O72  1  0.91992100  0.15364800  0.45326300  1
  O  O73  1  0.39439600  0.17756600  0.11877900  1
  O  O74  1  0.57718100  0.65982200  0.05212000  1
  O  O75  1  0.70073300  0.70384400  0.23829800  1
  O  O76  1  0.96184400  0.35483100  0.72465500  1
  O  O77  1  0.60560400  0.67756600  0.88122100  1
  O  O78  1  0.97611800  0.52931300  0.70344800  1
  O  O79  1  0.17616300  0.94847700  0.69695600  1
