# generated using pymatgen
data_SiO2
_symmetry_space_group_name_H-M   'P 1'
_cell_length_a   10.49592200
_cell_length_b   15.25590400
_cell_length_c   9.00605082
_cell_angle_alpha   90.00000000
_cell_angle_beta   105.53796917
_cell_angle_gamma   90.00000000
_symmetry_Int_Tables_number   1
_chemical_formula_structural   SiO2
_chemical_formula_sum   'Si24 O48'
_cell_volume   1389.38797090
_cell_formula_units_Z   24
loop_
 _symmetry_equiv_pos_site_id
 _symmetry_equiv_pos_as_xyz
  1  'x, y, z'
loop_
 _atom_site_type_symbol
 _atom_site_label
 _atom_site_symmetry_multiplicity
 _atom_site_fract_x
 _atom_site_fract_y
 _atom_site_fract_z
 _atom_site_occupancy
  Si  Si0  1  0.89920600  0.89948600  0.69231500  1
  Si  Si1  1  0.89920600  0.10051400  0.69231500  1
  Si  Si2  1  0.19380600  0.89725000  0.66965900  1
  Si  Si3  1  0.35329900  0.24258200  0.89579600  1
  Si  Si4  1  0.80059800  0.10059800  0.32914400  1
  Si  Si5  1  0.64957700  0.75432200  0.10692100  1
  Si  Si6  1  0.59728950  0.60269450  0.31471100  1
  Si  Si7  1  0.35329900  0.75741800  0.89579600  1
  Si  Si8  1  0.59728950  0.39730550  0.31471100  1
  Si  Si9  1  0.19380600  0.10275000  0.66965900  1
  Si  Si10  1  0.64957700  0.24567800  0.10692100  1
  Si  Si11  1  0.80059800  0.89940200  0.32914400  1
  Si  Si12  1  0.39920600  0.39948600  0.69231500  1
  Si  Si13  1  0.39920600  0.60051400  0.69231500  1
  Si  Si14  1  0.69380600  0.39725000  0.66965900  1
  Si  Si15  1  0.85329900  0.74258200  0.89579600  1
  Si  Si16  1  0.30059800  0.60059800  0.32914400  1
  Si  Si17  1  0.14957700  0.25432200  0.10692100  1
  Si  Si18  1  0.09728950  0.10269450  0.31471100  1
  Si  Si19  1  0.85329900  0.25741800  0.89579600  1
  Si  Si20  1  0.09728950  0.89730550  0.31471100  1
  Si  Si21  1  0.69380600  0.60275000  0.66965900  1
  Si  Si22  1  0.14957700  0.74567800  0.10692100  1
  Si  Si23  1  0.30059800  0.39940200  0.32914400  1
  O  O24  1  0.65140500  0.66085200  0.19453700  1
  O  O25  1  0.75430400  0.00000000  0.28197900  1
  O  O26  1  0.25512200  0.75156100  0.00601000  1
  O  O27  1  0.23454900  0.00000000  0.69531200  1
  O  O28  1  0.55608900  0.37926800  0.71602400  1
  O  O29  1  0.50340050  0.22512450  0.99706800  1
  O  O30  1  0.25512200  0.24843900  0.00601000  1
  O  O31  1  0.87958600  0.00000000  0.74393100  1
  O  O32  1  0.43966200  0.37930900  0.28749500  1
  O  O33  1  0.65140500  0.33914800  0.19453700  1
  O  O34  1  0.81813350  0.88503550  0.51271800  1
  O  O35  1  0.55608900  0.62073200  0.71602400  1
  O  O36  1  0.43966200  0.62069100  0.28749500  1
  O  O37  1  0.34232250  0.66578650  0.80059300  1
  O  O38  1  0.17630900  0.87019400  0.49022300  1
  O  O39  1  0.17630900  0.12980600  0.49022300  1
  O  O40  1  0.68870600  0.16697300  0.23281300  1
  O  O41  1  0.50340050  0.77487550  0.99706800  1
  O  O42  1  0.12320400  0.00000000  0.28427200  1
  O  O43  1  0.34232250  0.33421350  0.80059300  1
  O  O44  1  0.68870600  0.83302700  0.23281300  1
  O  O45  1  0.31141950  0.83891850  0.77656000  1
  O  O46  1  0.31141950  0.16108150  0.77656000  1
  O  O47  1  0.81813350  0.11496450  0.51271800  1
  O  O48  1  0.15140500  0.16085200  0.19453700  1
  O  O49  1  0.25430400  0.50000000  0.28197900  1
  O  O50  1  0.75512200  0.25156100  0.00601000  1
  O  O51  1  0.73454900  0.50000000  0.69531200  1
  O  O52  1  0.05608900  0.87926800  0.71602400  1
  O  O53  1  0.00340050  0.72512450  0.99706800  1
  O  O54  1  0.75512200  0.74843900  0.00601000  1
  O  O55  1  0.37958600  0.50000000  0.74393100  1
  O  O56  1  0.93966200  0.87930900  0.28749500  1
  O  O57  1  0.15140500  0.83914800  0.19453700  1
  O  O58  1  0.31813350  0.38503550  0.51271800  1
  O  O59  1  0.05608900  0.12073200  0.71602400  1
  O  O60  1  0.93966200  0.12069100  0.28749500  1
  O  O61  1  0.84232250  0.16578650  0.80059300  1
  O  O62  1  0.67630900  0.37019400  0.49022300  1
  O  O63  1  0.67630900  0.62980600  0.49022300  1
  O  O64  1  0.18870600  0.66697300  0.23281300  1
  O  O65  1  0.00340050  0.27487550  0.99706800  1
  O  O66  1  0.62320400  0.50000000  0.28427200  1
  O  O67  1  0.84232250  0.83421350  0.80059300  1
  O  O68  1  0.18870600  0.33302700  0.23281300  1
  O  O69  1  0.81141950  0.33891850  0.77656000  1
  O  O70  1  0.81141950  0.66108150  0.77656000  1
  O  O71  1  0.31813350  0.61496450  0.51271800  1
