# generated using pymatgen
data_TiZn(BiO3)2
_symmetry_space_group_name_H-M   'P 1'
_cell_length_a   5.30378800
_cell_length_b   5.30378800
_cell_length_c   9.87688600
_cell_angle_alpha   90.00000000
_cell_angle_beta   90.00000000
_cell_angle_gamma   90.00000000
_symmetry_Int_Tables_number   1
_chemical_formula_structural   TiZn(BiO3)2
_chemical_formula_sum   'Ti2 Zn2 Bi4 O12'
_cell_volume   277.83845409
_cell_formula_units_Z   2
loop_
 _symmetry_equiv_pos_site_id
 _symmetry_equiv_pos_as_xyz
  1  'x, y, z'
loop_
 _atom_site_type_symbol
 _atom_site_label
 _atom_site_symmetry_multiplicity
 _atom_site_fract_x
 _atom_site_fract_y
 _atom_site_fract_z
 _atom_site_occupancy
  Ti  Ti0  1  0.50000000  0.50000000  0.30056900  1
  Ti  Ti1  1  0.00000000  0.00000000  0.80056900  1
  Zn  Zn2  1  0.00000000  0.00000000  0.26832200  1
  Zn  Zn3  1  0.50000000  0.50000000  0.76832200  1
  Bi  Bi4  1  0.00000000  0.50000000  0.49971800  1
  Bi  Bi5  1  0.50000000  0.00000000  0.49971800  1
  Bi  Bi6  1  0.50000000  0.00000000  0.99971800  1
  Bi  Bi7  1  0.00000000  0.50000000  0.99971800  1
  O  O8  1  0.00000000  0.00000000  0.07558900  1
  O  O9  1  0.50000000  0.50000000  0.11946100  1
  O  O10  1  0.74909450  0.25090550  0.36190350  1
  O  O11  1  0.25090550  0.25090550  0.36190350  1
  O  O12  1  0.25090550  0.74909450  0.36190350  1
  O  O13  1  0.74909450  0.74909450  0.36190350  1
  O  O14  1  0.50000000  0.50000000  0.57558900  1
  O  O15  1  0.00000000  0.00000000  0.61946100  1
  O  O16  1  0.24909450  0.75090550  0.86190350  1
  O  O17  1  0.75090550  0.75090550  0.86190350  1
  O  O18  1  0.75090550  0.24909450  0.86190350  1
  O  O19  1  0.24909450  0.24909450  0.86190350  1
