# generated using pymatgen
data_Ge(PbS2)2
_symmetry_space_group_name_H-M   'P 1'
_cell_length_a   14.33642200
_cell_length_b   14.33642200
_cell_length_c   14.66911600
_cell_angle_alpha   90.00000000
_cell_angle_beta   90.00000000
_cell_angle_gamma   90.00000000
_symmetry_Int_Tables_number   1
_chemical_formula_structural   Ge(PbS2)2
_chemical_formula_sum   'Ge16 Pb32 S64'
_cell_volume   3014.98735666
_cell_formula_units_Z   16
loop_
 _symmetry_equiv_pos_site_id
 _symmetry_equiv_pos_as_xyz
  1  'x, y, z'
loop_
 _atom_site_type_symbol
 _atom_site_label
 _atom_site_symmetry_multiplicity
 _atom_site_fract_x
 _atom_site_fract_y
 _atom_site_fract_z
 _atom_site_occupancy
  Ge  Ge0  1  0.47596900  0.22397800  0.90519200  1
  Ge  Ge1  1  0.22397800  0.52403100  0.09480800  1
  Ge  Ge2  1  0.52403100  0.72397800  0.34480800  1
  Ge  Ge3  1  0.47596900  0.27602200  0.34480800  1
  Ge  Ge4  1  0.27602200  0.97596900  0.59480800  1
  Ge  Ge5  1  0.02403100  0.27602200  0.40519200  1
  Ge  Ge6  1  0.77602200  0.02403100  0.15519200  1
  Ge  Ge7  1  0.22397800  0.97596900  0.15519200  1
  Ge  Ge8  1  0.97596900  0.72397800  0.40519200  1
  Ge  Ge9  1  0.72397800  0.02403100  0.59480800  1
  Ge  Ge10  1  0.02403100  0.22397800  0.84480800  1
  Ge  Ge11  1  0.97596900  0.77602200  0.84480800  1
  Ge  Ge12  1  0.77602200  0.47596900  0.09480800  1
  Ge  Ge13  1  0.52403100  0.77602200  0.90519200  1
  Ge  Ge14  1  0.27602200  0.52403100  0.65519200  1
  Ge  Ge15  1  0.72397800  0.47596900  0.65519200  1
  Pb  Pb16  1  0.50000000  0.00000000  0.10606300  1
  Pb  Pb17  1  0.02030900  0.75000000  0.12500000  1
  Pb  Pb18  1  0.83517900  0.25000000  0.62500000  1
  Pb  Pb19  1  0.75000000  0.52030900  0.37500000  1
  Pb  Pb20  1  0.22969500  0.25000000  0.62500000  1
  Pb  Pb21  1  0.25000000  0.47969100  0.37500000  1
  Pb  Pb22  1  0.50000000  0.00000000  0.39393700  1
  Pb  Pb23  1  0.97969100  0.25000000  0.12500000  1
  Pb  Pb24  1  0.25000000  0.72969500  0.87500000  1
  Pb  Pb25  1  0.25000000  0.16482100  0.37500000  1
  Pb  Pb26  1  0.00000000  0.00000000  0.64393700  1
  Pb  Pb27  1  0.66482100  0.25000000  0.12500000  1
  Pb  Pb28  1  0.25000000  0.77030500  0.37500000  1
  Pb  Pb29  1  0.00000000  0.00000000  0.35606300  1
  Pb  Pb30  1  0.27030500  0.25000000  0.12500000  1
  Pb  Pb31  1  0.25000000  0.33517900  0.87500000  1
  Pb  Pb32  1  0.00000000  0.50000000  0.60606300  1
  Pb  Pb33  1  0.52030900  0.25000000  0.62500000  1
  Pb  Pb34  1  0.33517900  0.75000000  0.12500000  1
  Pb  Pb35  1  0.25000000  0.02030900  0.87500000  1
  Pb  Pb36  1  0.72969500  0.75000000  0.12500000  1
  Pb  Pb37  1  0.75000000  0.97969100  0.87500000  1
  Pb  Pb38  1  0.00000000  0.50000000  0.89393700  1
  Pb  Pb39  1  0.47969100  0.75000000  0.62500000  1
  Pb  Pb40  1  0.75000000  0.22969500  0.37500000  1
  Pb  Pb41  1  0.75000000  0.66482100  0.87500000  1
  Pb  Pb42  1  0.50000000  0.50000000  0.14393700  1
  Pb  Pb43  1  0.16482100  0.75000000  0.62500000  1
  Pb  Pb44  1  0.75000000  0.27030500  0.87500000  1
  Pb  Pb45  1  0.50000000  0.50000000  0.85606300  1
  Pb  Pb46  1  0.77030500  0.75000000  0.62500000  1
  Pb  Pb47  1  0.75000000  0.83517900  0.37500000  1
  S  S48  1  0.56413150  0.31274950  0.81081550  1
  S  S49  1  0.57478500  0.12619600  0.97330400  1
  S  S50  1  0.66698100  0.36629200  0.56211600  1
  S  S51  1  0.16698100  0.63370800  0.18788400  1
  S  S52  1  0.86629200  0.66698100  0.31211600  1
  S  S53  1  0.92521500  0.37380400  0.47330400  1
  S  S54  1  0.13370800  0.16698100  0.93788400  1
  S  S55  1  0.18725050  0.43586850  0.56081550  1
  S  S56  1  0.36629200  0.33301900  0.43788400  1
  S  S57  1  0.59035000  0.82339700  0.24492800  1
  S  S58  1  0.12619600  0.42521500  0.02669600  1
  S  S59  1  0.37380400  0.07478500  0.52669600  1
  S  S60  1  0.18725050  0.06413150  0.68918450  1
  S  S61  1  0.32339700  0.59035000  0.99492800  1
  S  S62  1  0.83301900  0.36629200  0.18788400  1
  S  S63  1  0.92521500  0.12619600  0.77669600  1
  S  S64  1  0.09035000  0.17660300  0.50507200  1
  S  S65  1  0.13370800  0.33301900  0.31211600  1
  S  S66  1  0.57478500  0.37380400  0.27669600  1
  S  S67  1  0.06413150  0.68725050  0.93918450  1
  S  S68  1  0.43586850  0.81274950  0.43918450  1
  S  S69  1  0.17660300  0.90965000  0.49492800  1
  S  S70  1  0.67660300  0.09035000  0.25507200  1
  S  S71  1  0.83301900  0.13370800  0.06211600  1
  S  S72  1  0.32339700  0.90965000  0.25507200  1
  S  S73  1  0.31274950  0.43586850  0.18918450  1
  S  S74  1  0.93586850  0.18725050  0.31081550  1
  S  S75  1  0.12619600  0.07478500  0.22330400  1
  S  S76  1  0.40965000  0.17660300  0.24492800  1
  S  S77  1  0.40965000  0.32339700  0.00507200  1
  S  S78  1  0.37380400  0.42521500  0.72330400  1
  S  S79  1  0.31274950  0.06413150  0.06081550  1
  S  S80  1  0.06413150  0.81274950  0.31081550  1
  S  S81  1  0.07478500  0.62619600  0.47330400  1
  S  S82  1  0.16698100  0.86629200  0.06211600  1
  S  S83  1  0.66698100  0.13370800  0.68788400  1
  S  S84  1  0.36629200  0.16698100  0.81211600  1
  S  S85  1  0.42521500  0.87380400  0.97330400  1
  S  S86  1  0.63370800  0.66698100  0.43788400  1
  S  S87  1  0.68725050  0.93586850  0.06081550  1
  S  S88  1  0.86629200  0.83301900  0.93788400  1
  S  S89  1  0.09035000  0.32339700  0.74492800  1
  S  S90  1  0.62619600  0.92521500  0.52669600  1
  S  S91  1  0.87380400  0.57478500  0.02669600  1
  S  S92  1  0.68725050  0.56413150  0.18918450  1
  S  S93  1  0.82339700  0.09035000  0.49492800  1
  S  S94  1  0.33301900  0.86629200  0.68788400  1
  S  S95  1  0.42521500  0.62619600  0.27669600  1
  S  S96  1  0.59035000  0.67660300  0.00507200  1
  S  S97  1  0.63370800  0.83301900  0.81211600  1
  S  S98  1  0.07478500  0.87380400  0.77669600  1
  S  S99  1  0.56413150  0.18725050  0.43918450  1
  S  S100  1  0.93586850  0.31274950  0.93918450  1
  S  S101  1  0.67660300  0.40965000  0.99492800  1
  S  S102  1  0.17660300  0.59035000  0.75507200  1
  S  S103  1  0.33301900  0.63370800  0.56211600  1
  S  S104  1  0.82339700  0.40965000  0.75507200  1
  S  S105  1  0.81274950  0.93586850  0.68918450  1
  S  S106  1  0.43586850  0.68725050  0.81081550  1
  S  S107  1  0.62619600  0.57478500  0.72330400  1
  S  S108  1  0.90965000  0.67660300  0.74492800  1
  S  S109  1  0.90965000  0.82339700  0.50507200  1
  S  S110  1  0.87380400  0.92521500  0.22330400  1
  S  S111  1  0.81274950  0.56413150  0.56081550  1
