# generated using pymatgen
data_Na5Y4Si4O16F
_symmetry_space_group_name_H-M   'P 1'
_cell_length_a   11.69380200
_cell_length_b   11.69380200
_cell_length_c   5.45669000
_cell_angle_alpha   90.00000000
_cell_angle_beta   90.00000000
_cell_angle_gamma   90.00000000
_symmetry_Int_Tables_number   1
_chemical_formula_structural   Na5Y4Si4O16F
_chemical_formula_sum   'Na10 Y8 Si8 O32 F2'
_cell_volume   746.17510251
_cell_formula_units_Z   2
loop_
 _symmetry_equiv_pos_site_id
 _symmetry_equiv_pos_as_xyz
  1  'x, y, z'
loop_
 _atom_site_type_symbol
 _atom_site_label
 _atom_site_symmetry_multiplicity
 _atom_site_fract_x
 _atom_site_fract_y
 _atom_site_fract_z
 _atom_site_occupancy
  Na  Na0  1  0.58944000  0.10489700  0.50953400  1
  Na  Na1  1  0.00000000  0.00000000  0.50000000  1
  Na  Na2  1  0.60489700  0.91056000  0.99046600  1
  Na  Na3  1  0.39510300  0.08944000  0.99046600  1
  Na  Na4  1  0.41056000  0.89510300  0.50953400  1
  Na  Na5  1  0.08944000  0.60489700  0.00953400  1
  Na  Na6  1  0.50000000  0.50000000  0.00000000  1
  Na  Na7  1  0.10489700  0.41056000  0.49046600  1
  Na  Na8  1  0.89510300  0.58944000  0.49046600  1
  Na  Na9  1  0.91056000  0.39510300  0.00953400  1
  Y  Y10  1  0.61585950  0.68249650  0.52370050  1
  Y  Y11  1  0.81750350  0.11585950  0.97629950  1
  Y  Y12  1  0.18249650  0.88414050  0.97629950  1
  Y  Y13  1  0.38414050  0.31750350  0.52370050  1
  Y  Y14  1  0.11585950  0.18249650  0.02370050  1
  Y  Y15  1  0.31750350  0.61585950  0.47629950  1
  Y  Y16  1  0.68249650  0.38414050  0.47629950  1
  Y  Y17  1  0.88414050  0.81750350  0.02370050  1
  Si  Si18  1  0.39650950  0.74718250  0.01085150  1
  Si  Si19  1  0.75281750  0.89650950  0.48914850  1
  Si  Si20  1  0.24718250  0.10349050  0.48914850  1
  Si  Si21  1  0.60349050  0.25281750  0.01085150  1
  Si  Si22  1  0.89650950  0.24718250  0.51085150  1
  Si  Si23  1  0.25281750  0.39650950  0.98914850  1
  Si  Si24  1  0.74718250  0.60349050  0.98914850  1
  Si  Si25  1  0.10349050  0.75281750  0.51085150  1
  O  O26  1  0.61274950  0.89064050  0.51650750  1
  O  O27  1  0.20649000  0.03350400  0.24241000  1
  O  O28  1  0.18688350  0.04861550  0.73399050  1
  O  O29  1  0.29623000  0.26435100  0.93373900  1
  O  O30  1  0.46649600  0.70649000  0.25759000  1
  O  O31  1  0.60935950  0.11274950  0.98349250  1
  O  O32  1  0.54861550  0.31311650  0.76600950  1
  O  O33  1  0.45138450  0.68688350  0.76600950  1
  O  O34  1  0.39064050  0.88725050  0.98349250  1
  O  O35  1  0.38725050  0.10935950  0.51650750  1
  O  O36  1  0.79351000  0.96649600  0.24241000  1
  O  O37  1  0.81311650  0.95138450  0.73399050  1
  O  O38  1  0.53350400  0.29351000  0.25759000  1
  O  O39  1  0.70377000  0.73564900  0.93373900  1
  O  O40  1  0.23564900  0.79623000  0.56626100  1
  O  O41  1  0.76435100  0.20377000  0.56626100  1
  O  O42  1  0.11274950  0.39064050  0.01650750  1
  O  O43  1  0.70649000  0.53350400  0.74241000  1
  O  O44  1  0.68688350  0.54861550  0.23399050  1
  O  O45  1  0.79623000  0.76435100  0.43373900  1
  O  O46  1  0.96649600  0.20649000  0.75759000  1
  O  O47  1  0.10935950  0.61274950  0.48349250  1
  O  O48  1  0.04861550  0.81311650  0.26600950  1
  O  O49  1  0.95138450  0.18688350  0.26600950  1
  O  O50  1  0.89064050  0.38725050  0.48349250  1
  O  O51  1  0.88725050  0.60935950  0.01650750  1
  O  O52  1  0.29351000  0.46649600  0.74241000  1
  O  O53  1  0.31311650  0.45138450  0.23399050  1
  O  O54  1  0.03350400  0.79351000  0.75759000  1
  O  O55  1  0.20377000  0.23564900  0.43373900  1
  O  O56  1  0.73564900  0.29623000  0.06626100  1
  O  O57  1  0.26435100  0.70377000  0.06626100  1
  F  F58  1  0.00000000  0.00000000  0.00000000  1
  F  F59  1  0.50000000  0.50000000  0.50000000  1
