# generated using pymatgen
data_SiO2
_symmetry_space_group_name_H-M   'P 1'
_cell_length_a   8.32001369
_cell_length_b   8.32001369
_cell_length_c   10.41791076
_cell_angle_alpha   90.00000000
_cell_angle_beta   90.00000000
_cell_angle_gamma   120.00000000
_symmetry_Int_Tables_number   1
_chemical_formula_structural   SiO2
_chemical_formula_sum   'Si18 O36'
_cell_volume   624.53868723
_cell_formula_units_Z   18
loop_
 _symmetry_equiv_pos_site_id
 _symmetry_equiv_pos_as_xyz
  1  'x, y, z'
loop_
 _atom_site_type_symbol
 _atom_site_label
 _atom_site_symmetry_multiplicity
 _atom_site_fract_x
 _atom_site_fract_y
 _atom_site_fract_z
 _atom_site_occupancy
  Si  Si0  1  0.00000000  0.37509600  0.25000000  1
  Si  Si1  1  0.04176267  0.70842933  0.08333333  1
  Si  Si2  1  0.29157067  0.33333333  0.08333333  1
  Si  Si3  1  0.66666667  0.95823733  0.08333333  1
  Si  Si4  1  0.37509600  0.00000000  0.25000000  1
  Si  Si5  1  0.62490400  0.62490400  0.25000000  1
  Si  Si6  1  0.66666667  0.70842933  0.58333333  1
  Si  Si7  1  0.70842933  0.04176267  0.41666667  1
  Si  Si8  1  0.95823733  0.66666667  0.41666667  1
  Si  Si9  1  0.33333333  0.29157067  0.41666667  1
  Si  Si10  1  0.04176267  0.33333333  0.58333333  1
  Si  Si11  1  0.29157067  0.95823733  0.58333333  1
  Si  Si12  1  0.33333333  0.04176267  0.91666667  1
  Si  Si13  1  0.37509600  0.37509600  0.75000000  1
  Si  Si14  1  0.62490400  0.00000000  0.75000000  1
  Si  Si15  1  0.00000000  0.62490400  0.75000000  1
  Si  Si16  1  0.70842933  0.66666667  0.91666667  1
  Si  Si17  1  0.95823733  0.29157067  0.91666667  1
  O  O18  1  0.16380133  0.32950667  0.96004767  1
  O  O19  1  0.49713467  0.50096133  0.12671433  1
  O  O20  1  0.16762800  0.33716000  0.20661900  1
  O  O21  1  0.49903867  0.99617333  0.12671433  1
  O  O22  1  0.16570533  0.83619867  0.96004767  1
  O  O23  1  0.66284000  0.83046800  0.20661900  1
  O  O24  1  0.50286533  0.00382667  0.37328567  1
  O  O25  1  0.00382667  0.50286533  0.12671433  1
  O  O26  1  0.99617333  0.49903867  0.37328567  1
  O  O27  1  0.16953200  0.83237200  0.20661900  1
  O  O28  1  0.67049333  0.83429467  0.96004767  1
  O  O29  1  0.50096133  0.49713467  0.37328567  1
  O  O30  1  0.83046800  0.66284000  0.29338100  1
  O  O31  1  0.16380133  0.83429467  0.46004767  1
  O  O32  1  0.83429467  0.67049333  0.53995233  1
  O  O33  1  0.16570533  0.32950667  0.46004767  1
  O  O34  1  0.83237200  0.16953200  0.29338100  1
  O  O35  1  0.32950667  0.16380133  0.53995233  1
  O  O36  1  0.16953200  0.33716000  0.70661900  1
  O  O37  1  0.67049333  0.83619867  0.46004767  1
  O  O38  1  0.66284000  0.83237200  0.70661900  1
  O  O39  1  0.83619867  0.16570533  0.53995233  1
  O  O40  1  0.33716000  0.16762800  0.29338100  1
  O  O41  1  0.16762800  0.83046800  0.70661900  1
  O  O42  1  0.49713467  0.99617333  0.62671433  1
  O  O43  1  0.83046800  0.16762800  0.79338100  1
  O  O44  1  0.50096133  0.00382667  0.87328567  1
  O  O45  1  0.83237200  0.66284000  0.79338100  1
  O  O46  1  0.49903867  0.50286533  0.62671433  1
  O  O47  1  0.99617333  0.49713467  0.87328567  1
  O  O48  1  0.83619867  0.67049333  0.03995233  1
  O  O49  1  0.33716000  0.16953200  0.79338100  1
  O  O50  1  0.32950667  0.16570533  0.03995233  1
  O  O51  1  0.50286533  0.49903867  0.87328567  1
  O  O52  1  0.00382667  0.50096133  0.62671433  1
  O  O53  1  0.83429467  0.16380133  0.03995233  1
