# generated using pymatgen
data_KNa(BH4)2
_symmetry_space_group_name_H-M   'P 1'
_cell_length_a   4.53117167
_cell_length_b   4.53117167
_cell_length_c   22.22494388
_cell_angle_alpha   90.00000000
_cell_angle_beta   90.00000000
_cell_angle_gamma   120.00000000
_symmetry_Int_Tables_number   1
_chemical_formula_structural   KNa(BH4)2
_chemical_formula_sum   'K3 Na3 B6 H24'
_cell_volume   395.17761608
_cell_formula_units_Z   3
loop_
 _symmetry_equiv_pos_site_id
 _symmetry_equiv_pos_as_xyz
  1  'x, y, z'
loop_
 _atom_site_type_symbol
 _atom_site_label
 _atom_site_symmetry_multiplicity
 _atom_site_fract_x
 _atom_site_fract_y
 _atom_site_fract_z
 _atom_site_occupancy
  K  K0  1  0.33333333  0.66666667  0.16666667  1
  K  K1  1  1.00000000  0.00000000  0.50000000  1
  K  K2  1  0.66666667  0.33333333  0.83333333  1
  Na  Na3  1  0.00000000  0.00000000  0.00000000  1
  Na  Na4  1  0.66666667  0.33333333  0.33333333  1
  Na  Na5  1  0.33333333  0.66666667  0.66666667  1
  B  B6  1  0.00000000  0.00000000  0.25578800  1
  B  B7  1  0.66666667  0.33333333  0.07754533  1
  B  B8  1  0.66666667  0.33333333  0.58912133  1
  B  B9  1  0.33333333  0.66666667  0.41087867  1
  B  B10  1  0.33333333  0.66666667  0.92245467  1
  B  B11  1  0.00000000  0.00000000  0.74421200  1
  H  H12  1  0.66666667  0.33333333  0.13305033  1
  H  H13  1  0.95539633  0.42437267  0.05938367  1
  H  H14  1  0.71127033  0.90896067  0.27394967  1
  H  H15  1  0.19769033  0.28872967  0.27394967  1
  H  H16  1  0.46897633  0.04460367  0.05938367  1
  H  H17  1  0.00000000  0.00000000  0.20028300  1
  H  H18  1  0.57562733  0.53102367  0.05938367  1
  H  H19  1  0.09103933  0.80230967  0.27394967  1
  H  H20  1  0.33333333  0.66666667  0.46638367  1
  H  H21  1  0.62206300  0.75770600  0.39271700  1
  H  H22  1  0.37793700  0.24229400  0.60728300  1
  H  H23  1  0.86435700  0.62206300  0.60728300  1
  H  H24  1  0.13564300  0.37793700  0.39271700  1
  H  H25  1  0.66666667  0.33333333  0.53361633  1
  H  H26  1  0.24229400  0.86435700  0.39271700  1
  H  H27  1  0.75770600  0.13564300  0.60728300  1
  H  H28  1  0.00000000  0.00000000  0.79971700  1
  H  H29  1  0.28872967  0.09103933  0.72605033  1
  H  H30  1  0.04460367  0.57562733  0.94061633  1
  H  H31  1  0.53102367  0.95539633  0.94061633  1
  H  H32  1  0.80230967  0.71127033  0.72605033  1
  H  H33  1  0.33333333  0.66666667  0.86694967  1
  H  H34  1  0.90896067  0.19769033  0.72605033  1
  H  H35  1  0.42437267  0.46897633  0.94061633  1
