# generated using pymatgen
data_Bi20(PtBr12)3
_symmetry_space_group_name_H-M   'P 1'
_cell_length_a   16.88497200
_cell_length_b   15.87786200
_cell_length_c   18.74191172
_cell_angle_alpha   90.00000000
_cell_angle_beta   111.99115161
_cell_angle_gamma   90.00000000
_symmetry_Int_Tables_number   1
_chemical_formula_structural   Bi20(PtBr12)3
_chemical_formula_sum   'Bi40 Pt6 Br72'
_cell_volume   4659.06970585
_cell_formula_units_Z   2
loop_
 _symmetry_equiv_pos_site_id
 _symmetry_equiv_pos_as_xyz
  1  'x, y, z'
loop_
 _atom_site_type_symbol
 _atom_site_label
 _atom_site_symmetry_multiplicity
 _atom_site_fract_x
 _atom_site_fract_y
 _atom_site_fract_z
 _atom_site_occupancy
  Bi  Bi0  1  0.59803550  0.87362350  0.23512800  1
  Bi  Bi1  1  0.41598200  0.37494400  0.89654500  1
  Bi  Bi2  1  0.40196450  0.12637650  0.76487200  1
  Bi  Bi3  1  0.65807550  0.00000000  0.83100100  1
  Bi  Bi4  1  0.59803550  0.12637650  0.23512800  1
  Bi  Bi5  1  0.19183650  0.00000000  0.71630500  1
  Bi  Bi6  1  0.80816350  0.00000000  0.28369500  1
  Bi  Bi7  1  0.58401800  0.37494400  0.10345500  1
  Bi  Bi8  1  0.76468950  0.12208150  0.44393400  1
  Bi  Bi9  1  0.44614850  0.00000000  0.59754600  1
  Bi  Bi10  1  0.41598200  0.62505600  0.89654500  1
  Bi  Bi11  1  0.34192450  0.00000000  0.16899900  1
  Bi  Bi12  1  0.12376950  0.00000000  0.93664000  1
  Bi  Bi13  1  0.76468950  0.87791850  0.44393400  1
  Bi  Bi14  1  0.40196450  0.87362350  0.76487200  1
  Bi  Bi15  1  0.58401800  0.62505600  0.10345500  1
  Bi  Bi16  1  0.87623050  0.00000000  0.06336000  1
  Bi  Bi17  1  0.55385150  0.00000000  0.40245400  1
  Bi  Bi18  1  0.23531050  0.12208150  0.55606600  1
  Bi  Bi19  1  0.23531050  0.87791850  0.55606600  1
  Bi  Bi20  1  0.09803550  0.37362350  0.23512800  1
  Bi  Bi21  1  0.91598200  0.87494400  0.89654500  1
  Bi  Bi22  1  0.90196450  0.62637650  0.76487200  1
  Bi  Bi23  1  0.15807550  0.50000000  0.83100100  1
  Bi  Bi24  1  0.09803550  0.62637650  0.23512800  1
  Bi  Bi25  1  0.69183650  0.50000000  0.71630500  1
  Bi  Bi26  1  0.30816350  0.50000000  0.28369500  1
  Bi  Bi27  1  0.08401800  0.87494400  0.10345500  1
  Bi  Bi28  1  0.26468950  0.62208150  0.44393400  1
  Bi  Bi29  1  0.94614850  0.50000000  0.59754600  1
  Bi  Bi30  1  0.91598200  0.12505600  0.89654500  1
  Bi  Bi31  1  0.84192450  0.50000000  0.16899900  1
  Bi  Bi32  1  0.62376950  0.50000000  0.93664000  1
  Bi  Bi33  1  0.26468950  0.37791850  0.44393400  1
  Bi  Bi34  1  0.90196450  0.37362350  0.76487200  1
  Bi  Bi35  1  0.08401800  0.12505600  0.10345500  1
  Bi  Bi36  1  0.37623050  0.50000000  0.06336000  1
  Bi  Bi37  1  0.05385150  0.50000000  0.40245400  1
  Bi  Bi38  1  0.73531050  0.62208150  0.55606600  1
  Bi  Bi39  1  0.73531050  0.37791850  0.55606600  1
  Pt  Pt40  1  0.32337650  0.00000000  0.66184700  1
  Pt  Pt41  1  0.50000000  0.50000000  0.00000000  1
  Pt  Pt42  1  0.67662350  0.00000000  0.33815300  1
  Pt  Pt43  1  0.82337650  0.50000000  0.66184700  1
  Pt  Pt44  1  0.00000000  0.00000000  0.00000000  1
  Pt  Pt45  1  0.17662350  0.50000000  0.33815300  1
  Br  Br46  1  0.50000000  0.23965450  0.00000000  1
  Br  Br47  1  0.85438550  0.00000000  0.55964200  1
  Br  Br48  1  0.71685300  0.86870700  0.16205900  1
  Br  Br49  1  0.62568800  0.86957900  0.50843600  1
  Br  Br50  1  0.59907350  0.63161850  0.61389600  1
  Br  Br51  1  0.76220950  0.12820050  0.94694300  1
  Br  Br52  1  0.71685300  0.13129300  0.16205900  1
  Br  Br53  1  0.14561450  0.00000000  0.44035800  1
  Br  Br54  1  0.40092650  0.63161850  0.38610400  1
  Br  Br55  1  0.62568800  0.13042100  0.50843600  1
  Br  Br56  1  0.59907350  0.36838150  0.61389600  1
  Br  Br57  1  0.54140850  0.37004350  0.82620900  1
  Br  Br58  1  0.47165350  0.00000000  0.10707600  1
  Br  Br59  1  0.32923400  0.73793800  0.66516600  1
  Br  Br60  1  0.80349350  0.00000000  0.77585500  1
  Br  Br61  1  0.28314700  0.13129300  0.83794100  1
  Br  Br62  1  0.45859150  0.62995650  0.17379100  1
  Br  Br63  1  0.23779050  0.87179950  0.05305700  1
  Br  Br64  1  0.52834650  0.00000000  0.89292400  1
  Br  Br65  1  0.76220950  0.87179950  0.94694300  1
  Br  Br66  1  0.42772650  0.87266750  0.27514100  1
  Br  Br67  1  0.37431200  0.86957900  0.49156400  1
  Br  Br68  1  0.40092650  0.36838150  0.38610400  1
  Br  Br69  1  0.19650650  0.00000000  0.22414500  1
  Br  Br70  1  0.42772650  0.12733250  0.27514100  1
  Br  Br71  1  0.54140850  0.62995650  0.82620900  1
  Br  Br72  1  0.57227350  0.87266750  0.72485900  1
  Br  Br73  1  0.45859150  0.37004350  0.17379100  1
  Br  Br74  1  0.67076600  0.26206200  0.33483400  1
  Br  Br75  1  0.57227350  0.12733250  0.72485900  1
  Br  Br76  1  0.28314700  0.86870700  0.83794100  1
  Br  Br77  1  0.50000000  0.76034550  0.00000000  1
  Br  Br78  1  0.37431200  0.13042100  0.49156400  1
  Br  Br79  1  0.32923400  0.26206200  0.66516600  1
  Br  Br80  1  0.23779050  0.12820050  0.05305700  1
  Br  Br81  1  0.67076600  0.73793800  0.33483400  1
  Br  Br82  1  0.00000000  0.73965450  0.00000000  1
  Br  Br83  1  0.35438550  0.50000000  0.55964200  1
  Br  Br84  1  0.21685300  0.36870700  0.16205900  1
  Br  Br85  1  0.12568800  0.36957900  0.50843600  1
  Br  Br86  1  0.09907350  0.13161850  0.61389600  1
  Br  Br87  1  0.26220950  0.62820050  0.94694300  1
  Br  Br88  1  0.21685300  0.63129300  0.16205900  1
  Br  Br89  1  0.64561450  0.50000000  0.44035800  1
  Br  Br90  1  0.90092650  0.13161850  0.38610400  1
  Br  Br91  1  0.12568800  0.63042100  0.50843600  1
  Br  Br92  1  0.09907350  0.86838150  0.61389600  1
  Br  Br93  1  0.04140850  0.87004350  0.82620900  1
  Br  Br94  1  0.97165350  0.50000000  0.10707600  1
  Br  Br95  1  0.82923400  0.23793800  0.66516600  1
  Br  Br96  1  0.30349350  0.50000000  0.77585500  1
  Br  Br97  1  0.78314700  0.63129300  0.83794100  1
  Br  Br98  1  0.95859150  0.12995650  0.17379100  1
  Br  Br99  1  0.73779050  0.37179950  0.05305700  1
  Br  Br100  1  0.02834650  0.50000000  0.89292400  1
  Br  Br101  1  0.26220950  0.37179950  0.94694300  1
  Br  Br102  1  0.92772650  0.37266750  0.27514100  1
  Br  Br103  1  0.87431200  0.36957900  0.49156400  1
  Br  Br104  1  0.90092650  0.86838150  0.38610400  1
  Br  Br105  1  0.69650650  0.50000000  0.22414500  1
  Br  Br106  1  0.92772650  0.62733250  0.27514100  1
  Br  Br107  1  0.04140850  0.12995650  0.82620900  1
  Br  Br108  1  0.07227350  0.37266750  0.72485900  1
  Br  Br109  1  0.95859150  0.87004350  0.17379100  1
  Br  Br110  1  0.17076600  0.76206200  0.33483400  1
  Br  Br111  1  0.07227350  0.62733250  0.72485900  1
  Br  Br112  1  0.78314700  0.36870700  0.83794100  1
  Br  Br113  1  0.00000000  0.26034550  0.00000000  1
  Br  Br114  1  0.87431200  0.63042100  0.49156400  1
  Br  Br115  1  0.82923400  0.76206200  0.66516600  1
  Br  Br116  1  0.73779050  0.62820050  0.05305700  1
  Br  Br117  1  0.17076600  0.23793800  0.33483400  1
