# generated using pymatgen
data_Nd4Se3O4
_symmetry_space_group_name_H-M   'P 1'
_cell_length_a   4.03270200
_cell_length_b   13.04161600
_cell_length_c   8.50241800
_cell_angle_alpha   90.00000000
_cell_angle_beta   90.00000000
_cell_angle_gamma   90.00000000
_symmetry_Int_Tables_number   1
_chemical_formula_structural   Nd4Se3O4
_chemical_formula_sum   'Nd8 Se6 O8'
_cell_volume   447.16725263
_cell_formula_units_Z   2
loop_
 _symmetry_equiv_pos_site_id
 _symmetry_equiv_pos_as_xyz
  1  'x, y, z'
loop_
 _atom_site_type_symbol
 _atom_site_label
 _atom_site_symmetry_multiplicity
 _atom_site_fract_x
 _atom_site_fract_y
 _atom_site_fract_z
 _atom_site_occupancy
  Nd  Nd0  1  0.50000000  0.18308900  0.76298600  1
  Nd  Nd1  1  0.50000000  0.18308900  0.23701400  1
  Nd  Nd2  1  0.00000000  0.00088400  0.00000000  1
  Nd  Nd3  1  0.00000000  0.01780300  0.50000000  1
  Nd  Nd4  1  0.00000000  0.68308900  0.76298600  1
  Nd  Nd5  1  0.00000000  0.68308900  0.23701400  1
  Nd  Nd6  1  0.50000000  0.50088400  0.00000000  1
  Nd  Nd7  1  0.50000000  0.51780300  0.50000000  1
  Se  Se8  1  0.00000000  0.35606500  0.64887100  1
  Se  Se9  1  0.00000000  0.31289000  0.00000000  1
  Se  Se10  1  0.00000000  0.35606500  0.35112900  1
  Se  Se11  1  0.50000000  0.85606500  0.64887100  1
  Se  Se12  1  0.50000000  0.81289000  0.00000000  1
  Se  Se13  1  0.50000000  0.85606500  0.35112900  1
  O  O14  1  0.00000000  0.08803300  0.24388100  1
  O  O15  1  0.50000000  0.08774700  0.00000000  1
  O  O16  1  0.50000000  0.11611800  0.50000000  1
  O  O17  1  0.00000000  0.08803300  0.75611900  1
  O  O18  1  0.50000000  0.58803300  0.24388100  1
  O  O19  1  0.00000000  0.58774700  0.00000000  1
  O  O20  1  0.00000000  0.61611800  0.50000000  1
  O  O21  1  0.50000000  0.58803300  0.75611900  1
