# generated using pymatgen
data_Ca(PO3)2
_symmetry_space_group_name_H-M   'P 1'
_cell_length_a   13.87866800
_cell_length_b   20.31199000
_cell_length_c   6.84599867
_cell_angle_alpha   90.00000000
_cell_angle_beta   94.71358791
_cell_angle_gamma   90.00000000
_symmetry_Int_Tables_number   1
_chemical_formula_structural   Ca(PO3)2
_chemical_formula_sum   'Ca16 P32 O96'
_cell_volume   1923.38296867
_cell_formula_units_Z   16
loop_
 _symmetry_equiv_pos_site_id
 _symmetry_equiv_pos_as_xyz
  1  'x, y, z'
loop_
 _atom_site_type_symbol
 _atom_site_label
 _atom_site_symmetry_multiplicity
 _atom_site_fract_x
 _atom_site_fract_y
 _atom_site_fract_z
 _atom_site_occupancy
  Ca  Ca0  1  0.66979750  0.19028450  0.68476500  1
  Ca  Ca1  1  0.41485350  0.94422350  0.19570400  1
  Ca  Ca2  1  0.91386650  0.93451950  0.18914200  1
  Ca  Ca3  1  0.66154450  0.69077350  0.70053300  1
  Ca  Ca4  1  0.66154450  0.30922650  0.20053300  1
  Ca  Ca5  1  0.91386650  0.06548050  0.68914200  1
  Ca  Ca6  1  0.41485350  0.05577650  0.69570400  1
  Ca  Ca7  1  0.66979750  0.80971550  0.18476500  1
  Ca  Ca8  1  0.16979750  0.69028450  0.68476500  1
  Ca  Ca9  1  0.91485350  0.44422350  0.19570400  1
  Ca  Ca10  1  0.41386650  0.43451950  0.18914200  1
  Ca  Ca11  1  0.16154450  0.19077350  0.70053300  1
  Ca  Ca12  1  0.16154450  0.80922650  0.20053300  1
  Ca  Ca13  1  0.41386650  0.56548050  0.68914200  1
  Ca  Ca14  1  0.91485350  0.55577650  0.69570400  1
  Ca  Ca15  1  0.16979750  0.30971550  0.18476500  1
  P  P16  1  0.59698050  0.94572450  0.50489100  1
  P  P17  1  0.34324700  0.70095800  0.02244300  1
  P  P18  1  0.56850700  0.43147900  0.56701700  1
  P  P19  1  0.24857050  0.93015150  0.82290500  1
  P  P20  1  0.33051400  0.82991900  0.53814400  1
  P  P21  1  0.48091800  0.19176700  0.35939700  1
  P  P22  1  0.56850700  0.56852100  0.06701700  1
  P  P23  1  0.72934400  0.05535400  0.36470800  1
  P  P24  1  0.49665500  0.32394900  0.83545400  1
  P  P25  1  0.24857050  0.06984850  0.32290500  1
  P  P26  1  0.72934400  0.94464600  0.86470800  1
  P  P27  1  0.49665500  0.67605100  0.33545400  1
  P  P28  1  0.34324700  0.29904200  0.52244300  1
  P  P29  1  0.48091800  0.80823300  0.85939700  1
  P  P30  1  0.59698050  0.05427550  0.00489100  1
  P  P31  1  0.33051400  0.17008100  0.03814400  1
  P  P32  1  0.09698050  0.44572450  0.50489100  1
  P  P33  1  0.84324700  0.20095800  0.02244300  1
  P  P34  1  0.06850700  0.93147900  0.56701700  1
  P  P35  1  0.74857050  0.43015150  0.82290500  1
  P  P36  1  0.83051400  0.32991900  0.53814400  1
  P  P37  1  0.98091800  0.69176700  0.35939700  1
  P  P38  1  0.06850700  0.06852100  0.06701700  1
  P  P39  1  0.22934400  0.55535400  0.36470800  1
  P  P40  1  0.99665500  0.82394900  0.83545400  1
  P  P41  1  0.74857050  0.56984850  0.32290500  1
  P  P42  1  0.22934400  0.44464600  0.86470800  1
  P  P43  1  0.99665500  0.17605100  0.33545400  1
  P  P44  1  0.84324700  0.79904200  0.52244300  1
  P  P45  1  0.98091800  0.30823300  0.85939700  1
  P  P46  1  0.09698050  0.55427550  0.00489100  1
  P  P47  1  0.83051400  0.67008100  0.03814400  1
  O  O48  1  0.85190700  0.86020600  0.40303100  1
  O  O49  1  0.21272100  0.11600200  0.46998600  1
  O  O50  1  0.47267600  0.12817000  0.46614300  1
  O  O51  1  0.40923600  0.24308300  0.44437000  1
  O  O52  1  0.31619600  0.01536800  0.39606800  1
  O  O53  1  0.49255900  0.65929100  0.54931700  1
  O  O54  1  0.43811000  0.18687000  0.13247100  1
  O  O55  1  0.58070850  0.77884250  0.86041600  1
  O  O56  1  0.40923600  0.75691700  0.94437000  1
  O  O57  1  0.64993750  0.01364850  0.46730700  1
  O  O58  1  0.43811000  0.81313000  0.63247100  1
  O  O59  1  0.58070850  0.22115750  0.36041600  1
  O  O60  1  0.59939650  0.38639650  0.41093000  1
  O  O61  1  0.75913550  0.88989250  0.00519400  1
  O  O62  1  0.66489400  0.91299700  0.68040300  1
  O  O63  1  0.47267600  0.87183000  0.96614300  1
  O  O64  1  0.49255900  0.34070900  0.04931700  1
  O  O65  1  0.50073650  0.48648650  0.49939900  1
  O  O66  1  0.66489400  0.08700300  0.18040300  1
  O  O67  1  0.38757300  0.30793200  0.74570800  1
  O  O68  1  0.74185550  0.22718350  0.02560800  1
  O  O69  1  0.33743400  0.14796200  0.82979200  1
  O  O70  1  0.51565200  0.39241700  0.73002100  1
  O  O71  1  0.15964350  0.03567550  0.19237200  1
  O  O72  1  0.85190700  0.13979400  0.90303100  1
  O  O73  1  0.31619600  0.98463200  0.89606800  1
  O  O74  1  0.51565200  0.60758300  0.23002100  1
  O  O75  1  0.50073650  0.51351350  0.99939900  1
  O  O76  1  0.38757300  0.69206800  0.24570800  1
  O  O77  1  0.64993750  0.98635150  0.96730700  1
  O  O78  1  0.56490450  0.27065450  0.78802800  1
  O  O79  1  0.30363200  0.89287700  0.65977900  1
  O  O80  1  0.80863750  0.01328550  0.29839900  1
  O  O81  1  0.59388500  0.90041700  0.33118000  1
  O  O82  1  0.33743400  0.85203800  0.32979200  1
  O  O83  1  0.30363200  0.10712300  0.15977900  1
  O  O84  1  0.59388500  0.09958300  0.83118000  1
  O  O85  1  0.80863750  0.98671450  0.79839900  1
  O  O86  1  0.15964350  0.96432450  0.69237200  1
  O  O87  1  0.49913650  0.96537550  0.56543400  1
  O  O88  1  0.49913650  0.03462450  0.06543400  1
  O  O89  1  0.59939650  0.61360350  0.91093000  1
  O  O90  1  0.74185550  0.77281650  0.52560800  1
  O  O91  1  0.75913550  0.11010750  0.50519400  1
  O  O92  1  0.26146750  0.77414750  0.56069400  1
  O  O93  1  0.56490450  0.72934550  0.28802800  1
  O  O94  1  0.21272100  0.88399800  0.96998600  1
  O  O95  1  0.26146750  0.22585250  0.06069400  1
  O  O96  1  0.35190700  0.36020600  0.40303100  1
  O  O97  1  0.71272100  0.61600200  0.46998600  1
  O  O98  1  0.97267600  0.62817000  0.46614300  1
  O  O99  1  0.90923600  0.74308300  0.44437000  1
  O  O100  1  0.81619600  0.51536800  0.39606800  1
  O  O101  1  0.99255900  0.15929100  0.54931700  1
  O  O102  1  0.93811000  0.68687000  0.13247100  1
  O  O103  1  0.08070850  0.27884250  0.86041600  1
  O  O104  1  0.90923600  0.25691700  0.94437000  1
  O  O105  1  0.14993750  0.51364850  0.46730700  1
  O  O106  1  0.93811000  0.31313000  0.63247100  1
  O  O107  1  0.08070850  0.72115750  0.36041600  1
  O  O108  1  0.09939650  0.88639650  0.41093000  1
  O  O109  1  0.25913550  0.38989250  0.00519400  1
  O  O110  1  0.16489400  0.41299700  0.68040300  1
  O  O111  1  0.97267600  0.37183000  0.96614300  1
  O  O112  1  0.99255900  0.84070900  0.04931700  1
  O  O113  1  0.00073650  0.98648650  0.49939900  1
  O  O114  1  0.16489400  0.58700300  0.18040300  1
  O  O115  1  0.88757300  0.80793200  0.74570800  1
  O  O116  1  0.24185550  0.72718350  0.02560800  1
  O  O117  1  0.83743400  0.64796200  0.82979200  1
  O  O118  1  0.01565200  0.89241700  0.73002100  1
  O  O119  1  0.65964350  0.53567550  0.19237200  1
  O  O120  1  0.35190700  0.63979400  0.90303100  1
  O  O121  1  0.81619600  0.48463200  0.89606800  1
  O  O122  1  0.01565200  0.10758300  0.23002100  1
  O  O123  1  0.00073650  0.01351350  0.99939900  1
  O  O124  1  0.88757300  0.19206800  0.24570800  1
  O  O125  1  0.14993750  0.48635150  0.96730700  1
  O  O126  1  0.06490450  0.77065450  0.78802800  1
  O  O127  1  0.80363200  0.39287700  0.65977900  1
  O  O128  1  0.30863750  0.51328550  0.29839900  1
  O  O129  1  0.09388500  0.40041700  0.33118000  1
  O  O130  1  0.83743400  0.35203800  0.32979200  1
  O  O131  1  0.80363200  0.60712300  0.15977900  1
  O  O132  1  0.09388500  0.59958300  0.83118000  1
  O  O133  1  0.30863750  0.48671450  0.79839900  1
  O  O134  1  0.65964350  0.46432450  0.69237200  1
  O  O135  1  0.99913650  0.46537550  0.56543400  1
  O  O136  1  0.99913650  0.53462450  0.06543400  1
  O  O137  1  0.09939650  0.11360350  0.91093000  1
  O  O138  1  0.24185550  0.27281650  0.52560800  1
  O  O139  1  0.25913550  0.61010750  0.50519400  1
  O  O140  1  0.76146750  0.27414750  0.56069400  1
  O  O141  1  0.06490450  0.22934550  0.28802800  1
  O  O142  1  0.71272100  0.38399800  0.96998600  1
  O  O143  1  0.76146750  0.72585250  0.06069400  1
