# generated using pymatgen
data_RbTh2(PO4)3
_symmetry_space_group_name_H-M   'P 1'
_cell_length_a   17.97143200
_cell_length_b   6.95874800
_cell_length_c   8.24078597
_cell_angle_alpha   90.00000000
_cell_angle_beta   102.54071311
_cell_angle_gamma   90.00000000
_symmetry_Int_Tables_number   1
_chemical_formula_structural   RbTh2(PO4)3
_chemical_formula_sum   'Rb4 Th8 P12 O48'
_cell_volume   1005.99404861
_cell_formula_units_Z   4
loop_
 _symmetry_equiv_pos_site_id
 _symmetry_equiv_pos_as_xyz
  1  'x, y, z'
loop_
 _atom_site_type_symbol
 _atom_site_label
 _atom_site_symmetry_multiplicity
 _atom_site_fract_x
 _atom_site_fract_y
 _atom_site_fract_z
 _atom_site_occupancy
  Rb  Rb0  1  0.00000000  0.59423800  0.75000000  1
  Rb  Rb1  1  0.00000000  0.40576200  0.25000000  1
  Rb  Rb2  1  0.50000000  0.09423800  0.75000000  1
  Rb  Rb3  1  0.50000000  0.90576200  0.25000000  1
  Th  Th4  1  0.84557750  0.09428950  0.46648100  1
  Th  Th5  1  0.84557750  0.90571050  0.96648100  1
  Th  Th6  1  0.65442250  0.59428950  0.03351900  1
  Th  Th7  1  0.65442250  0.40571050  0.53351900  1
  Th  Th8  1  0.34557750  0.59428950  0.46648100  1
  Th  Th9  1  0.34557750  0.40571050  0.96648100  1
  Th  Th10  1  0.15442250  0.09428950  0.03351900  1
  Th  Th11  1  0.15442250  0.90571050  0.53351900  1
  P  P12  1  0.80811700  0.59157200  0.31778500  1
  P  P13  1  0.69188300  0.90842800  0.68221500  1
  P  P14  1  0.00000000  0.90519200  0.25000000  1
  P  P15  1  0.69188300  0.09157200  0.18221500  1
  P  P16  1  0.00000000  0.09480800  0.75000000  1
  P  P17  1  0.80811700  0.40842800  0.81778500  1
  P  P18  1  0.30811700  0.09157200  0.31778500  1
  P  P19  1  0.19188300  0.40842800  0.68221500  1
  P  P20  1  0.50000000  0.40519200  0.25000000  1
  P  P21  1  0.19188300  0.59157200  0.18221500  1
  P  P22  1  0.50000000  0.59480800  0.75000000  1
  P  P23  1  0.30811700  0.90842800  0.81778500  1
  O  O24  1  0.64463400  0.09376400  0.65035600  1
  O  O25  1  0.52736000  0.71558200  0.90944200  1
  O  O26  1  0.65480800  0.74235700  0.57131400  1
  O  O27  1  0.70420350  0.84770450  0.87038200  1
  O  O28  1  0.64463400  0.90623600  0.15035600  1
  O  O29  1  0.92850400  0.03081500  0.25672300  1
  O  O30  1  0.57149600  0.46918500  0.74327700  1
  O  O31  1  0.57149600  0.53081500  0.24327700  1
  O  O32  1  0.79579650  0.34770450  0.62961800  1
  O  O33  1  0.97264000  0.78441800  0.09055800  1
  O  O34  1  0.72361300  0.44743900  0.83044400  1
  O  O35  1  0.85536600  0.40623600  0.34964400  1
  O  O36  1  0.84519200  0.24235700  0.92868600  1
  O  O37  1  0.52736000  0.28441800  0.40944200  1
  O  O38  1  0.97264000  0.21558200  0.59055800  1
  O  O39  1  0.65480800  0.25764300  0.07131400  1
  O  O40  1  0.79579650  0.65229550  0.12961800  1
  O  O41  1  0.70420350  0.15229550  0.37038200  1
  O  O42  1  0.77638700  0.05256100  0.16955600  1
  O  O43  1  0.85536600  0.59376400  0.84964400  1
  O  O44  1  0.77638700  0.94743900  0.66955600  1
  O  O45  1  0.92850400  0.96918500  0.75672300  1
  O  O46  1  0.84519200  0.75764300  0.42868600  1
  O  O47  1  0.72361300  0.55256100  0.33044400  1
  O  O48  1  0.14463400  0.59376400  0.65035600  1
  O  O49  1  0.02736000  0.21558200  0.90944200  1
  O  O50  1  0.15480800  0.24235700  0.57131400  1
  O  O51  1  0.20420350  0.34770450  0.87038200  1
  O  O52  1  0.14463400  0.40623600  0.15035600  1
  O  O53  1  0.42850400  0.53081500  0.25672300  1
  O  O54  1  0.07149600  0.96918500  0.74327700  1
  O  O55  1  0.07149600  0.03081500  0.24327700  1
  O  O56  1  0.29579650  0.84770450  0.62961800  1
  O  O57  1  0.47264000  0.28441800  0.09055800  1
  O  O58  1  0.22361300  0.94743900  0.83044400  1
  O  O59  1  0.35536600  0.90623600  0.34964400  1
  O  O60  1  0.34519200  0.74235700  0.92868600  1
  O  O61  1  0.02736000  0.78441800  0.40944200  1
  O  O62  1  0.47264000  0.71558200  0.59055800  1
  O  O63  1  0.15480800  0.75764300  0.07131400  1
  O  O64  1  0.29579650  0.15229550  0.12961800  1
  O  O65  1  0.20420350  0.65229550  0.37038200  1
  O  O66  1  0.27638700  0.55256100  0.16955600  1
  O  O67  1  0.35536600  0.09376400  0.84964400  1
  O  O68  1  0.27638700  0.44743900  0.66955600  1
  O  O69  1  0.42850400  0.46918500  0.75672300  1
  O  O70  1  0.34519200  0.25764300  0.42868600  1
  O  O71  1  0.22361300  0.05256100  0.33044400  1
