# generated using pymatgen
data_Tb3Si2S8I
_symmetry_space_group_name_H-M   'P 1'
_cell_length_a   15.77058400
_cell_length_b   7.68458400
_cell_length_c   10.69548107
_cell_angle_alpha   90.00000000
_cell_angle_beta   99.08490383
_cell_angle_gamma   90.00000000
_symmetry_Int_Tables_number   1
_chemical_formula_structural   Tb3Si2S8I
_chemical_formula_sum   'Tb12 Si8 S32 I4'
_cell_volume   1279.92926674
_cell_formula_units_Z   4
loop_
 _symmetry_equiv_pos_site_id
 _symmetry_equiv_pos_as_xyz
  1  'x, y, z'
loop_
 _atom_site_type_symbol
 _atom_site_label
 _atom_site_symmetry_multiplicity
 _atom_site_fract_x
 _atom_site_fract_y
 _atom_site_fract_z
 _atom_site_occupancy
  Tb  Tb0  1  0.70168450  0.37386050  0.68089100  1
  Tb  Tb1  1  0.79831550  0.87386050  0.81910900  1
  Tb  Tb2  1  0.79831550  0.12613950  0.31910900  1
  Tb  Tb3  1  0.00000000  0.38831400  0.75000000  1
  Tb  Tb4  1  0.70168450  0.62613950  0.18089100  1
  Tb  Tb5  1  0.00000000  0.61168600  0.25000000  1
  Tb  Tb6  1  0.20168450  0.87386050  0.68089100  1
  Tb  Tb7  1  0.29831550  0.37386050  0.81910900  1
  Tb  Tb8  1  0.29831550  0.62613950  0.31910900  1
  Tb  Tb9  1  0.50000000  0.88831400  0.75000000  1
  Tb  Tb10  1  0.20168450  0.12613950  0.18089100  1
  Tb  Tb11  1  0.50000000  0.11168600  0.25000000  1
  Si  Si12  1  0.65829900  0.03802300  0.02545300  1
  Si  Si13  1  0.65829900  0.96197700  0.52545300  1
  Si  Si14  1  0.84170100  0.53802300  0.47454700  1
  Si  Si15  1  0.84170100  0.46197700  0.97454700  1
  Si  Si16  1  0.15829900  0.53802300  0.02545300  1
  Si  Si17  1  0.15829900  0.46197700  0.52545300  1
  Si  Si18  1  0.34170100  0.03802300  0.47454700  1
  Si  Si19  1  0.34170100  0.96197700  0.97454700  1
  S  S20  1  0.71717100  0.56788700  0.91283000  1
  S  S21  1  0.64746300  0.09730300  0.82954000  1
  S  S22  1  0.78282900  0.06788700  0.58717000  1
  S  S23  1  0.85253700  0.59730300  0.67046000  1
  S  S24  1  0.85253700  0.40269700  0.17046000  1
  S  S25  1  0.93229750  0.66301350  0.96511700  1
  S  S26  1  0.64746300  0.90269700  0.32954000  1
  S  S27  1  0.64340900  0.74838700  0.64589500  1
  S  S28  1  0.64340900  0.25161300  0.14589500  1
  S  S29  1  0.56770250  0.16301350  0.53488300  1
  S  S30  1  0.93229750  0.33698650  0.46511700  1
  S  S31  1  0.78282900  0.93211300  0.08717000  1
  S  S32  1  0.85659100  0.24838700  0.85410500  1
  S  S33  1  0.71717100  0.43211300  0.41283000  1
  S  S34  1  0.56770250  0.83698650  0.03488300  1
  S  S35  1  0.85659100  0.75161300  0.35410500  1
  S  S36  1  0.21717100  0.06788700  0.91283000  1
  S  S37  1  0.14746300  0.59730300  0.82954000  1
  S  S38  1  0.28282900  0.56788700  0.58717000  1
  S  S39  1  0.35253700  0.09730300  0.67046000  1
  S  S40  1  0.35253700  0.90269700  0.17046000  1
  S  S41  1  0.43229750  0.16301350  0.96511700  1
  S  S42  1  0.14746300  0.40269700  0.32954000  1
  S  S43  1  0.14340900  0.24838700  0.64589500  1
  S  S44  1  0.14340900  0.75161300  0.14589500  1
  S  S45  1  0.06770250  0.66301350  0.53488300  1
  S  S46  1  0.43229750  0.83698650  0.46511700  1
  S  S47  1  0.28282900  0.43211300  0.08717000  1
  S  S48  1  0.35659100  0.74838700  0.85410500  1
  S  S49  1  0.21717100  0.93211300  0.41283000  1
  S  S50  1  0.06770250  0.33698650  0.03488300  1
  S  S51  1  0.35659100  0.25161300  0.35410500  1
  I  I52  1  0.00000000  0.98218300  0.75000000  1
  I  I53  1  0.00000000  0.01781700  0.25000000  1
  I  I54  1  0.50000000  0.48218300  0.75000000  1
  I  I55  1  0.50000000  0.51781700  0.25000000  1
