# generated using pymatgen
data_Ba3SrNb2O9
_symmetry_space_group_name_H-M   'P 1'
_cell_length_a   6.10042648
_cell_length_b   6.10042648
_cell_length_c   16.11068600
_cell_angle_alpha   90.00000000
_cell_angle_beta   90.00000000
_cell_angle_gamma   120.00000000
_symmetry_Int_Tables_number   1
_chemical_formula_structural   Ba3SrNb2O9
_chemical_formula_sum   'Ba6 Sr2 Nb4 O18'
_cell_volume   519.23631626
_cell_formula_units_Z   2
loop_
 _symmetry_equiv_pos_site_id
 _symmetry_equiv_pos_as_xyz
  1  'x, y, z'
loop_
 _atom_site_type_symbol
 _atom_site_label
 _atom_site_symmetry_multiplicity
 _atom_site_fract_x
 _atom_site_fract_y
 _atom_site_fract_z
 _atom_site_occupancy
  Ba  Ba0  1  0.00000000  0.00000000  0.75000000  1
  Ba  Ba1  1  0.00000000  0.00000000  0.25000000  1
  Ba  Ba2  1  0.66666667  0.33333333  0.37290600  1
  Ba  Ba3  1  0.33333333  0.66666667  0.87290600  1
  Ba  Ba4  1  0.33333333  0.66666667  0.62709400  1
  Ba  Ba5  1  0.66666667  0.33333333  0.12709400  1
  Sr  Sr6  1  0.00000000  0.00000000  0.50000000  1
  Sr  Sr7  1  0.00000000  0.00000000  0.00000000  1
  Nb  Nb8  1  0.66666667  0.33333333  0.65582500  1
  Nb  Nb9  1  0.33333333  0.66666667  0.15582500  1
  Nb  Nb10  1  0.33333333  0.66666667  0.34417500  1
  Nb  Nb11  1  0.66666667  0.33333333  0.84417500  1
  O  O12  1  0.96818300  0.48409150  0.75000000  1
  O  O13  1  0.48409150  0.96818300  0.25000000  1
  O  O14  1  0.48409150  0.51590850  0.25000000  1
  O  O15  1  0.51590850  0.48409150  0.75000000  1
  O  O16  1  0.51590850  0.03181700  0.75000000  1
  O  O17  1  0.03181700  0.51590850  0.25000000  1
  O  O18  1  0.34470500  0.17235250  0.89767600  1
  O  O19  1  0.17235250  0.34470500  0.39767600  1
  O  O20  1  0.17235250  0.82764750  0.39767600  1
  O  O21  1  0.82764750  0.17235250  0.89767600  1
  O  O22  1  0.82764750  0.65529500  0.89767600  1
  O  O23  1  0.65529500  0.82764750  0.10232400  1
  O  O24  1  0.17235250  0.34470500  0.10232400  1
  O  O25  1  0.65529500  0.82764750  0.39767600  1
  O  O26  1  0.17235250  0.82764750  0.10232400  1
  O  O27  1  0.82764750  0.17235250  0.60232400  1
  O  O28  1  0.34470500  0.17235250  0.60232400  1
  O  O29  1  0.82764750  0.65529500  0.60232400  1
