# generated using pymatgen
data_SrTiSi2O7
_symmetry_space_group_name_H-M   'P 1'
_cell_length_a   5.41139400
_cell_length_b   14.69171000
_cell_length_c   7.14840900
_cell_angle_alpha   90.00000000
_cell_angle_beta   90.00000000
_cell_angle_gamma   90.00000000
_symmetry_Int_Tables_number   1
_chemical_formula_structural   SrTiSi2O7
_chemical_formula_sum   'Sr4 Ti4 Si8 O28'
_cell_volume   568.31732542
_cell_formula_units_Z   4
loop_
 _symmetry_equiv_pos_site_id
 _symmetry_equiv_pos_as_xyz
  1  'x, y, z'
loop_
 _atom_site_type_symbol
 _atom_site_label
 _atom_site_symmetry_multiplicity
 _atom_site_fract_x
 _atom_site_fract_y
 _atom_site_fract_z
 _atom_site_occupancy
  Sr  Sr0  1  0.00000000  0.80120900  0.75000000  1
  Sr  Sr1  1  0.50000000  0.69879100  0.25000000  1
  Sr  Sr2  1  0.50000000  0.30120900  0.75000000  1
  Sr  Sr3  1  0.00000000  0.19879100  0.25000000  1
  Ti  Ti4  1  0.00000000  0.89095200  0.25000000  1
  Ti  Ti5  1  0.50000000  0.60904800  0.75000000  1
  Ti  Ti6  1  0.50000000  0.39095200  0.25000000  1
  Ti  Ti7  1  0.00000000  0.10904800  0.75000000  1
  Si  Si8  1  0.00000000  0.60843700  0.47500500  1
  Si  Si9  1  0.00000000  0.60843700  0.02499500  1
  Si  Si10  1  0.50000000  0.89156300  0.97500500  1
  Si  Si11  1  0.50000000  0.89156300  0.52499500  1
  Si  Si12  1  0.50000000  0.10843700  0.47500500  1
  Si  Si13  1  0.50000000  0.10843700  0.02499500  1
  Si  Si14  1  0.00000000  0.39156300  0.97500500  1
  Si  Si15  1  0.00000000  0.39156300  0.52499500  1
  O  O16  1  0.50000000  0.86143100  0.75000000  1
  O  O17  1  0.50000000  0.50525300  0.25000000  1
  O  O18  1  0.25024400  0.84649100  0.06158600  1
  O  O19  1  0.25024400  0.84649100  0.43841400  1
  O  O20  1  0.75024400  0.65350900  0.93841400  1
  O  O21  1  0.00000000  0.63856900  0.25000000  1
  O  O22  1  0.24975600  0.65350900  0.93841400  1
  O  O23  1  0.74975600  0.84649100  0.06158600  1
  O  O24  1  0.50000000  0.00000000  0.50000000  1
  O  O25  1  0.24975600  0.65350900  0.56158600  1
  O  O26  1  0.74975600  0.84649100  0.43841400  1
  O  O27  1  0.00000000  0.99474700  0.75000000  1
  O  O28  1  0.75024400  0.65350900  0.56158600  1
  O  O29  1  0.50000000  0.00000000  0.00000000  1
  O  O30  1  0.00000000  0.36143100  0.75000000  1
  O  O31  1  0.00000000  0.00525300  0.25000000  1
  O  O32  1  0.75024400  0.34649100  0.06158600  1
  O  O33  1  0.75024400  0.34649100  0.43841400  1
  O  O34  1  0.25024400  0.15350900  0.93841400  1
  O  O35  1  0.50000000  0.13856900  0.25000000  1
  O  O36  1  0.74975600  0.15350900  0.93841400  1
  O  O37  1  0.24975600  0.34649100  0.06158600  1
  O  O38  1  0.00000000  0.50000000  0.50000000  1
  O  O39  1  0.74975600  0.15350900  0.56158600  1
  O  O40  1  0.24975600  0.34649100  0.43841400  1
  O  O41  1  0.50000000  0.49474700  0.75000000  1
  O  O42  1  0.25024400  0.15350900  0.56158600  1
  O  O43  1  0.00000000  0.50000000  0.00000000  1
