# generated using pymatgen
data_Na2Si2O5
_symmetry_space_group_name_H-M   'P 1'
_cell_length_a   12.39601400
_cell_length_b   12.39601400
_cell_length_c   7.17667200
_cell_angle_alpha   90.00000000
_cell_angle_beta   90.00000000
_cell_angle_gamma   90.00000000
_symmetry_Int_Tables_number   1
_chemical_formula_structural   Na2Si2O5
_chemical_formula_sum   'Na16 Si16 O40'
_cell_volume   1102.77576662
_cell_formula_units_Z   8
loop_
 _symmetry_equiv_pos_site_id
 _symmetry_equiv_pos_as_xyz
  1  'x, y, z'
loop_
 _atom_site_type_symbol
 _atom_site_label
 _atom_site_symmetry_multiplicity
 _atom_site_fract_x
 _atom_site_fract_y
 _atom_site_fract_z
 _atom_site_occupancy
  Na  Na0  1  0.42008350  0.13174850  0.91301550  1
  Na  Na1  1  0.13174850  0.07991650  0.66301550  1
  Na  Na2  1  0.36825150  0.92008350  0.58698450  1
  Na  Na3  1  0.57991650  0.36825150  0.83698450  1
  Na  Na4  1  0.57991650  0.86825150  0.91301550  1
  Na  Na5  1  0.42008350  0.63174850  0.83698450  1
  Na  Na6  1  0.86825150  0.92008350  0.66301550  1
  Na  Na7  1  0.63174850  0.07991650  0.58698450  1
  Na  Na8  1  0.92008350  0.63174850  0.41301550  1
  Na  Na9  1  0.63174850  0.57991650  0.16301550  1
  Na  Na10  1  0.86825150  0.42008350  0.08698450  1
  Na  Na11  1  0.07991650  0.86825150  0.33698450  1
  Na  Na12  1  0.07991650  0.36825150  0.41301550  1
  Na  Na13  1  0.92008350  0.13174850  0.33698450  1
  Na  Na14  1  0.36825150  0.42008350  0.16301550  1
  Na  Na15  1  0.13174850  0.57991650  0.08698450  1
  Si  Si16  1  0.29241450  0.88224550  0.05648050  1
  Si  Si17  1  0.38224550  0.70758550  0.30648050  1
  Si  Si18  1  0.61775450  0.29241450  0.30648050  1
  Si  Si19  1  0.70758550  0.11775450  0.05648050  1
  Si  Si20  1  0.38224550  0.20758550  0.44351950  1
  Si  Si21  1  0.61775450  0.79241450  0.44351950  1
  Si  Si22  1  0.79241450  0.88224550  0.19351950  1
  Si  Si23  1  0.20758550  0.11775450  0.19351950  1
  Si  Si24  1  0.79241450  0.38224550  0.55648050  1
  Si  Si25  1  0.88224550  0.20758550  0.80648050  1
  Si  Si26  1  0.11775450  0.79241450  0.80648050  1
  Si  Si27  1  0.20758550  0.61775450  0.55648050  1
  Si  Si28  1  0.88224550  0.70758550  0.94351950  1
  Si  Si29  1  0.11775450  0.29241450  0.94351950  1
  Si  Si30  1  0.29241450  0.38224550  0.69351950  1
  Si  Si31  1  0.70758550  0.61775450  0.69351950  1
  O  O32  1  0.38577050  0.88217850  0.90286450  1
  O  O33  1  0.25000000  0.00000000  0.12500000  1
  O  O34  1  0.38577050  0.38217850  0.84713550  1
  O  O35  1  0.67621400  0.82290200  0.24400100  1
  O  O36  1  0.38217850  0.11422950  0.59713550  1
  O  O37  1  0.67621400  0.32290200  0.50599900  1
  O  O38  1  0.82290200  0.82378600  0.99400100  1
  O  O39  1  0.17709800  0.17621400  0.99400100  1
  O  O40  1  0.11782150  0.88577050  0.65286450  1
  O  O41  1  0.61782150  0.88577050  0.59713550  1
  O  O42  1  0.67709800  0.17621400  0.25599900  1
  O  O43  1  0.50000000  0.25000000  0.37500000  1
  O  O44  1  0.61422950  0.61782150  0.84713550  1
  O  O45  1  0.88217850  0.11422950  0.65286450  1
  O  O46  1  0.32378600  0.17709800  0.24400100  1
  O  O47  1  0.32290200  0.82378600  0.25599900  1
  O  O48  1  0.61422950  0.11782150  0.90286450  1
  O  O49  1  0.32378600  0.67709800  0.50599900  1
  O  O50  1  0.75000000  0.00000000  0.12500000  1
  O  O51  1  0.50000000  0.75000000  0.37500000  1
  O  O52  1  0.88577050  0.38217850  0.40286450  1
  O  O53  1  0.75000000  0.50000000  0.62500000  1
  O  O54  1  0.88577050  0.88217850  0.34713550  1
  O  O55  1  0.17621400  0.32290200  0.74400100  1
  O  O56  1  0.88217850  0.61422950  0.09713550  1
  O  O57  1  0.17621400  0.82290200  0.00599900  1
  O  O58  1  0.32290200  0.32378600  0.49400100  1
  O  O59  1  0.67709800  0.67621400  0.49400100  1
  O  O60  1  0.61782150  0.38577050  0.15286450  1
  O  O61  1  0.11782150  0.38577050  0.09713550  1
  O  O62  1  0.17709800  0.67621400  0.75599900  1
  O  O63  1  0.00000000  0.75000000  0.87500000  1
  O  O64  1  0.11422950  0.11782150  0.34713550  1
  O  O65  1  0.38217850  0.61422950  0.15286450  1
  O  O66  1  0.82378600  0.67709800  0.74400100  1
  O  O67  1  0.82290200  0.32378600  0.75599900  1
  O  O68  1  0.11422950  0.61782150  0.40286450  1
  O  O69  1  0.82378600  0.17709800  0.00599900  1
  O  O70  1  0.25000000  0.50000000  0.62500000  1
  O  O71  1  0.00000000  0.25000000  0.87500000  1
