# generated using pymatgen
data_CuAg3S2
_symmetry_space_group_name_H-M   'P 1'
_cell_length_a   8.74568400
_cell_length_b   8.74568400
_cell_length_c   11.90875800
_cell_angle_alpha   90.00000000
_cell_angle_beta   90.00000000
_cell_angle_gamma   90.00000000
_symmetry_Int_Tables_number   1
_chemical_formula_structural   CuAg3S2
_chemical_formula_sum   'Cu8 Ag24 S16'
_cell_volume   910.86503772
_cell_formula_units_Z   8
loop_
 _symmetry_equiv_pos_site_id
 _symmetry_equiv_pos_as_xyz
  1  'x, y, z'
loop_
 _atom_site_type_symbol
 _atom_site_label
 _atom_site_symmetry_multiplicity
 _atom_site_fract_x
 _atom_site_fract_y
 _atom_site_fract_z
 _atom_site_occupancy
  Cu  Cu0  1  0.00000000  0.00000000  0.34681100  1
  Cu  Cu1  1  0.50000000  0.00000000  0.09681100  1
  Cu  Cu2  1  0.50000000  0.00000000  0.40318900  1
  Cu  Cu3  1  0.00000000  0.00000000  0.65318900  1
  Cu  Cu4  1  0.50000000  0.50000000  0.84681100  1
  Cu  Cu5  1  0.00000000  0.50000000  0.59681100  1
  Cu  Cu6  1  0.00000000  0.50000000  0.90318900  1
  Cu  Cu7  1  0.50000000  0.50000000  0.15318900  1
  Ag  Ag8  1  0.68557500  0.18557500  0.25000000  1
  Ag  Ag9  1  0.81442500  0.18557500  0.50000000  1
  Ag  Ag10  1  0.18557500  0.81442500  0.50000000  1
  Ag  Ag11  1  0.31442500  0.81442500  0.25000000  1
  Ag  Ag12  1  0.31442500  0.31442500  0.00000000  1
  Ag  Ag13  1  0.68557500  0.81442500  0.25000000  1
  Ag  Ag14  1  0.31442500  0.18557500  0.25000000  1
  Ag  Ag15  1  0.18557500  0.18557500  0.50000000  1
  Ag  Ag16  1  0.00000000  0.25000000  0.12500000  1
  Ag  Ag17  1  0.75000000  0.50000000  0.37500000  1
  Ag  Ag18  1  0.25000000  0.50000000  0.37500000  1
  Ag  Ag19  1  0.00000000  0.75000000  0.12500000  1
  Ag  Ag20  1  0.18557500  0.68557500  0.75000000  1
  Ag  Ag21  1  0.31442500  0.68557500  0.00000000  1
  Ag  Ag22  1  0.68557500  0.31442500  0.00000000  1
  Ag  Ag23  1  0.81442500  0.31442500  0.75000000  1
  Ag  Ag24  1  0.81442500  0.81442500  0.50000000  1
  Ag  Ag25  1  0.18557500  0.31442500  0.75000000  1
  Ag  Ag26  1  0.81442500  0.68557500  0.75000000  1
  Ag  Ag27  1  0.68557500  0.68557500  0.00000000  1
  Ag  Ag28  1  0.50000000  0.75000000  0.62500000  1
  Ag  Ag29  1  0.25000000  0.00000000  0.87500000  1
  Ag  Ag30  1  0.75000000  0.00000000  0.87500000  1
  Ag  Ag31  1  0.50000000  0.25000000  0.62500000  1
  S  S32  1  0.25126750  0.50000000  0.16220450  1
  S  S33  1  0.24873250  0.00000000  0.66220450  1
  S  S34  1  0.00000000  0.24873250  0.33779550  1
  S  S35  1  0.50000000  0.24873250  0.41220450  1
  S  S36  1  0.50000000  0.75126750  0.41220450  1
  S  S37  1  0.50000000  0.25126750  0.83779550  1
  S  S38  1  0.25126750  0.00000000  0.08779550  1
  S  S39  1  0.74873250  0.00000000  0.08779550  1
  S  S40  1  0.75126750  0.00000000  0.66220450  1
  S  S41  1  0.74873250  0.50000000  0.16220450  1
  S  S42  1  0.50000000  0.74873250  0.83779550  1
  S  S43  1  0.00000000  0.74873250  0.91220450  1
  S  S44  1  0.00000000  0.25126750  0.91220450  1
  S  S45  1  0.00000000  0.75126750  0.33779550  1
  S  S46  1  0.75126750  0.50000000  0.58779550  1
  S  S47  1  0.24873250  0.50000000  0.58779550  1
