# generated using pymatgen
data_K2Ce(PO4)2
_symmetry_space_group_name_H-M   'P 1'
_cell_length_a   6.92736200
_cell_length_b   6.92736200
_cell_length_c   17.82411000
_cell_angle_alpha   90.00000000
_cell_angle_beta   90.00000000
_cell_angle_gamma   90.00000000
_symmetry_Int_Tables_number   1
_chemical_formula_structural   K2Ce(PO4)2
_chemical_formula_sum   'K8 Ce4 P8 O32'
_cell_volume   855.34952715
_cell_formula_units_Z   4
loop_
 _symmetry_equiv_pos_site_id
 _symmetry_equiv_pos_as_xyz
  1  'x, y, z'
loop_
 _atom_site_type_symbol
 _atom_site_label
 _atom_site_symmetry_multiplicity
 _atom_site_fract_x
 _atom_site_fract_y
 _atom_site_fract_z
 _atom_site_occupancy
  K  K0  1  0.00000000  0.25000000  0.12500000  1
  K  K1  1  0.25000000  0.50000000  0.37500000  1
  K  K2  1  0.00000000  0.75000000  0.12500000  1
  K  K3  1  0.75000000  0.50000000  0.37500000  1
  K  K4  1  0.50000000  0.75000000  0.62500000  1
  K  K5  1  0.75000000  0.00000000  0.87500000  1
  K  K6  1  0.50000000  0.25000000  0.62500000  1
  K  K7  1  0.25000000  0.00000000  0.87500000  1
  Ce  Ce8  1  0.50000000  0.00000000  0.25000000  1
  Ce  Ce9  1  0.50000000  0.50000000  0.00000000  1
  Ce  Ce10  1  0.00000000  0.50000000  0.75000000  1
  Ce  Ce11  1  0.00000000  0.00000000  0.50000000  1
  P  P12  1  0.50000000  0.50000000  0.17722500  1
  P  P13  1  0.50000000  0.00000000  0.07277500  1
  P  P14  1  0.00000000  0.00000000  0.32277500  1
  P  P15  1  0.50000000  0.00000000  0.42722500  1
  P  P16  1  0.00000000  0.00000000  0.67722500  1
  P  P17  1  0.00000000  0.50000000  0.57277500  1
  P  P18  1  0.50000000  0.50000000  0.82277500  1
  P  P19  1  0.00000000  0.50000000  0.92722500  1
  O  O20  1  0.67783400  0.00000000  0.48042300  1
  O  O21  1  0.00000000  0.17948400  0.37469100  1
  O  O22  1  0.32216600  0.00000000  0.48042300  1
  O  O23  1  0.00000000  0.82051600  0.37469100  1
  O  O24  1  0.82216600  0.00000000  0.26957700  1
  O  O25  1  0.50000000  0.82216600  0.01957700  1
  O  O26  1  0.50000000  0.82051600  0.37530900  1
  O  O27  1  0.17783400  0.00000000  0.26957700  1
  O  O28  1  0.32051600  0.00000000  0.12469100  1
  O  O29  1  0.50000000  0.67783400  0.23042300  1
  O  O30  1  0.50000000  0.17783400  0.01957700  1
  O  O31  1  0.50000000  0.32216600  0.23042300  1
  O  O32  1  0.50000000  0.17948400  0.37530900  1
  O  O33  1  0.32051600  0.50000000  0.12530900  1
  O  O34  1  0.67948400  0.00000000  0.12469100  1
  O  O35  1  0.67948400  0.50000000  0.12530900  1
  O  O36  1  0.17783400  0.50000000  0.98042300  1
  O  O37  1  0.50000000  0.67948400  0.87469100  1
  O  O38  1  0.82216600  0.50000000  0.98042300  1
  O  O39  1  0.50000000  0.32051600  0.87469100  1
  O  O40  1  0.32216600  0.50000000  0.76957700  1
  O  O41  1  0.00000000  0.32216600  0.51957700  1
  O  O42  1  0.00000000  0.32051600  0.87530900  1
  O  O43  1  0.67783400  0.50000000  0.76957700  1
  O  O44  1  0.82051600  0.50000000  0.62469100  1
  O  O45  1  0.00000000  0.17783400  0.73042300  1
  O  O46  1  0.00000000  0.67783400  0.51957700  1
  O  O47  1  0.00000000  0.82216600  0.73042300  1
  O  O48  1  0.00000000  0.67948400  0.87530900  1
  O  O49  1  0.82051600  0.00000000  0.62530900  1
  O  O50  1  0.17948400  0.50000000  0.62469100  1
  O  O51  1  0.17948400  0.00000000  0.62530900  1
