# generated using pymatgen
data_P3N5
_symmetry_space_group_name_H-M   'P 1'
_cell_length_a   8.18580000
_cell_length_b   5.89533200
_cell_length_c   9.24051264
_cell_angle_alpha   90.00000000
_cell_angle_beta   115.69643386
_cell_angle_gamma   90.00000000
_symmetry_Int_Tables_number   1
_chemical_formula_structural   P3N5
_chemical_formula_sum   'P12 N20'
_cell_volume   401.82817538
_cell_formula_units_Z   4
loop_
 _symmetry_equiv_pos_site_id
 _symmetry_equiv_pos_as_xyz
  1  'x, y, z'
loop_
 _atom_site_type_symbol
 _atom_site_label
 _atom_site_symmetry_multiplicity
 _atom_site_fract_x
 _atom_site_fract_y
 _atom_site_fract_z
 _atom_site_occupancy
  P  P0  1  0.50000000  0.01802300  0.25000000  1
  P  P1  1  0.63405550  0.70375550  0.55530200  1
  P  P2  1  0.63405550  0.29624450  0.05530200  1
  P  P3  1  0.86594450  0.79624450  0.44469800  1
  P  P4  1  0.86594450  0.20375550  0.94469800  1
  P  P5  1  0.00000000  0.48197700  0.75000000  1
  P  P6  1  0.00000000  0.51802300  0.25000000  1
  P  P7  1  0.13405550  0.20375550  0.55530200  1
  P  P8  1  0.13405550  0.79624450  0.05530200  1
  P  P9  1  0.36594450  0.29624450  0.44469800  1
  P  P10  1  0.36594450  0.70375550  0.94469800  1
  P  P11  1  0.50000000  0.98197700  0.75000000  1
  N  N12  1  0.85506200  0.64418200  0.59974300  1
  N  N13  1  0.63161850  0.13947350  0.19169400  1
  N  N14  1  0.64493800  0.85581800  0.40025700  1
  N  N15  1  0.14493800  0.64418200  0.90025700  1
  N  N16  1  0.86838150  0.63947350  0.30830600  1
  N  N17  1  0.86838150  0.36052650  0.80830600  1
  N  N18  1  0.00000000  0.00000000  0.50000000  1
  N  N19  1  0.35506200  0.85581800  0.09974300  1
  N  N20  1  0.63161850  0.86052650  0.69169400  1
  N  N21  1  0.00000000  0.00000000  0.00000000  1
  N  N22  1  0.35506200  0.14418200  0.59974300  1
  N  N23  1  0.13161850  0.63947350  0.19169400  1
  N  N24  1  0.14493800  0.35581800  0.40025700  1
  N  N25  1  0.64493800  0.14418200  0.90025700  1
  N  N26  1  0.36838150  0.13947350  0.30830600  1
  N  N27  1  0.36838150  0.86052650  0.80830600  1
  N  N28  1  0.50000000  0.50000000  0.50000000  1
  N  N29  1  0.85506200  0.35581800  0.09974300  1
  N  N30  1  0.13161850  0.36052650  0.69169400  1
  N  N31  1  0.50000000  0.50000000  0.00000000  1
