# generated using pymatgen
data_Na5Bi(P2O7)2
_symmetry_space_group_name_H-M   'P 1'
_cell_length_a   7.39154300
_cell_length_b   9.42046534
_cell_length_c   9.94798749
_cell_angle_alpha   81.13778708
_cell_angle_beta   77.75685920
_cell_angle_gamma   70.45298253
_symmetry_Int_Tables_number   1
_chemical_formula_structural   Na5Bi(P2O7)2
_chemical_formula_sum   'Na10 Bi2 P8 O28'
_cell_volume   635.32481847
_cell_formula_units_Z   2
loop_
 _symmetry_equiv_pos_site_id
 _symmetry_equiv_pos_as_xyz
  1  'x, y, z'
loop_
 _atom_site_type_symbol
 _atom_site_label
 _atom_site_symmetry_multiplicity
 _atom_site_fract_x
 _atom_site_fract_y
 _atom_site_fract_z
 _atom_site_occupancy
  Na  Na0  1  0.06283000  0.48669400  0.15871200  1
  Na  Na1  1  0.56780900  0.52405500  0.66110300  1
  Na  Na2  1  0.24564600  0.73485500  0.87961000  1
  Na  Na3  1  0.65477200  0.84837000  0.73132600  1
  Na  Na4  1  0.75435400  0.26514500  0.12039000  1
  Na  Na5  1  0.34522800  0.15163000  0.26867400  1
  Na  Na6  1  0.72286900  0.73593700  0.40354400  1
  Na  Na7  1  0.43219100  0.47594500  0.33889700  1
  Na  Na8  1  0.27713100  0.26406300  0.59645600  1
  Na  Na9  1  0.93717000  0.51330600  0.84128800  1
  Bi  Bi10  1  0.87038300  0.12598700  0.76885200  1
  Bi  Bi11  1  0.12961700  0.87401300  0.23114800  1
  P  P12  1  0.41153400  0.33987200  0.94696700  1
  P  P13  1  0.90214400  0.34724500  0.45469100  1
  P  P14  1  0.82016100  0.86423700  0.03207500  1
  P  P15  1  0.17983900  0.13576300  0.96792500  1
  P  P16  1  0.58846600  0.66012800  0.05303300  1
  P  P17  1  0.28104500  0.88981000  0.54881100  1
  P  P18  1  0.71895500  0.11019000  0.45118900  1
  P  P19  1  0.09785600  0.65275500  0.54530900  1
  O  O20  1  0.96356200  0.76301300  0.13028400  1
  O  O21  1  0.57455800  0.67279000  0.90101800  1
  O  O22  1  0.89838500  0.64700800  0.61872100  1
  O  O23  1  0.03643800  0.23698700  0.86971600  1
  O  O24  1  0.88993900  0.32273400  0.61531900  1
  O  O25  1  0.11006100  0.67726600  0.38468100  1
  O  O26  1  0.60784100  0.33108200  0.84847900  1
  O  O27  1  0.89706400  0.82560500  0.88204500  1
  O  O28  1  0.75621500  0.52401300  0.09294300  1
  O  O29  1  0.42544200  0.32721000  0.09898200  1
  O  O30  1  0.32177800  0.91478300  0.38907700  1
  O  O31  1  0.10293600  0.17439500  0.11795500  1
  O  O32  1  0.46058700  0.78558600  0.60570500  1
  O  O33  1  0.24378500  0.47598700  0.90705700  1
  O  O34  1  0.67822200  0.08521700  0.61092300  1
  O  O35  1  0.81269000  0.96234700  0.38040400  1
  O  O36  1  0.88826900  0.19169300  0.40850700  1
  O  O37  1  0.18731000  0.03765300  0.61959600  1
  O  O38  1  0.23078000  0.96816200  0.95241500  1
  O  O39  1  0.39215900  0.66891800  0.15152100  1
  O  O40  1  0.53941300  0.21441400  0.39429500  1
  O  O41  1  0.27215100  0.52106400  0.58141200  1
  O  O42  1  0.11173100  0.80830700  0.59149300  1
  O  O43  1  0.37642400  0.18410200  0.91365500  1
  O  O44  1  0.76922000  0.03183800  0.04758500  1
  O  O45  1  0.62357600  0.81589800  0.08634500  1
  O  O46  1  0.10161500  0.35299200  0.38127900  1
  O  O47  1  0.72784900  0.47893600  0.41858800  1
