# generated using pymatgen
data_Ni(PO3)4
_symmetry_space_group_name_H-M   'P 1'
_cell_length_a   8.33177900
_cell_length_b   9.19919000
_cell_length_c   12.93440900
_cell_angle_alpha   90.00000000
_cell_angle_beta   90.00000000
_cell_angle_gamma   90.00000000
_symmetry_Int_Tables_number   1
_chemical_formula_structural   Ni(PO3)4
_chemical_formula_sum   'Ni4 P16 O48'
_cell_volume   991.36577203
_cell_formula_units_Z   4
loop_
 _symmetry_equiv_pos_site_id
 _symmetry_equiv_pos_as_xyz
  1  'x, y, z'
loop_
 _atom_site_type_symbol
 _atom_site_label
 _atom_site_symmetry_multiplicity
 _atom_site_fract_x
 _atom_site_fract_y
 _atom_site_fract_z
 _atom_site_occupancy
  Ni  Ni0  1  0.36437100  0.75000000  0.00000000  1
  Ni  Ni1  1  0.86437100  0.75000000  0.50000000  1
  Ni  Ni2  1  0.63562900  0.25000000  0.00000000  1
  Ni  Ni3  1  0.13562900  0.25000000  0.50000000  1
  P  P4  1  0.81545300  0.00661600  0.14282800  1
  P  P5  1  0.45897300  0.48994000  0.85142800  1
  P  P6  1  0.95897300  0.01006000  0.35142800  1
  P  P7  1  0.95897300  0.48994000  0.64857200  1
  P  P8  1  0.31545300  0.49338400  0.64282800  1
  P  P9  1  0.54102700  0.51006000  0.14857200  1
  P  P10  1  0.45897300  0.01006000  0.14857200  1
  P  P11  1  0.04102700  0.51006000  0.35142800  1
  P  P12  1  0.68454700  0.99338400  0.64282800  1
  P  P13  1  0.04102700  0.98994000  0.64857200  1
  P  P14  1  0.81545300  0.49338400  0.85717200  1
  P  P15  1  0.68454700  0.50661600  0.35717200  1
  P  P16  1  0.18454700  0.50661600  0.14282800  1
  P  P17  1  0.18454700  0.99338400  0.85717200  1
  P  P18  1  0.31545300  0.00661600  0.35717200  1
  P  P19  1  0.54102700  0.98994000  0.85142800  1
  O  O20  1  0.96233400  0.37255400  0.56797800  1
  O  O21  1  0.80913300  0.12061500  0.05883900  1
  O  O22  1  0.86173900  0.87438600  0.37109800  1
  O  O23  1  0.13897100  0.96268300  0.31838000  1
  O  O24  1  0.86102900  0.46268300  0.31838000  1
  O  O25  1  0.39229400  0.42049700  0.74488900  1
  O  O26  1  0.36173900  0.62561400  0.87109800  1
  O  O27  1  0.53766600  0.87255400  0.93202200  1
  O  O28  1  0.13826100  0.37438600  0.37109800  1
  O  O29  1  0.90823200  0.62598000  0.89141100  1
  O  O30  1  0.36102900  0.03731700  0.81838000  1
  O  O31  1  0.19086700  0.62061500  0.05883900  1
  O  O32  1  0.86173900  0.62561400  0.62890200  1
  O  O33  1  0.60770600  0.57950300  0.25511100  1
  O  O34  1  0.89229400  0.07950300  0.24488900  1
  O  O35  1  0.59176800  0.37402000  0.39141100  1
  O  O36  1  0.36173900  0.87438600  0.12890200  1
  O  O37  1  0.69086700  0.62061500  0.44116100  1
  O  O38  1  0.10770600  0.57950300  0.24488900  1
  O  O39  1  0.89229400  0.42049700  0.75511100  1
  O  O40  1  0.03766600  0.62744600  0.43202200  1
  O  O41  1  0.86102900  0.03731700  0.68162000  1
  O  O42  1  0.19086700  0.87938500  0.94116100  1
  O  O43  1  0.63897100  0.96268300  0.18162000  1
  O  O44  1  0.63897100  0.53731700  0.81838000  1
  O  O45  1  0.36102900  0.46268300  0.18162000  1
  O  O46  1  0.09176800  0.12598000  0.89141100  1
  O  O47  1  0.63826100  0.12561400  0.87109800  1
  O  O48  1  0.30913300  0.12061500  0.44116100  1
  O  O49  1  0.80913300  0.37938500  0.94116100  1
  O  O50  1  0.40823200  0.87402000  0.39141100  1
  O  O51  1  0.03766600  0.87255400  0.56797800  1
  O  O52  1  0.40823200  0.62598000  0.60858900  1
  O  O53  1  0.69086700  0.87938500  0.55883900  1
  O  O54  1  0.30913300  0.37938500  0.55883900  1
  O  O55  1  0.46233400  0.12744600  0.06797800  1
  O  O56  1  0.46233400  0.37255400  0.93202200  1
  O  O57  1  0.13897100  0.53731700  0.68162000  1
  O  O58  1  0.09176800  0.37402000  0.10858900  1
  O  O59  1  0.59176800  0.12598000  0.60858900  1
  O  O60  1  0.10770600  0.92049700  0.75511100  1
  O  O61  1  0.96233400  0.12744600  0.43202200  1
  O  O62  1  0.63826100  0.37438600  0.12890200  1
  O  O63  1  0.39229400  0.07950300  0.25511100  1
  O  O64  1  0.60770600  0.92049700  0.74488900  1
  O  O65  1  0.90823200  0.87402000  0.10858900  1
  O  O66  1  0.13826100  0.12561400  0.62890200  1
  O  O67  1  0.53766600  0.62744600  0.06797800  1
