# generated using pymatgen
data_LiScAs2O7
_symmetry_space_group_name_H-M   'P 1'
_cell_length_a   6.89753400
_cell_length_b   8.68476800
_cell_length_c   4.92034217
_cell_angle_alpha   90.00000000
_cell_angle_beta   103.95289422
_cell_angle_gamma   90.00000000
_symmetry_Int_Tables_number   1
_chemical_formula_structural   LiScAs2O7
_chemical_formula_sum   'Li2 Sc2 As4 O14'
_cell_volume   286.04895341
_cell_formula_units_Z   2
loop_
 _symmetry_equiv_pos_site_id
 _symmetry_equiv_pos_as_xyz
  1  'x, y, z'
loop_
 _atom_site_type_symbol
 _atom_site_label
 _atom_site_symmetry_multiplicity
 _atom_site_fract_x
 _atom_site_fract_y
 _atom_site_fract_z
 _atom_site_occupancy
  Li  Li0  1  0.50000000  0.25133300  0.00000000  1
  Li  Li1  1  0.00000000  0.75133300  0.00000000  1
  Sc  Sc2  1  0.50000000  0.87050500  0.00000000  1
  Sc  Sc3  1  0.00000000  0.37050500  0.00000000  1
  As  As4  1  0.21678800  0.03708500  0.40888200  1
  As  As5  1  0.78321200  0.03708500  0.59111800  1
  As  As6  1  0.71678800  0.53708500  0.40888200  1
  As  As7  1  0.28321200  0.53708500  0.59111800  1
  O  O8  1  0.38911250  0.05469750  0.72094200  1
  O  O9  1  0.67580250  0.71043450  0.24900100  1
  O  O10  1  0.50000000  0.46359400  0.50000000  1
  O  O11  1  0.75186900  0.89288700  0.81350900  1
  O  O12  1  0.24813100  0.89288700  0.18649100  1
  O  O13  1  0.61088750  0.05469750  0.27905800  1
  O  O14  1  0.32419750  0.71043450  0.75099900  1
  O  O15  1  0.88911250  0.55469750  0.72094200  1
  O  O16  1  0.17580250  0.21043450  0.24900100  1
  O  O17  1  0.00000000  0.96359400  0.50000000  1
  O  O18  1  0.25186900  0.39288700  0.81350900  1
  O  O19  1  0.74813100  0.39288700  0.18649100  1
  O  O20  1  0.11088750  0.55469750  0.27905800  1
  O  O21  1  0.82419750  0.21043450  0.75099900  1
