# generated using pymatgen
data_NiPtF6
_symmetry_space_group_name_H-M   'P 1'
_cell_length_a   5.05858611
_cell_length_b   5.05858611
_cell_length_c   13.79153491
_cell_angle_alpha   90.00000000
_cell_angle_beta   90.00000000
_cell_angle_gamma   120.00000000
_symmetry_Int_Tables_number   1
_chemical_formula_structural   NiPtF6
_chemical_formula_sum   'Ni3 Pt3 F18'
_cell_volume   305.63390436
_cell_formula_units_Z   3
loop_
 _symmetry_equiv_pos_site_id
 _symmetry_equiv_pos_as_xyz
  1  'x, y, z'
loop_
 _atom_site_type_symbol
 _atom_site_label
 _atom_site_symmetry_multiplicity
 _atom_site_fract_x
 _atom_site_fract_y
 _atom_site_fract_z
 _atom_site_occupancy
  Ni  Ni0  1  0.00000000  0.00000000  0.00000000  1
  Ni  Ni1  1  0.66666667  0.33333333  0.33333333  1
  Ni  Ni2  1  0.33333333  0.66666667  0.66666667  1
  Pt  Pt3  1  0.33333333  0.66666667  0.16666667  1
  Pt  Pt4  1  1.00000000  0.00000000  0.50000000  1
  Pt  Pt5  1  0.66666667  0.33333333  0.83333333  1
  F  F6  1  0.00576767  0.64856233  0.24925833  1
  F  F7  1  0.35143767  0.35720533  0.24925833  1
  F  F8  1  0.02387200  0.33910100  0.08407500  1
  F  F9  1  0.31522900  0.97612800  0.08407500  1
  F  F10  1  0.66089900  0.68477100  0.08407500  1
  F  F11  1  0.64279467  0.99423233  0.24925833  1
  F  F12  1  0.67243433  0.98189567  0.58259167  1
  F  F13  1  0.01810433  0.69053867  0.58259167  1
  F  F14  1  0.69053867  0.67243433  0.41740833  1
  F  F15  1  0.98189567  0.30946133  0.41740833  1
  F  F16  1  0.32756567  0.01810433  0.41740833  1
  F  F17  1  0.30946133  0.32756567  0.58259167  1
  F  F18  1  0.33910100  0.31522900  0.91592500  1
  F  F19  1  0.68477100  0.02387200  0.91592500  1
  F  F20  1  0.35720533  0.00576767  0.75074167  1
  F  F21  1  0.64856233  0.64279467  0.75074167  1
  F  F22  1  0.99423233  0.35143767  0.75074167  1
  F  F23  1  0.97612800  0.66089900  0.91592500  1
