# generated using pymatgen
data_MoS2N2Cl5
_symmetry_space_group_name_H-M   'P 1'
_cell_length_a   7.34769600
_cell_length_b   7.68337531
_cell_length_c   10.20051715
_cell_angle_alpha   75.16119574
_cell_angle_beta   81.33174351
_cell_angle_gamma   84.61792034
_symmetry_Int_Tables_number   1
_chemical_formula_structural   MoS2N2Cl5
_chemical_formula_sum   'Mo2 S4 N4 Cl10'
_cell_volume   549.38871885
_cell_formula_units_Z   2
loop_
 _symmetry_equiv_pos_site_id
 _symmetry_equiv_pos_as_xyz
  1  'x, y, z'
loop_
 _atom_site_type_symbol
 _atom_site_label
 _atom_site_symmetry_multiplicity
 _atom_site_fract_x
 _atom_site_fract_y
 _atom_site_fract_z
 _atom_site_occupancy
  Mo  Mo0  1  0.19430700  0.15546200  0.23431700  1
  Mo  Mo1  1  0.80569300  0.84453800  0.76568300  1
  S  S2  1  0.96861000  0.58895700  0.08373200  1
  S  S3  1  0.03139000  0.41104300  0.91626800  1
  S  S4  1  0.39069000  0.80862200  0.44888400  1
  S  S5  1  0.60931000  0.19137800  0.55111600  1
  N  N6  1  0.70167700  0.02725900  0.64886900  1
  N  N7  1  0.06254900  0.38634100  0.07742400  1
  N  N8  1  0.29832300  0.97274100  0.35113100  1
  N  N9  1  0.93745100  0.61365900  0.92257600  1
  Cl  Cl10  1  0.90468600  0.63788200  0.63401900  1
  Cl  Cl11  1  0.51147700  0.64645700  0.32332900  1
  Cl  Cl12  1  0.23689000  0.04070300  0.04106400  1
  Cl  Cl13  1  0.52908200  0.69525200  0.84355700  1
  Cl  Cl14  1  0.76311000  0.95929700  0.95893600  1
  Cl  Cl15  1  0.09531400  0.36211800  0.36598100  1
  Cl  Cl16  1  0.10243700  0.96240600  0.70565600  1
  Cl  Cl17  1  0.48852300  0.35354300  0.67667100  1
  Cl  Cl18  1  0.89756300  0.03759400  0.29434400  1
  Cl  Cl19  1  0.47091800  0.30474800  0.15644300  1
