# generated using pymatgen
data_SbSe9Cl7
_symmetry_space_group_name_H-M   'P 1'
_cell_length_a   12.54356600
_cell_length_b   13.07007700
_cell_length_c   15.18245864
_cell_angle_alpha   90.00000000
_cell_angle_beta   114.75766241
_cell_angle_gamma   90.00000000
_symmetry_Int_Tables_number   1
_chemical_formula_structural   SbSe9Cl7
_chemical_formula_sum   'Sb4 Se36 Cl28'
_cell_volume   2260.31420831
_cell_formula_units_Z   4
loop_
 _symmetry_equiv_pos_site_id
 _symmetry_equiv_pos_as_xyz
  1  'x, y, z'
loop_
 _atom_site_type_symbol
 _atom_site_label
 _atom_site_symmetry_multiplicity
 _atom_site_fract_x
 _atom_site_fract_y
 _atom_site_fract_z
 _atom_site_occupancy
  Sb  Sb0  1  0.69631900  0.16718800  0.41268700  1
  Sb  Sb1  1  0.69631900  0.33281200  0.91268700  1
  Sb  Sb2  1  0.30368100  0.83281200  0.58731300  1
  Sb  Sb3  1  0.30368100  0.66718800  0.08731300  1
  Se  Se4  1  0.61255200  0.74758700  0.42515200  1
  Se  Se5  1  0.23114600  0.23622500  0.64293300  1
  Se  Se6  1  0.95605800  0.67310600  0.75461000  1
  Se  Se7  1  0.69013000  0.96920200  0.11327200  1
  Se  Se8  1  0.23114600  0.26377500  0.14293300  1
  Se  Se9  1  0.38744800  0.24758700  0.07484800  1
  Se  Se10  1  0.95605800  0.82689400  0.25461000  1
  Se  Se11  1  0.87064100  0.61739500  0.40456600  1
  Se  Se12  1  0.91155600  0.69985600  0.13127300  1
  Se  Se13  1  0.04394200  0.32689400  0.24539000  1
  Se  Se14  1  0.37841600  0.05936400  0.05054000  1
  Se  Se15  1  0.76885400  0.76377500  0.35706700  1
  Se  Se16  1  0.10202100  0.48170200  0.33079900  1
  Se  Se17  1  0.89797900  0.51829800  0.66920100  1
  Se  Se18  1  0.28926500  0.17343000  0.41863800  1
  Se  Se19  1  0.08844400  0.19985600  0.36872700  1
  Se  Se20  1  0.30987000  0.46920200  0.38672800  1
  Se  Se21  1  0.69013000  0.53079800  0.61327200  1
  Se  Se22  1  0.08844400  0.30014400  0.86872700  1
  Se  Se23  1  0.28926500  0.32657000  0.91863800  1
  Se  Se24  1  0.91155600  0.80014400  0.63127300  1
  Se  Se25  1  0.71073500  0.82657000  0.58136200  1
  Se  Se26  1  0.71073500  0.67343000  0.08136200  1
  Se  Se27  1  0.12935900  0.38260500  0.59543400  1
  Se  Se28  1  0.89797900  0.98170200  0.16920100  1
  Se  Se29  1  0.38744800  0.25241300  0.57484800  1
  Se  Se30  1  0.30987000  0.03079800  0.88672800  1
  Se  Se31  1  0.62158400  0.94063600  0.94946000  1
  Se  Se32  1  0.62158400  0.55936400  0.44946000  1
  Se  Se33  1  0.61255200  0.75241300  0.92515200  1
  Se  Se34  1  0.76885400  0.73622500  0.85706700  1
  Se  Se35  1  0.10202100  0.01829800  0.83079900  1
  Se  Se36  1  0.12935900  0.11739500  0.09543400  1
  Se  Se37  1  0.87064100  0.88260500  0.90456600  1
  Se  Se38  1  0.37841600  0.44063600  0.55054000  1
  Se  Se39  1  0.04394200  0.17310600  0.74539000  1
  Cl  Cl40  1  0.53833600  0.20849300  0.85296100  1
  Cl  Cl41  1  0.46166400  0.70849300  0.64703900  1
  Cl  Cl42  1  0.82968600  0.20004500  0.00913600  1
  Cl  Cl43  1  0.14416300  0.95421700  0.52661600  1
  Cl  Cl44  1  0.35632500  0.87147700  0.45562700  1
  Cl  Cl45  1  0.25558400  0.79272500  0.72114700  1
  Cl  Cl46  1  0.14416300  0.54578300  0.02661600  1
  Cl  Cl47  1  0.78730200  0.50477000  0.28556900  1
  Cl  Cl48  1  0.78730200  0.99523000  0.78556900  1
  Cl  Cl49  1  0.25558400  0.70727500  0.22114700  1
  Cl  Cl50  1  0.53833600  0.29150700  0.35296100  1
  Cl  Cl51  1  0.35632500  0.62852300  0.95562700  1
  Cl  Cl52  1  0.17031400  0.70004500  0.49086400  1
  Cl  Cl53  1  0.43590800  0.53445000  0.18443300  1
  Cl  Cl54  1  0.56409200  0.46555000  0.81556700  1
  Cl  Cl55  1  0.85583700  0.45421700  0.97338400  1
  Cl  Cl56  1  0.21269800  0.00477000  0.21443100  1
  Cl  Cl57  1  0.64367500  0.37147700  0.04437300  1
  Cl  Cl58  1  0.82968600  0.29995500  0.50913600  1
  Cl  Cl59  1  0.46166400  0.79150700  0.14703900  1
  Cl  Cl60  1  0.74441600  0.20727500  0.27885300  1
  Cl  Cl61  1  0.64367500  0.12852300  0.54437300  1
  Cl  Cl62  1  0.85583700  0.04578300  0.47338400  1
  Cl  Cl63  1  0.21269800  0.49523000  0.71443100  1
  Cl  Cl64  1  0.74441600  0.29272500  0.77885300  1
  Cl  Cl65  1  0.56409200  0.03445000  0.31556700  1
  Cl  Cl66  1  0.43590800  0.96555000  0.68443300  1
  Cl  Cl67  1  0.17031400  0.79995500  0.99086400  1
