# generated using pymatgen
data_Mg3B(OF)3
_symmetry_space_group_name_H-M   'P 1'
_cell_length_a   8.89948222
_cell_length_b   8.89948222
_cell_length_c   3.14100400
_cell_angle_alpha   90.00000000
_cell_angle_beta   90.00000000
_cell_angle_gamma   120.00000000
_symmetry_Int_Tables_number   1
_chemical_formula_structural   Mg3B(OF)3
_chemical_formula_sum   'Mg6 B2 O6 F6'
_cell_volume   215.44112121
_cell_formula_units_Z   2
loop_
 _symmetry_equiv_pos_site_id
 _symmetry_equiv_pos_as_xyz
  1  'x, y, z'
loop_
 _atom_site_type_symbol
 _atom_site_label
 _atom_site_symmetry_multiplicity
 _atom_site_fract_x
 _atom_site_fract_y
 _atom_site_fract_z
 _atom_site_occupancy
  Mg  Mg0  1  0.02992900  0.66306400  0.75000000  1
  Mg  Mg1  1  0.66306400  0.63313500  0.25000000  1
  Mg  Mg2  1  0.97007100  0.33693600  0.25000000  1
  Mg  Mg3  1  0.63313500  0.97007100  0.75000000  1
  Mg  Mg4  1  0.33693600  0.36686500  0.75000000  1
  Mg  Mg5  1  0.36686500  0.02992900  0.25000000  1
  B  B6  1  0.66666667  0.33333333  0.75000000  1
  B  B7  1  0.33333333  0.66666667  0.25000000  1
  O  O8  1  0.84519500  0.39602500  0.75000000  1
  O  O9  1  0.39602500  0.55083000  0.25000000  1
  O  O10  1  0.55083000  0.15480500  0.75000000  1
  O  O11  1  0.44917000  0.84519500  0.25000000  1
  O  O12  1  0.15480500  0.60397500  0.25000000  1
  O  O13  1  0.60397500  0.44917000  0.75000000  1
  F  F14  1  0.78988000  0.08918700  0.25000000  1
  F  F15  1  0.91081300  0.70069300  0.25000000  1
  F  F16  1  0.21012000  0.91081300  0.75000000  1
  F  F17  1  0.70069300  0.78988000  0.75000000  1
  F  F18  1  0.08918700  0.29930700  0.75000000  1
  F  F19  1  0.29930700  0.21012000  0.25000000  1
