# generated using pymatgen
data_LiZr2(PO4)3
_symmetry_space_group_name_H-M   'P 1'
_cell_length_a   8.93876573
_cell_length_b   8.93876573
_cell_length_c   22.33246318
_cell_angle_alpha   90.00000000
_cell_angle_beta   90.00000000
_cell_angle_gamma   120.00000000
_symmetry_Int_Tables_number   1
_chemical_formula_structural   LiZr2(PO4)3
_chemical_formula_sum   'Li6 Zr12 P18 O72'
_cell_volume   1545.33403287
_cell_formula_units_Z   6
loop_
 _symmetry_equiv_pos_site_id
 _symmetry_equiv_pos_as_xyz
  1  'x, y, z'
loop_
 _atom_site_type_symbol
 _atom_site_label
 _atom_site_symmetry_multiplicity
 _atom_site_fract_x
 _atom_site_fract_y
 _atom_site_fract_z
 _atom_site_occupancy
  Li  Li0  1  0.00000000  0.00000000  0.00000000  1
  Li  Li1  1  0.33333333  0.66666667  0.16666667  1
  Li  Li2  1  0.66666667  0.33333333  0.33333333  1
  Li  Li3  1  0.00000000  0.00000000  0.50000000  1
  Li  Li4  1  0.33333333  0.66666667  0.66666667  1
  Li  Li5  1  0.66666667  0.33333333  0.83333333  1
  Zr  Zr6  1  0.00000000  0.00000000  0.14331800  1
  Zr  Zr7  1  0.33333333  0.66666667  0.02334867  1
  Zr  Zr8  1  0.66666667  0.33333333  0.19001533  1
  Zr  Zr9  1  0.33333333  0.66666667  0.30998467  1
  Zr  Zr10  1  0.66666667  0.33333333  0.47665133  1
  Zr  Zr11  1  0.00000000  0.00000000  0.35668200  1
  Zr  Zr12  1  0.33333333  0.66666667  0.52334867  1
  Zr  Zr13  1  0.00000000  0.00000000  0.64331800  1
  Zr  Zr14  1  0.33333333  0.66666667  0.80998467  1
  Zr  Zr15  1  0.66666667  0.33333333  0.69001533  1
  Zr  Zr16  1  0.00000000  0.00000000  0.85668200  1
  Zr  Zr17  1  0.66666667  0.33333333  0.97665133  1
  P  P18  1  0.70640900  0.00000000  0.25000000  1
  P  P19  1  0.29359100  0.29359100  0.25000000  1
  P  P20  1  0.00000000  0.70640900  0.25000000  1
  P  P21  1  0.96025767  0.33333333  0.08333333  1
  P  P22  1  0.37307567  0.03974233  0.08333333  1
  P  P23  1  0.66666667  0.62692433  0.08333333  1
  P  P24  1  0.37307567  0.33333333  0.58333333  1
  P  P25  1  0.96025767  0.62692433  0.58333333  1
  P  P26  1  0.66666667  0.03974233  0.58333333  1
  P  P27  1  0.62692433  0.66666667  0.41666667  1
  P  P28  1  0.03974233  0.37307567  0.41666667  1
  P  P29  1  0.33333333  0.96025767  0.41666667  1
  P  P30  1  0.03974233  0.66666667  0.91666667  1
  P  P31  1  0.62692433  0.96025767  0.91666667  1
  P  P32  1  0.33333333  0.37307567  0.91666667  1
  P  P33  1  0.29359100  0.00000000  0.75000000  1
  P  P34  1  0.70640900  0.70640900  0.75000000  1
  P  P35  1  0.00000000  0.29359100  0.75000000  1
  O  O36  1  0.80473000  0.99750300  0.19358500  1
  O  O37  1  0.19277300  0.19527000  0.19358500  1
  O  O38  1  0.00249700  0.80722700  0.19358500  1
  O  O39  1  0.80722700  0.00249700  0.30641500  1
  O  O40  1  0.19527000  0.19277300  0.30641500  1
  O  O41  1  0.99750300  0.80473000  0.30641500  1
  O  O42  1  0.86193667  0.33583033  0.13974833  1
  O  O43  1  0.47389367  0.13806333  0.13974833  1
  O  O44  1  0.66416967  0.52610633  0.13974833  1
  O  O45  1  0.85943967  0.33083633  0.02691833  1
  O  O46  1  0.47139667  0.14056033  0.02691833  1
  O  O47  1  0.66916367  0.52860333  0.02691833  1
  O  O48  1  0.97893700  0.17019800  0.08146700  1
  O  O49  1  0.19126100  0.02106300  0.08146700  1
  O  O50  1  0.82980200  0.80873900  0.08146700  1
  O  O51  1  0.14207233  0.49646867  0.08519967  1
  O  O52  1  0.35439633  0.85792767  0.08519967  1
  O  O53  1  0.50353133  0.64560367  0.08519967  1
  O  O54  1  0.68772967  0.16313533  0.25186633  1
  O  O55  1  0.47540567  0.31227033  0.25186633  1
  O  O56  1  0.83686467  0.52459433  0.25186633  1
  O  O57  1  0.52459433  0.83686467  0.24813367  1
  O  O58  1  0.31227033  0.47540567  0.24813367  1
  O  O59  1  0.16313533  0.68772967  0.24813367  1
  O  O60  1  0.47139667  0.33083633  0.52691833  1
  O  O61  1  0.85943967  0.52860333  0.52691833  1
  O  O62  1  0.66916367  0.14056033  0.52691833  1
  O  O63  1  0.47389367  0.33583033  0.63974833  1
  O  O64  1  0.86193667  0.52610633  0.63974833  1
  O  O65  1  0.66416967  0.13806333  0.63974833  1
  O  O66  1  0.52860333  0.66916367  0.47308167  1
  O  O67  1  0.14056033  0.47139667  0.47308167  1
  O  O68  1  0.33083633  0.85943967  0.47308167  1
  O  O69  1  0.52610633  0.66416967  0.36025167  1
  O  O70  1  0.13806333  0.47389367  0.36025167  1
  O  O71  1  0.33583033  0.86193667  0.36025167  1
  O  O72  1  0.64560367  0.50353133  0.41480033  1
  O  O73  1  0.85792767  0.35439633  0.41480033  1
  O  O74  1  0.49646867  0.14207233  0.41480033  1
  O  O75  1  0.80873900  0.82980200  0.41853300  1
  O  O76  1  0.02106300  0.19126100  0.41853300  1
  O  O77  1  0.17019800  0.97893700  0.41853300  1
  O  O78  1  0.35439633  0.49646867  0.58519967  1
  O  O79  1  0.14207233  0.64560367  0.58519967  1
  O  O80  1  0.50353133  0.85792767  0.58519967  1
  O  O81  1  0.19126100  0.17019800  0.58146700  1
  O  O82  1  0.97893700  0.80873900  0.58146700  1
  O  O83  1  0.82980200  0.02106300  0.58146700  1
  O  O84  1  0.13806333  0.66416967  0.86025167  1
  O  O85  1  0.52610633  0.86193667  0.86025167  1
  O  O86  1  0.33583033  0.47389367  0.86025167  1
  O  O87  1  0.14056033  0.66916367  0.97308167  1
  O  O88  1  0.52860333  0.85943967  0.97308167  1
  O  O89  1  0.33083633  0.47139667  0.97308167  1
  O  O90  1  0.19527000  0.00249700  0.80641500  1
  O  O91  1  0.80722700  0.80473000  0.80641500  1
  O  O92  1  0.99750300  0.19277300  0.80641500  1
  O  O93  1  0.19277300  0.99750300  0.69358500  1
  O  O94  1  0.80473000  0.80722700  0.69358500  1
  O  O95  1  0.00249700  0.19527000  0.69358500  1
  O  O96  1  0.31227033  0.83686467  0.74813367  1
  O  O97  1  0.52459433  0.68772967  0.74813367  1
  O  O98  1  0.16313533  0.47540567  0.74813367  1
  O  O99  1  0.47540567  0.16313533  0.75186633  1
  O  O100  1  0.68772967  0.52459433  0.75186633  1
  O  O101  1  0.83686467  0.31227033  0.75186633  1
  O  O102  1  0.02106300  0.82980200  0.91853300  1
  O  O103  1  0.80873900  0.97893700  0.91853300  1
  O  O104  1  0.17019800  0.19126100  0.91853300  1
  O  O105  1  0.85792767  0.50353133  0.91480033  1
  O  O106  1  0.64560367  0.14207233  0.91480033  1
  O  O107  1  0.49646867  0.35439633  0.91480033  1
