# generated using pymatgen
data_Sc(PO3)3
_symmetry_space_group_name_H-M   'P 1'
_cell_length_a   14.57225200
_cell_length_b   14.57225200
_cell_length_c   14.57225200
_cell_angle_alpha   90.00000000
_cell_angle_beta   90.00000000
_cell_angle_gamma   90.00000000
_symmetry_Int_Tables_number   1
_chemical_formula_structural   Sc(PO3)3
_chemical_formula_sum   'Sc16 P48 O144'
_cell_volume   3094.42541147
_cell_formula_units_Z   16
loop_
 _symmetry_equiv_pos_site_id
 _symmetry_equiv_pos_as_xyz
  1  'x, y, z'
loop_
 _atom_site_type_symbol
 _atom_site_label
 _atom_site_symmetry_multiplicity
 _atom_site_fract_x
 _atom_site_fract_y
 _atom_site_fract_z
 _atom_site_occupancy
  Sc  Sc0  1  0.35391200  0.35391200  0.35391200  1
  Sc  Sc1  1  0.89608800  0.39608800  0.10391200  1
  Sc  Sc2  1  0.39608800  0.10391200  0.89608800  1
  Sc  Sc3  1  0.10391200  0.89608800  0.39608800  1
  Sc  Sc4  1  0.64608800  0.85391200  0.14608800  1
  Sc  Sc5  1  0.85391200  0.14608800  0.64608800  1
  Sc  Sc6  1  0.14608800  0.64608800  0.85391200  1
  Sc  Sc7  1  0.10391200  0.10391200  0.10391200  1
  Sc  Sc8  1  0.85391200  0.85391200  0.85391200  1
  Sc  Sc9  1  0.39608800  0.89608800  0.60391200  1
  Sc  Sc10  1  0.89608800  0.60391200  0.39608800  1
  Sc  Sc11  1  0.60391200  0.39608800  0.89608800  1
  Sc  Sc12  1  0.14608800  0.35391200  0.64608800  1
  Sc  Sc13  1  0.35391200  0.64608800  0.14608800  1
  Sc  Sc14  1  0.64608800  0.14608800  0.35391200  1
  Sc  Sc15  1  0.60391200  0.60391200  0.60391200  1
  P  P16  1  0.58333900  0.37449300  0.29495500  1
  P  P17  1  0.12550700  0.70504500  0.08333900  1
  P  P18  1  0.20504500  0.41666100  0.87449300  1
  P  P19  1  0.41666100  0.12550700  0.29495500  1
  P  P20  1  0.12550700  0.29495500  0.41666100  1
  P  P21  1  0.29495500  0.41666100  0.12550700  1
  P  P22  1  0.12449300  0.33333900  0.04495500  1
  P  P23  1  0.37550700  0.33333900  0.95504500  1
  P  P24  1  0.62449300  0.16666100  0.95504500  1
  P  P25  1  0.66666100  0.54495500  0.37550700  1
  P  P26  1  0.54495500  0.37550700  0.66666100  1
  P  P27  1  0.04495500  0.12449300  0.33333900  1
  P  P28  1  0.33333900  0.95504500  0.37550700  1
  P  P29  1  0.95504500  0.62449300  0.16666100  1
  P  P30  1  0.33333900  0.04495500  0.12449300  1
  P  P31  1  0.95504500  0.37550700  0.33333900  1
  P  P32  1  0.16666100  0.95504500  0.62449300  1
  P  P33  1  0.08333900  0.12550700  0.70504500  1
  P  P34  1  0.41666100  0.87449300  0.20504500  1
  P  P35  1  0.87449300  0.20504500  0.41666100  1
  P  P36  1  0.37449300  0.29495500  0.58333900  1
  P  P37  1  0.29495500  0.58333900  0.37449300  1
  P  P38  1  0.70504500  0.08333900  0.12550700  1
  P  P39  1  0.37550700  0.66666100  0.54495500  1
  P  P40  1  0.08333900  0.87449300  0.79495500  1
  P  P41  1  0.62550700  0.20504500  0.58333900  1
  P  P42  1  0.70504500  0.91666100  0.37449300  1
  P  P43  1  0.91666100  0.62550700  0.79495500  1
  P  P44  1  0.62550700  0.79495500  0.91666100  1
  P  P45  1  0.79495500  0.91666100  0.62550700  1
  P  P46  1  0.62449300  0.83333900  0.54495500  1
  P  P47  1  0.87550700  0.83333900  0.45504500  1
  P  P48  1  0.12449300  0.66666100  0.45504500  1
  P  P49  1  0.16666100  0.04495500  0.87550700  1
  P  P50  1  0.04495500  0.87550700  0.16666100  1
  P  P51  1  0.54495500  0.62449300  0.83333900  1
  P  P52  1  0.83333900  0.45504500  0.87550700  1
  P  P53  1  0.45504500  0.12449300  0.66666100  1
  P  P54  1  0.83333900  0.54495500  0.62449300  1
  P  P55  1  0.45504500  0.87550700  0.83333900  1
  P  P56  1  0.66666100  0.45504500  0.12449300  1
  P  P57  1  0.58333900  0.62550700  0.20504500  1
  P  P58  1  0.91666100  0.37449300  0.70504500  1
  P  P59  1  0.37449300  0.70504500  0.91666100  1
  P  P60  1  0.87449300  0.79495500  0.08333900  1
  P  P61  1  0.79495500  0.08333900  0.87449300  1
  P  P62  1  0.20504500  0.58333900  0.62550700  1
  P  P63  1  0.87550700  0.16666100  0.04495500  1
  O  O64  1  0.61464550  0.27768850  0.30627750  1
  O  O65  1  0.22231150  0.69372250  0.11464550  1
  O  O66  1  0.69372250  0.88535450  0.27768850  1
  O  O67  1  0.38535450  0.22231150  0.30627750  1
  O  O68  1  0.22231150  0.30627750  0.38535450  1
  O  O69  1  0.30627750  0.38535450  0.22231150  1
  O  O70  1  0.02768850  0.36464550  0.05627750  1
  O  O71  1  0.47231150  0.36464550  0.94372250  1
  O  O72  1  0.52768850  0.13535450  0.94372250  1
  O  O73  1  0.13535450  0.05627750  0.97231150  1
  O  O74  1  0.05627750  0.97231150  0.13535450  1
  O  O75  1  0.05627750  0.02768850  0.36464550  1
  O  O76  1  0.36464550  0.94372250  0.47231150  1
  O  O77  1  0.94372250  0.52768850  0.13535450  1
  O  O78  1  0.36464550  0.05627750  0.02768850  1
  O  O79  1  0.94372250  0.47231150  0.36464550  1
  O  O80  1  0.13535450  0.94372250  0.52768850  1
  O  O81  1  0.11464550  0.22231150  0.69372250  1
  O  O82  1  0.88535450  0.27768850  0.69372250  1
  O  O83  1  0.27768850  0.69372250  0.88535450  1
  O  O84  1  0.27768850  0.30627750  0.61464550  1
  O  O85  1  0.30627750  0.61464550  0.27768850  1
  O  O86  1  0.69372250  0.11464550  0.22231150  1
  O  O87  1  0.97231150  0.13535450  0.05627750  1
  O  O88  1  0.48735900  0.39885800  0.32252500  1
  O  O89  1  0.64885800  0.26264100  0.92747500  1
  O  O90  1  0.10114200  0.67747500  0.98735900  1
  O  O91  1  0.51264100  0.10114200  0.32252500  1
  O  O92  1  0.10114200  0.32252500  0.51264100  1
  O  O93  1  0.32252500  0.51264100  0.10114200  1
  O  O94  1  0.14885800  0.23735900  0.07252500  1
  O  O95  1  0.35114200  0.23735900  0.92747500  1
  O  O96  1  0.34661900  0.65684600  0.43836300  1
  O  O97  1  0.81163700  0.09315400  0.09661900  1
  O  O98  1  0.18836300  0.59315400  0.40338100  1
  O  O99  1  0.40338100  0.18836300  0.59315400  1
  O  O100  1  0.90338100  0.31163700  0.40684600  1
  O  O101  1  0.40684600  0.90338100  0.31163700  1
  O  O102  1  0.09315400  0.09661900  0.81163700  1
  O  O103  1  0.15684600  0.06163700  0.65338100  1
  O  O104  1  0.06163700  0.34661900  0.34315400  1
  O  O105  1  0.34315400  0.93836300  0.15338100  1
  O  O106  1  0.06163700  0.65338100  0.15684600  1
  O  O107  1  0.34315400  0.06163700  0.34661900  1
  O  O108  1  0.93836300  0.15338100  0.34315400  1
  O  O109  1  0.43836300  0.34661900  0.65684600  1
  O  O110  1  0.65684600  0.43836300  0.34661900  1
  O  O111  1  0.65338100  0.15684600  0.06163700  1
  O  O112  1  0.34661900  0.34315400  0.06163700  1
  O  O113  1  0.15338100  0.34315400  0.93836300  1
  O  O114  1  0.18836300  0.40684600  0.09661900  1
  O  O115  1  0.09661900  0.18836300  0.40684600  1
  O  O116  1  0.40684600  0.09661900  0.18836300  1
  O  O117  1  0.31163700  0.40684600  0.90338100  1
  O  O118  1  0.09661900  0.81163700  0.09315400  1
  O  O119  1  0.59315400  0.40338100  0.18836300  1
  O  O120  1  0.35114200  0.76264100  0.57252500  1
  O  O121  1  0.67747500  0.98735900  0.10114200  1
  O  O122  1  0.32252500  0.48735900  0.39885800  1
  O  O123  1  0.39885800  0.32252500  0.48735900  1
  O  O124  1  0.89885800  0.17747500  0.51264100  1
  O  O125  1  0.51264100  0.89885800  0.17747500  1
  O  O126  1  0.98735900  0.10114200  0.67747500  1
  O  O127  1  0.26264100  0.92747500  0.64885800  1
  O  O128  1  0.92747500  0.35114200  0.23735900  1
  O  O129  1  0.23735900  0.07252500  0.14885800  1
  O  O130  1  0.92747500  0.64885800  0.26264100  1
  O  O131  1  0.23735900  0.92747500  0.35114200  1
  O  O132  1  0.07252500  0.14885800  0.23735900  1
  O  O133  1  0.57252500  0.35114200  0.76264100  1
  O  O134  1  0.76264100  0.57252500  0.35114200  1
  O  O135  1  0.17747500  0.51264100  0.89885800  1
  O  O136  1  0.11464550  0.77768850  0.80627750  1
  O  O137  1  0.72231150  0.19372250  0.61464550  1
  O  O138  1  0.19372250  0.38535450  0.77768850  1
  O  O139  1  0.88535450  0.72231150  0.80627750  1
  O  O140  1  0.72231150  0.80627750  0.88535450  1
  O  O141  1  0.80627750  0.88535450  0.72231150  1
  O  O142  1  0.52768850  0.86464550  0.55627750  1
  O  O143  1  0.97231150  0.86464550  0.44372250  1
  O  O144  1  0.02768850  0.63535450  0.44372250  1
  O  O145  1  0.63535450  0.55627750  0.47231150  1
  O  O146  1  0.55627750  0.47231150  0.63535450  1
  O  O147  1  0.55627750  0.52768850  0.86464550  1
  O  O148  1  0.86464550  0.44372250  0.97231150  1
  O  O149  1  0.44372250  0.02768850  0.63535450  1
  O  O150  1  0.86464550  0.55627750  0.52768850  1
  O  O151  1  0.44372250  0.97231150  0.86464550  1
  O  O152  1  0.63535450  0.44372250  0.02768850  1
  O  O153  1  0.61464550  0.72231150  0.19372250  1
  O  O154  1  0.38535450  0.77768850  0.19372250  1
  O  O155  1  0.77768850  0.19372250  0.38535450  1
  O  O156  1  0.77768850  0.80627750  0.11464550  1
  O  O157  1  0.80627750  0.11464550  0.77768850  1
  O  O158  1  0.19372250  0.61464550  0.72231150  1
  O  O159  1  0.47231150  0.63535450  0.55627750  1
  O  O160  1  0.98735900  0.89885800  0.82252500  1
  O  O161  1  0.14885800  0.76264100  0.42747500  1
  O  O162  1  0.60114200  0.17747500  0.48735900  1
  O  O163  1  0.01264100  0.60114200  0.82252500  1
  O  O164  1  0.60114200  0.82252500  0.01264100  1
  O  O165  1  0.82252500  0.01264100  0.60114200  1
  O  O166  1  0.64885800  0.73735900  0.57252500  1
  O  O167  1  0.85114200  0.73735900  0.42747500  1
  O  O168  1  0.84661900  0.15684600  0.93836300  1
  O  O169  1  0.31163700  0.59315400  0.59661900  1
  O  O170  1  0.68836300  0.09315400  0.90338100  1
  O  O171  1  0.90338100  0.68836300  0.09315400  1
  O  O172  1  0.40338100  0.81163700  0.90684600  1
  O  O173  1  0.90684600  0.40338100  0.81163700  1
  O  O174  1  0.59315400  0.59661900  0.31163700  1
  O  O175  1  0.65684600  0.56163700  0.15338100  1
  O  O176  1  0.56163700  0.84661900  0.84315400  1
  O  O177  1  0.84315400  0.43836300  0.65338100  1
  O  O178  1  0.56163700  0.15338100  0.65684600  1
  O  O179  1  0.84315400  0.56163700  0.84661900  1
  O  O180  1  0.43836300  0.65338100  0.84315400  1
  O  O181  1  0.93836300  0.84661900  0.15684600  1
  O  O182  1  0.15684600  0.93836300  0.84661900  1
  O  O183  1  0.15338100  0.65684600  0.56163700  1
  O  O184  1  0.84661900  0.84315400  0.56163700  1
  O  O185  1  0.65338100  0.84315400  0.43836300  1
  O  O186  1  0.68836300  0.90684600  0.59661900  1
  O  O187  1  0.59661900  0.68836300  0.90684600  1
  O  O188  1  0.90684600  0.59661900  0.68836300  1
  O  O189  1  0.81163700  0.90684600  0.40338100  1
  O  O190  1  0.59661900  0.31163700  0.59315400  1
  O  O191  1  0.09315400  0.90338100  0.68836300  1
  O  O192  1  0.85114200  0.26264100  0.07252500  1
  O  O193  1  0.17747500  0.48735900  0.60114200  1
  O  O194  1  0.82252500  0.98735900  0.89885800  1
  O  O195  1  0.89885800  0.82252500  0.98735900  1
  O  O196  1  0.39885800  0.67747500  0.01264100  1
  O  O197  1  0.01264100  0.39885800  0.67747500  1
  O  O198  1  0.48735900  0.60114200  0.17747500  1
  O  O199  1  0.76264100  0.42747500  0.14885800  1
  O  O200  1  0.42747500  0.85114200  0.73735900  1
  O  O201  1  0.73735900  0.57252500  0.64885800  1
  O  O202  1  0.42747500  0.14885800  0.76264100  1
  O  O203  1  0.73735900  0.42747500  0.85114200  1
  O  O204  1  0.57252500  0.64885800  0.73735900  1
  O  O205  1  0.07252500  0.85114200  0.26264100  1
  O  O206  1  0.26264100  0.07252500  0.85114200  1
  O  O207  1  0.67747500  0.01264100  0.39885800  1
