# generated using pymatgen
data_Ba3Si6N4O9
_symmetry_space_group_name_H-M   'P 1'
_cell_length_a   7.32366977
_cell_length_b   7.32366977
_cell_length_c   6.88519900
_cell_angle_alpha   90.00000000
_cell_angle_beta   90.00000000
_cell_angle_gamma   120.00000000
_symmetry_Int_Tables_number   1
_chemical_formula_structural   Ba3Si6N4O9
_chemical_formula_sum   'Ba3 Si6 N4 O9'
_cell_volume   319.81927552
_cell_formula_units_Z   1
loop_
 _symmetry_equiv_pos_site_id
 _symmetry_equiv_pos_as_xyz
  1  'x, y, z'
loop_
 _atom_site_type_symbol
 _atom_site_label
 _atom_site_symmetry_multiplicity
 _atom_site_fract_x
 _atom_site_fract_y
 _atom_site_fract_z
 _atom_site_occupancy
  Ba  Ba0  1  0.33333333  0.66666667  0.68638900  1
  Ba  Ba1  1  0.00000000  0.00000000  0.56023100  1
  Ba  Ba2  1  0.66666667  0.33333333  0.74777500  1
  Si  Si3  1  0.45092433  0.07448867  0.25571900  1
  Si  Si4  1  0.03970333  0.78671967  0.04469900  1
  Si  Si5  1  0.21328033  0.25298367  0.04469900  1
  Si  Si6  1  0.74701633  0.96029667  0.04469900  1
  Si  Si7  1  0.62356433  0.54907567  0.25571900  1
  Si  Si8  1  0.92551133  0.37643567  0.25571900  1
  N  N9  1  0.00000000  0.00000000  0.09397700  1
  N  N10  1  0.86926633  0.57455667  0.19165200  1
  N  N11  1  0.42544333  0.29470967  0.19165200  1
  N  N12  1  0.70529033  0.13073367  0.19165200  1
  O  O13  1  0.29163433  0.88199267  0.10487800  1
  O  O14  1  0.59035833  0.70836567  0.10487800  1
  O  O15  1  0.00968733  0.72031967  0.81804100  1
  O  O16  1  0.27968033  0.28936767  0.81804100  1
  O  O17  1  0.62385033  0.60759467  0.48151000  1
  O  O18  1  0.71063233  0.99031267  0.81804100  1
  O  O19  1  0.39240533  0.01625567  0.48151000  1
  O  O20  1  0.98374433  0.37614967  0.48151000  1
  O  O21  1  0.11800733  0.40964167  0.10487800  1
