# generated using pymatgen
data_P2Pd2O7
_symmetry_space_group_name_H-M   'P 1'
_cell_length_a   13.37639800
_cell_length_b   5.35234800
_cell_length_c   8.21894648
_cell_angle_alpha   90.00000000
_cell_angle_beta   97.82464161
_cell_angle_gamma   90.00000000
_symmetry_Int_Tables_number   1
_chemical_formula_structural   P2Pd2O7
_chemical_formula_sum   'P8 Pd8 O28'
_cell_volume   582.95789087
_cell_formula_units_Z   4
loop_
 _symmetry_equiv_pos_site_id
 _symmetry_equiv_pos_as_xyz
  1  'x, y, z'
loop_
 _atom_site_type_symbol
 _atom_site_label
 _atom_site_symmetry_multiplicity
 _atom_site_fract_x
 _atom_site_fract_y
 _atom_site_fract_z
 _atom_site_occupancy
  P  P0  1  0.89106000  0.62668600  0.73190200  1
  P  P1  1  0.60894000  0.87331400  0.26809800  1
  P  P2  1  0.60894000  0.12668600  0.76809800  1
  P  P3  1  0.89106000  0.37331400  0.23190200  1
  P  P4  1  0.39106000  0.12668600  0.73190200  1
  P  P5  1  0.10894000  0.37331400  0.26809800  1
  P  P6  1  0.10894000  0.62668600  0.76809800  1
  P  P7  1  0.39106000  0.87331400  0.23190200  1
  Pd  Pd8  1  0.75000000  0.75000000  0.00000000  1
  Pd  Pd9  1  0.75000000  0.25000000  0.50000000  1
  Pd  Pd10  1  0.00000000  0.00000000  0.50000000  1
  Pd  Pd11  1  0.00000000  0.00000000  0.00000000  1
  Pd  Pd12  1  0.25000000  0.25000000  0.00000000  1
  Pd  Pd13  1  0.25000000  0.75000000  0.50000000  1
  Pd  Pd14  1  0.50000000  0.50000000  0.50000000  1
  Pd  Pd15  1  0.50000000  0.50000000  0.00000000  1
  O  O16  1  0.00000000  0.48829700  0.75000000  1
  O  O17  1  0.81086150  0.42513650  0.70950200  1
  O  O18  1  0.00000000  0.51170300  0.25000000  1
  O  O19  1  0.88781650  0.18190150  0.09416600  1
  O  O20  1  0.61198000  0.75349000  0.09225500  1
  O  O21  1  0.61218350  0.68190150  0.40583400  1
  O  O22  1  0.61218350  0.31809850  0.90583400  1
  O  O23  1  0.61198000  0.24651000  0.59225500  1
  O  O24  1  0.88802000  0.74651000  0.90774500  1
  O  O25  1  0.81086150  0.57486350  0.20950200  1
  O  O26  1  0.68913850  0.07486350  0.29049800  1
  O  O27  1  0.88802000  0.25349000  0.40774500  1
  O  O28  1  0.68913850  0.92513650  0.79049800  1
  O  O29  1  0.88781650  0.81809850  0.59416600  1
  O  O30  1  0.50000000  0.98829700  0.75000000  1
  O  O31  1  0.31086150  0.92513650  0.70950200  1
  O  O32  1  0.50000000  0.01170300  0.25000000  1
  O  O33  1  0.38781650  0.68190150  0.09416600  1
  O  O34  1  0.11198000  0.25349000  0.09225500  1
  O  O35  1  0.11218350  0.18190150  0.40583400  1
  O  O36  1  0.11218350  0.81809850  0.90583400  1
  O  O37  1  0.11198000  0.74651000  0.59225500  1
  O  O38  1  0.38802000  0.24651000  0.90774500  1
  O  O39  1  0.31086150  0.07486350  0.20950200  1
  O  O40  1  0.18913850  0.57486350  0.29049800  1
  O  O41  1  0.38802000  0.75349000  0.40774500  1
  O  O42  1  0.18913850  0.42513650  0.79049800  1
  O  O43  1  0.38781650  0.31809850  0.59416600  1
