# generated using pymatgen
data_Mg(GaO2)2
_symmetry_space_group_name_H-M   'P 1'
_cell_length_a   10.25527000
_cell_length_b   5.97834400
_cell_length_c   19.65270302
_cell_angle_alpha   90.00000000
_cell_angle_beta   99.88530487
_cell_angle_gamma   90.00000000
_symmetry_Int_Tables_number   1
_chemical_formula_structural   Mg(GaO2)2
_chemical_formula_sum   'Mg16 Ga32 O64'
_cell_volume   1187.00937100
_cell_formula_units_Z   16
loop_
 _symmetry_equiv_pos_site_id
 _symmetry_equiv_pos_as_xyz
  1  'x, y, z'
loop_
 _atom_site_type_symbol
 _atom_site_label
 _atom_site_symmetry_multiplicity
 _atom_site_fract_x
 _atom_site_fract_y
 _atom_site_fract_z
 _atom_site_occupancy
  Mg  Mg0  1  0.99425800  0.00000000  0.99878000  1
  Mg  Mg1  1  0.74508900  0.00000000  0.25232700  1
  Mg  Mg2  1  0.21667300  0.00000000  0.15655300  1
  Mg  Mg3  1  0.96834300  0.00000000  0.40757700  1
  Mg  Mg4  1  0.71872000  0.00000000  0.65637300  1
  Mg  Mg5  1  0.84422400  0.00000000  0.53179500  1
  Mg  Mg6  1  0.46721400  0.00000000  0.90529800  1
  Mg  Mg7  1  0.59401800  0.00000000  0.78138200  1
  Mg  Mg8  1  0.49425800  0.50000000  0.99878000  1
  Mg  Mg9  1  0.24508900  0.50000000  0.25232700  1
  Mg  Mg10  1  0.71667300  0.50000000  0.15655300  1
  Mg  Mg11  1  0.46834300  0.50000000  0.40757700  1
  Mg  Mg12  1  0.21872000  0.50000000  0.65637300  1
  Mg  Mg13  1  0.34422400  0.50000000  0.53179500  1
  Mg  Mg14  1  0.96721400  0.50000000  0.90529800  1
  Mg  Mg15  1  0.09401800  0.50000000  0.78138200  1
  Ga  Ga16  1  0.69417900  0.00000000  0.06157500  1
  Ga  Ga17  1  0.44444000  0.00000000  0.31161500  1
  Ga  Ga18  1  0.49282700  0.00000000  0.49970500  1
  Ga  Ga19  1  0.34277100  0.00000000  0.02797800  1
  Ga  Ga20  1  0.47146900  0.74346400  0.15666400  1
  Ga  Ga21  1  0.47146900  0.25653600  0.15666400  1
  Ga  Ga22  1  0.24198000  0.00000000  0.74632700  1
  Ga  Ga23  1  0.09330600  0.00000000  0.27842300  1
  Ga  Ga24  1  0.19534800  0.00000000  0.56532900  1
  Ga  Ga25  1  0.72053800  0.24686300  0.40802200  1
  Ga  Ga26  1  0.72053800  0.75313700  0.40802200  1
  Ga  Ga27  1  0.94505800  0.00000000  0.81472200  1
  Ga  Ga28  1  0.46882150  0.24973750  0.65651700  1
  Ga  Ga29  1  0.46882150  0.75026250  0.65651700  1
  Ga  Ga30  1  0.71966650  0.74666850  0.90535200  1
  Ga  Ga31  1  0.71966650  0.25333150  0.90535200  1
  Ga  Ga32  1  0.19417900  0.50000000  0.06157500  1
  Ga  Ga33  1  0.94444000  0.50000000  0.31161500  1
  Ga  Ga34  1  0.99282700  0.50000000  0.49970500  1
  Ga  Ga35  1  0.84277100  0.50000000  0.02797800  1
  Ga  Ga36  1  0.97146900  0.24346400  0.15666400  1
  Ga  Ga37  1  0.97146900  0.75653600  0.15666400  1
  Ga  Ga38  1  0.74198000  0.50000000  0.74632700  1
  Ga  Ga39  1  0.59330600  0.50000000  0.27842300  1
  Ga  Ga40  1  0.69534800  0.50000000  0.56532900  1
  Ga  Ga41  1  0.22053800  0.74686300  0.40802200  1
  Ga  Ga42  1  0.22053800  0.25313700  0.40802200  1
  Ga  Ga43  1  0.44505800  0.50000000  0.81472200  1
  Ga  Ga44  1  0.96882150  0.74973750  0.65651700  1
  Ga  Ga45  1  0.96882150  0.25026250  0.65651700  1
  Ga  Ga46  1  0.21966650  0.24666850  0.90535200  1
  Ga  Ga47  1  0.21966650  0.75333150  0.90535200  1
  O  O48  1  0.28985550  0.76374450  0.09454500  1
  O  O49  1  0.40862300  0.00000000  0.21324600  1
  O  O50  1  0.28985550  0.23625550  0.09454500  1
  O  O51  1  0.52480000  0.00000000  0.09488300  1
  O  O52  1  0.53986000  0.26423200  0.34461100  1
  O  O53  1  0.91552700  0.00000000  0.21674700  1
  O  O54  1  0.15978300  0.00000000  0.46439200  1
  O  O55  1  0.53986000  0.73576800  0.34461100  1
  O  O56  1  0.64436400  0.26782900  0.21754500  1
  O  O57  1  0.02751300  0.00000000  0.10065700  1
  O  O58  1  0.27455400  0.00000000  0.34472300  1
  O  O59  1  0.64436400  0.73217100  0.21754500  1
  O  O60  1  0.65808000  0.00000000  0.46693000  1
  O  O61  1  0.29046300  0.25930200  0.59681300  1
  O  O62  1  0.90889500  0.00000000  0.71507200  1
  O  O63  1  0.29046300  0.74069800  0.59681300  1
  O  O64  1  0.39871000  0.25713700  0.46684200  1
  O  O65  1  0.77825900  0.00000000  0.35500300  1
  O  O66  1  0.02756500  0.00000000  0.59692100  1
  O  O67  1  0.39871000  0.74286300  0.46684200  1
  O  O68  1  0.41043000  0.00000000  0.71532800  1
  O  O69  1  0.54055150  0.75843050  0.84704100  1
  O  O70  1  0.65798900  0.00000000  0.96398600  1
  O  O71  1  0.64660750  0.75982650  0.71547600  1
  O  O72  1  0.54055150  0.24156950  0.84704100  1
  O  O73  1  0.52864400  0.00000000  0.59847100  1
  O  O74  1  0.77823000  0.00000000  0.84745300  1
  O  O75  1  0.64660750  0.24017350  0.71547600  1
  O  O76  1  0.16758200  0.00000000  0.96505300  1
  O  O77  1  0.39250350  0.77058750  0.96600400  1
  O  O78  1  0.27826100  0.00000000  0.84451100  1
  O  O79  1  0.39250350  0.22941250  0.96600400  1
  O  O80  1  0.78985550  0.26374450  0.09454500  1
  O  O81  1  0.90862300  0.50000000  0.21324600  1
  O  O82  1  0.78985550  0.73625550  0.09454500  1
  O  O83  1  0.02480000  0.50000000  0.09488300  1
  O  O84  1  0.03986000  0.76423200  0.34461100  1
  O  O85  1  0.41552700  0.50000000  0.21674700  1
  O  O86  1  0.65978300  0.50000000  0.46439200  1
  O  O87  1  0.03986000  0.23576800  0.34461100  1
  O  O88  1  0.14436400  0.76782900  0.21754500  1
  O  O89  1  0.52751300  0.50000000  0.10065700  1
  O  O90  1  0.77455400  0.50000000  0.34472300  1
  O  O91  1  0.14436400  0.23217100  0.21754500  1
  O  O92  1  0.15808000  0.50000000  0.46693000  1
  O  O93  1  0.79046300  0.75930200  0.59681300  1
  O  O94  1  0.40889500  0.50000000  0.71507200  1
  O  O95  1  0.79046300  0.24069800  0.59681300  1
  O  O96  1  0.89871000  0.75713700  0.46684200  1
  O  O97  1  0.27825900  0.50000000  0.35500300  1
  O  O98  1  0.52756500  0.50000000  0.59692100  1
  O  O99  1  0.89871000  0.24286300  0.46684200  1
  O  O100  1  0.91043000  0.50000000  0.71532800  1
  O  O101  1  0.04055150  0.25843050  0.84704100  1
  O  O102  1  0.15798900  0.50000000  0.96398600  1
  O  O103  1  0.14660750  0.25982650  0.71547600  1
  O  O104  1  0.04055150  0.74156950  0.84704100  1
  O  O105  1  0.02864400  0.50000000  0.59847100  1
  O  O106  1  0.27823000  0.50000000  0.84745300  1
  O  O107  1  0.14660750  0.74017350  0.71547600  1
  O  O108  1  0.66758200  0.50000000  0.96505300  1
  O  O109  1  0.89250350  0.27058750  0.96600400  1
  O  O110  1  0.77826100  0.50000000  0.84451100  1
  O  O111  1  0.89250350  0.72941250  0.96600400  1
