# generated using pymatgen
data_BiP(PbO2)4
_symmetry_space_group_name_H-M   'P 1'
_cell_length_a   6.44437200
_cell_length_b   7.35105769
_cell_length_c   11.05482086
_cell_angle_alpha   99.30800541
_cell_angle_beta   105.31561923
_cell_angle_gamma   90.14848790
_symmetry_Int_Tables_number   1
_chemical_formula_structural   BiP(PbO2)4
_chemical_formula_sum   'Bi2 P2 Pb8 O16'
_cell_volume   497.88471980
_cell_formula_units_Z   2
loop_
 _symmetry_equiv_pos_site_id
 _symmetry_equiv_pos_as_xyz
  1  'x, y, z'
loop_
 _atom_site_type_symbol
 _atom_site_label
 _atom_site_symmetry_multiplicity
 _atom_site_fract_x
 _atom_site_fract_y
 _atom_site_fract_z
 _atom_site_occupancy
  Bi  Bi0  1  0.69119100  0.77571400  0.60386000  1
  Bi  Bi1  1  0.30880900  0.22428600  0.39614000  1
  P  P2  1  0.75861600  0.29413600  0.68404200  1
  P  P3  1  0.24138400  0.70586400  0.31595800  1
  Pb  Pb4  1  0.72537900  0.11692500  0.96577700  1
  Pb  Pb5  1  0.23118600  0.55725200  0.70474200  1
  Pb  Pb6  1  0.27462100  0.88307500  0.03422300  1
  Pb  Pb7  1  0.72724000  0.62044000  0.96919000  1
  Pb  Pb8  1  0.27276000  0.37956000  0.03081000  1
  Pb  Pb9  1  0.76881400  0.44274800  0.29525800  1
  Pb  Pb10  1  0.23324000  0.04630000  0.70204300  1
  Pb  Pb11  1  0.76676000  0.95370000  0.29795700  1
  O  O12  1  0.99476100  0.31390700  0.77117600  1
  O  O13  1  0.27974100  0.89839500  0.40510700  1
  O  O14  1  0.40190900  0.68634700  0.23122600  1
  O  O15  1  0.51880200  0.81018500  0.74259500  1
  O  O16  1  0.64107500  0.89582200  0.08445700  1
  O  O17  1  0.72025900  0.10160500  0.59489300  1
  O  O18  1  0.48119800  0.18981500  0.25740500  1
  O  O19  1  0.35892500  0.10417800  0.91554300  1
  O  O20  1  0.64771700  0.39516000  0.08026500  1
  O  O21  1  0.27700800  0.55410800  0.40282600  1
  O  O22  1  0.35228300  0.60484000  0.91973500  1
  O  O23  1  0.01345100  0.80762500  0.72865000  1
  O  O24  1  0.98654900  0.19237500  0.27135000  1
  O  O25  1  0.72299200  0.44589200  0.59717400  1
  O  O26  1  0.00523900  0.68609300  0.22882400  1
  O  O27  1  0.59809100  0.31365300  0.76877400  1
