# generated using pymatgen
data_Nb(SeBr)2
_symmetry_space_group_name_H-M   'P 1'
_cell_length_a   6.80460200
_cell_length_b   11.81658400
_cell_length_c   7.61142007
_cell_angle_alpha   90.00000000
_cell_angle_beta   110.47527763
_cell_angle_gamma   90.00000000
_symmetry_Int_Tables_number   1
_chemical_formula_structural   Nb(SeBr)2
_chemical_formula_sum   'Nb4 Se8 Br8'
_cell_volume   573.34761345
_cell_formula_units_Z   4
loop_
 _symmetry_equiv_pos_site_id
 _symmetry_equiv_pos_as_xyz
  1  'x, y, z'
loop_
 _atom_site_type_symbol
 _atom_site_label
 _atom_site_symmetry_multiplicity
 _atom_site_fract_x
 _atom_site_fract_y
 _atom_site_fract_z
 _atom_site_occupancy
  Nb  Nb0  1  0.50000000  0.62625300  0.00000000  1
  Nb  Nb1  1  0.00000000  0.87374700  0.00000000  1
  Nb  Nb2  1  0.00000000  0.12625300  0.00000000  1
  Nb  Nb3  1  0.50000000  0.37374700  0.00000000  1
  Se  Se4  1  0.86855700  0.00000000  0.69195000  1
  Se  Se5  1  0.66019300  0.00000000  0.87466900  1
  Se  Se6  1  0.33980700  0.00000000  0.12533100  1
  Se  Se7  1  0.13144300  0.00000000  0.30805000  1
  Se  Se8  1  0.36855700  0.50000000  0.69195000  1
  Se  Se9  1  0.16019300  0.50000000  0.87466900  1
  Se  Se10  1  0.83980700  0.50000000  0.12533100  1
  Se  Se11  1  0.63144300  0.50000000  0.30805000  1
  Br  Br12  1  0.77729150  0.79139750  0.21695200  1
  Br  Br13  1  0.72270850  0.70860250  0.78304800  1
  Br  Br14  1  0.27729150  0.70860250  0.21695200  1
  Br  Br15  1  0.22270850  0.79139750  0.78304800  1
  Br  Br16  1  0.27729150  0.29139750  0.21695200  1
  Br  Br17  1  0.22270850  0.20860250  0.78304800  1
  Br  Br18  1  0.77729150  0.20860250  0.21695200  1
  Br  Br19  1  0.72270850  0.29139750  0.78304800  1
