# generated using pymatgen
data_BaSnHgS4
_symmetry_space_group_name_H-M   'P 1'
_cell_length_a   6.74250400
_cell_length_b   11.04342800
_cell_length_c   11.09067000
_cell_angle_alpha   90.00000000
_cell_angle_beta   90.00000000
_cell_angle_gamma   90.00000000
_symmetry_Int_Tables_number   1
_chemical_formula_structural   BaSnHgS4
_chemical_formula_sum   'Ba4 Sn4 Hg4 S16'
_cell_volume   825.81525271
_cell_formula_units_Z   4
loop_
 _symmetry_equiv_pos_site_id
 _symmetry_equiv_pos_as_xyz
  1  'x, y, z'
loop_
 _atom_site_type_symbol
 _atom_site_label
 _atom_site_symmetry_multiplicity
 _atom_site_fract_x
 _atom_site_fract_y
 _atom_site_fract_z
 _atom_site_occupancy
  Ba  Ba0  1  0.94957500  0.00000000  0.50000000  1
  Ba  Ba1  1  0.94957500  0.00000000  0.00000000  1
  Ba  Ba2  1  0.44957500  0.50000000  0.50000000  1
  Ba  Ba3  1  0.44957500  0.50000000  0.00000000  1
  Sn  Sn4  1  0.46360400  0.78814700  0.75000000  1
  Sn  Sn5  1  0.46360400  0.21185300  0.25000000  1
  Sn  Sn6  1  0.96360400  0.28814700  0.75000000  1
  Sn  Sn7  1  0.96360400  0.71185300  0.25000000  1
  Hg  Hg8  1  0.50185400  0.17140000  0.75000000  1
  Hg  Hg9  1  0.50185400  0.82860000  0.25000000  1
  Hg  Hg10  1  0.00185400  0.67140000  0.75000000  1
  Hg  Hg11  1  0.00185400  0.32860000  0.25000000  1
  S  S12  1  0.73448350  0.26517650  0.58174800  1
  S  S13  1  0.73448350  0.73482350  0.41825200  1
  S  S14  1  0.70074550  0.94782950  0.75000000  1
  S  S15  1  0.70074550  0.05217050  0.25000000  1
  S  S16  1  0.73448350  0.26517650  0.91825200  1
  S  S17  1  0.73448350  0.73482350  0.08174800  1
  S  S18  1  0.15565450  0.09833250  0.75000000  1
  S  S19  1  0.15565450  0.90166750  0.25000000  1
  S  S20  1  0.23448350  0.76517650  0.58174800  1
  S  S21  1  0.23448350  0.23482350  0.41825200  1
  S  S22  1  0.20074550  0.44782950  0.75000000  1
  S  S23  1  0.20074550  0.55217050  0.25000000  1
  S  S24  1  0.23448350  0.76517650  0.91825200  1
  S  S25  1  0.23448350  0.23482350  0.08174800  1
  S  S26  1  0.65565450  0.59833250  0.75000000  1
  S  S27  1  0.65565450  0.40166750  0.25000000  1
