# generated using pymatgen
data_KAgCO3
_symmetry_space_group_name_H-M   'P 1'
_cell_length_a   5.85609200
_cell_length_b   6.06955600
_cell_length_c   20.74116400
_cell_angle_alpha   90.00000000
_cell_angle_beta   90.00000000
_cell_angle_gamma   90.00000000
_symmetry_Int_Tables_number   1
_chemical_formula_structural   KAgCO3
_chemical_formula_sum   'K8 Ag8 C8 O24'
_cell_volume   737.22140975
_cell_formula_units_Z   8
loop_
 _symmetry_equiv_pos_site_id
 _symmetry_equiv_pos_as_xyz
  1  'x, y, z'
loop_
 _atom_site_type_symbol
 _atom_site_label
 _atom_site_symmetry_multiplicity
 _atom_site_fract_x
 _atom_site_fract_y
 _atom_site_fract_z
 _atom_site_occupancy
  K  K0  1  0.00000000  0.75000000  0.68009000  1
  K  K1  1  0.00000000  0.25000000  0.81991000  1
  K  K2  1  0.50000000  0.75000000  0.81991000  1
  K  K3  1  0.50000000  0.25000000  0.68009000  1
  K  K4  1  0.50000000  0.25000000  0.18009000  1
  K  K5  1  0.50000000  0.75000000  0.31991000  1
  K  K6  1  0.00000000  0.25000000  0.31991000  1
  K  K7  1  0.00000000  0.75000000  0.18009000  1
  Ag  Ag8  1  0.75000000  0.36535300  0.00000000  1
  Ag  Ag9  1  0.25000000  0.13464700  0.00000000  1
  Ag  Ag10  1  0.25000000  0.63464700  0.00000000  1
  Ag  Ag11  1  0.75000000  0.86535300  0.00000000  1
  Ag  Ag12  1  0.25000000  0.86535300  0.50000000  1
  Ag  Ag13  1  0.75000000  0.63464700  0.50000000  1
  Ag  Ag14  1  0.75000000  0.13464700  0.50000000  1
  Ag  Ag15  1  0.25000000  0.36535300  0.50000000  1
  C  C16  1  0.50000000  0.25000000  0.87274800  1
  C  C17  1  0.50000000  0.75000000  0.62725200  1
  C  C18  1  0.00000000  0.25000000  0.62725200  1
  C  C19  1  0.00000000  0.75000000  0.87274800  1
  C  C20  1  0.00000000  0.75000000  0.37274800  1
  C  C21  1  0.00000000  0.25000000  0.12725200  1
  C  C22  1  0.50000000  0.75000000  0.12725200  1
  C  C23  1  0.50000000  0.25000000  0.37274800  1
  O  O24  1  0.50000000  0.25000000  0.81075200  1
  O  O25  1  0.50000000  0.75000000  0.68924800  1
  O  O26  1  0.00000000  0.25000000  0.68924800  1
  O  O27  1  0.00000000  0.75000000  0.81075200  1
  O  O28  1  0.63921400  0.38378900  0.90278700  1
  O  O29  1  0.63921400  0.61621100  0.59721300  1
  O  O30  1  0.36078600  0.88378900  0.59721300  1
  O  O31  1  0.36078600  0.11621100  0.90278700  1
  O  O32  1  0.86078600  0.11621100  0.59721300  1
  O  O33  1  0.86078600  0.88378900  0.90278700  1
  O  O34  1  0.13921400  0.61621100  0.90278700  1
  O  O35  1  0.13921400  0.38378900  0.59721300  1
  O  O36  1  0.00000000  0.75000000  0.31075200  1
  O  O37  1  0.00000000  0.25000000  0.18924800  1
  O  O38  1  0.50000000  0.75000000  0.18924800  1
  O  O39  1  0.50000000  0.25000000  0.31075200  1
  O  O40  1  0.13921400  0.88378900  0.40278700  1
  O  O41  1  0.13921400  0.11621100  0.09721300  1
  O  O42  1  0.86078600  0.38378900  0.09721300  1
  O  O43  1  0.86078600  0.61621100  0.40278700  1
  O  O44  1  0.36078600  0.61621100  0.09721300  1
  O  O45  1  0.36078600  0.38378900  0.40278700  1
  O  O46  1  0.63921400  0.11621100  0.40278700  1
  O  O47  1  0.63921400  0.88378900  0.09721300  1
