# generated using pymatgen
data_SbTe7SXeCl(OF4)9
_symmetry_space_group_name_H-M   'P 1'
_cell_length_a   10.05153700
_cell_length_b   10.28991108
_cell_length_c   19.09554827
_cell_angle_alpha   89.46577166
_cell_angle_beta   83.18222792
_cell_angle_gamma   87.71818105
_symmetry_Int_Tables_number   1
_chemical_formula_structural   SbTe7SXeCl(OF4)9
_chemical_formula_sum   'Sb2 Te14 S2 Xe2 Cl2 O18 F72'
_cell_volume   1959.49946041
_cell_formula_units_Z   2
loop_
 _symmetry_equiv_pos_site_id
 _symmetry_equiv_pos_as_xyz
  1  'x, y, z'
loop_
 _atom_site_type_symbol
 _atom_site_label
 _atom_site_symmetry_multiplicity
 _atom_site_fract_x
 _atom_site_fract_y
 _atom_site_fract_z
 _atom_site_occupancy
  Sb  Sb0  1  0.50000000  0.50000000  0.00000000  1
  Sb  Sb1  1  0.00000000  0.50000000  0.50000000  1
  Te  Te2  1  0.09173100  0.11108500  0.80133300  1
  Te  Te3  1  0.90826900  0.88891500  0.19866700  1
  Te  Te4  1  0.54329400  0.32376100  0.83329400  1
  Te  Te5  1  0.81407000  0.33549600  0.02872200  1
  Te  Te6  1  0.70870200  0.30699600  0.55001500  1
  Te  Te7  1  0.20560100  0.20588600  0.51743900  1
  Te  Te8  1  0.45670600  0.67623900  0.16670600  1
  Te  Te9  1  0.02445200  0.60097600  0.68026700  1
  Te  Te10  1  0.65385400  0.78549300  0.92028600  1
  Te  Te11  1  0.34614600  0.21450700  0.07971400  1
  Te  Te12  1  0.97554800  0.39902400  0.31973300  1
  Te  Te13  1  0.29129800  0.69300400  0.44998500  1
  Te  Te14  1  0.18593000  0.66450400  0.97127800  1
  Te  Te15  1  0.79439900  0.79411400  0.48256100  1
  S  S16  1  0.49904900  0.11698300  0.29791700  1
  S  S17  1  0.50095100  0.88301700  0.70208300  1
  Xe  Xe18  1  0.17691000  0.97122800  0.28876900  1
  Xe  Xe19  1  0.82309000  0.02877200  0.71123100  1
  Cl  Cl20  1  0.54277000  0.29993800  0.30764800  1
  Cl  Cl21  1  0.45723000  0.70006200  0.69235200  1
  O  O22  1  0.62434900  0.64808400  0.98608200  1
  O  O23  1  0.93276200  0.66643500  0.45876400  1
  O  O24  1  0.94462300  0.56391100  0.59809400  1
  O  O25  1  0.63572100  0.40372900  0.05055600  1
  O  O26  1  0.36427900  0.59627100  0.94944400  1
  O  O27  1  0.41617100  0.56945700  0.09355200  1
  O  O28  1  0.37565100  0.35191600  0.01391800  1
  O  O29  1  0.44334400  0.93811200  0.76679600  1
  O  O30  1  0.81606100  0.43126400  0.49968300  1
  O  O31  1  0.55665600  0.06188800  0.23320400  1
  O  O32  1  0.02860800  0.84675600  0.27122500  1
  O  O33  1  0.35617800  0.10890300  0.32230200  1
  O  O34  1  0.18393900  0.56873600  0.50031700  1
  O  O35  1  0.97139200  0.15324400  0.72877500  1
  O  O36  1  0.58382900  0.43054300  0.90644800  1
  O  O37  1  0.06723800  0.33356500  0.54123600  1
  O  O38  1  0.64382200  0.89109700  0.67769800  1
  O  O39  1  0.05537700  0.43608900  0.40190600  1
  F  F40  1  0.94676400  0.45817300  0.72797100  1
  F  F41  1  0.18361700  0.50189600  0.65511400  1
  F  F42  1  0.57752200  0.70577600  0.84689700  1
  F  F43  1  0.57808900  0.45733600  0.76665200  1
  F  F44  1  0.42191100  0.54266400  0.23334800  1
  F  F45  1  0.26437000  0.12215800  0.01396600  1
  F  F46  1  0.69408300  0.69173400  0.54974800  1
  F  F47  1  0.72533300  0.26913900  0.81713600  1
  F  F48  1  0.78849800  0.32015000  0.63392500  1
  F  F49  1  0.22500000  0.18516700  0.73861700  1
  F  F50  1  0.57836500  0.43423300  0.58282400  1
  F  F51  1  0.42247800  0.29422400  0.15310300  1
  F  F52  1  0.09290600  0.64479800  0.76344400  1
  F  F53  1  0.17105000  0.83279100  0.47774500  1
  F  F54  1  0.30591700  0.30826600  0.45025200  1
  F  F55  1  0.66155000  0.92648000  0.50170600  1
  F  F56  1  0.59851300  0.18260400  0.59727700  1
  F  F57  1  0.69626000  0.73674100  0.41228600  1
  F  F58  1  0.50749200  0.17789000  0.89082700  1
  F  F59  1  0.87050100  0.70461800  0.71102100  1
  F  F60  1  0.05323600  0.54182700  0.27202900  1
  F  F61  1  0.42163500  0.56576700  0.41717600  1
  F  F62  1  0.10575300  0.74961300  0.63922300  1
  F  F63  1  0.88156800  0.86424200  0.55481300  1
  F  F64  1  0.40148700  0.81739600  0.40272300  1
  F  F65  1  0.57222900  0.05508900  0.35922700  1
  F  F66  1  0.89424700  0.25038700  0.36077700  1
  F  F67  1  0.87739100  0.45883200  0.08672400  1
  F  F68  1  0.73563000  0.87784200  0.98603400  1
  F  F69  1  0.95445900  0.03602200  0.86126400  1
  F  F70  1  0.82895000  0.16720900  0.52225500  1
  F  F71  1  0.88512000  0.90767800  0.41766900  1
  F  F72  1  0.23718600  0.79420700  0.03000800  1
  F  F73  1  0.12260900  0.54116800  0.91327600  1
  F  F74  1  0.13475600  0.94728700  0.76020200  1
  F  F75  1  0.51060400  0.12777500  0.05116200  1
  F  F76  1  0.21239000  0.07785100  0.86615600  1
  F  F77  1  0.51893100  0.21764300  0.75619800  1
  F  F78  1  0.61971600  0.28324800  0.47060900  1
  F  F79  1  0.04554100  0.96397800  0.13873600  1
  F  F80  1  0.76281400  0.20579300  0.96999200  1
  F  F81  1  0.21150200  0.67985000  0.36607500  1
  F  F82  1  0.48939600  0.87222500  0.94883800  1
  F  F83  1  0.12949900  0.29538200  0.28897900  1
  F  F84  1  0.81638300  0.49810400  0.34488600  1
  F  F85  1  0.82094800  0.71289500  0.88307000  1
  F  F86  1  0.90709400  0.35520200  0.23655600  1
  F  F87  1  0.21540800  0.77626500  0.89331200  1
  F  F88  1  0.78761000  0.92214900  0.13384400  1
  F  F89  1  0.30374000  0.26325900  0.58771400  1
  F  F90  1  0.78459200  0.22373500  0.10668800  1
  F  F91  1  0.64029700  0.63034500  0.15929600  1
  F  F92  1  0.17905200  0.28710500  0.11693000  1
  F  F93  1  0.95311900  0.72584600  0.15921500  1
  F  F94  1  0.85429800  0.44360800  0.95016300  1
  F  F95  1  0.38028400  0.71675200  0.52939100  1
  F  F96  1  0.68978600  0.92497700  0.85664500  1
  F  F97  1  0.31021400  0.07502300  0.14335500  1
  F  F98  1  0.11488000  0.09232200  0.58233100  1
  F  F99  1  0.86524400  0.05271300  0.23979800  1
  F  F100  1  0.42777100  0.94491100  0.64077300  1
  F  F101  1  0.27466700  0.73086100  0.18286400  1
  F  F102  1  0.04688100  0.27415400  0.84078500  1
  F  F103  1  0.11843200  0.13575800  0.44518700  1
  F  F104  1  0.48106900  0.78235700  0.24380200  1
  F  F105  1  0.98873100  0.26295100  0.01192200  1
  F  F106  1  0.49250800  0.82211000  0.10917300  1
  F  F107  1  0.01126900  0.73704900  0.98807800  1
  F  F108  1  0.35970300  0.36965500  0.84070400  1
  F  F109  1  0.77500000  0.81483300  0.26138300  1
  F  F110  1  0.33845000  0.07352000  0.49829400  1
  F  F111  1  0.14570200  0.55639200  0.04983700  1
