# generated using pymatgen
data_KGa(Te3O7)2
_symmetry_space_group_name_H-M   'P 1'
_cell_length_a   11.07269200
_cell_length_b   11.07269200
_cell_length_c   11.07269200
_cell_angle_alpha   90.00000000
_cell_angle_beta   90.00000000
_cell_angle_gamma   90.00000000
_symmetry_Int_Tables_number   1
_chemical_formula_structural   KGa(Te3O7)2
_chemical_formula_sum   'K4 Ga4 Te24 O56'
_cell_volume   1357.56195630
_cell_formula_units_Z   4
loop_
 _symmetry_equiv_pos_site_id
 _symmetry_equiv_pos_as_xyz
  1  'x, y, z'
loop_
 _atom_site_type_symbol
 _atom_site_label
 _atom_site_symmetry_multiplicity
 _atom_site_fract_x
 _atom_site_fract_y
 _atom_site_fract_z
 _atom_site_occupancy
  K  K0  1  0.50000000  0.50000000  0.00000000  1
  K  K1  1  0.00000000  0.50000000  0.50000000  1
  K  K2  1  0.00000000  0.00000000  0.00000000  1
  K  K3  1  0.50000000  0.00000000  0.50000000  1
  Ga  Ga4  1  0.00000000  0.00000000  0.50000000  1
  Ga  Ga5  1  0.50000000  0.50000000  0.50000000  1
  Ga  Ga6  1  0.50000000  0.00000000  0.00000000  1
  Ga  Ga7  1  0.00000000  0.50000000  0.00000000  1
  Te  Te8  1  0.99119300  0.73501800  0.77245700  1
  Te  Te9  1  0.49119300  0.73501800  0.72754300  1
  Te  Te10  1  0.76498200  0.27245700  0.99119300  1
  Te  Te11  1  0.26498200  0.22754300  0.00880700  1
  Te  Te12  1  0.73501800  0.77245700  0.99119300  1
  Te  Te13  1  0.73501800  0.72754300  0.49119300  1
  Te  Te14  1  0.27245700  0.99119300  0.76498200  1
  Te  Te15  1  0.77245700  0.99119300  0.73501800  1
  Te  Te16  1  0.22754300  0.00880700  0.26498200  1
  Te  Te17  1  0.99119300  0.76498200  0.27245700  1
  Te  Te18  1  0.77245700  0.50880700  0.23501800  1
  Te  Te19  1  0.00880700  0.23501800  0.72754300  1
  Te  Te20  1  0.72754300  0.49119300  0.73501800  1
  Te  Te21  1  0.26498200  0.27245700  0.50880700  1
  Te  Te22  1  0.23501800  0.72754300  0.00880700  1
  Te  Te23  1  0.27245700  0.50880700  0.26498200  1
  Te  Te24  1  0.49119300  0.76498200  0.22754300  1
  Te  Te25  1  0.72754300  0.00880700  0.23501800  1
  Te  Te26  1  0.22754300  0.49119300  0.76498200  1
  Te  Te27  1  0.50880700  0.26498200  0.27245700  1
  Te  Te28  1  0.76498200  0.22754300  0.49119300  1
  Te  Te29  1  0.50880700  0.23501800  0.77245700  1
  Te  Te30  1  0.00880700  0.26498200  0.22754300  1
  Te  Te31  1  0.23501800  0.77245700  0.50880700  1
  O  O32  1  0.87747000  0.38940700  0.30717600  1
  O  O33  1  0.62253000  0.61059300  0.80717600  1
  O  O34  1  0.12450700  0.43150600  0.88674300  1
  O  O35  1  0.11059300  0.80717600  0.87747000  1
  O  O36  1  0.62253000  0.88940700  0.30717600  1
  O  O37  1  0.12253000  0.88940700  0.19282400  1
  O  O38  1  0.43150600  0.61325700  0.62450700  1
  O  O39  1  0.37747000  0.11059300  0.69282400  1
  O  O40  1  0.62450700  0.43150600  0.61325700  1
  O  O41  1  0.06849400  0.11325700  0.62450700  1
  O  O42  1  0.30717600  0.87747000  0.38940700  1
  O  O43  1  0.88674300  0.12450700  0.43150600  1
  O  O44  1  0.14751900  0.14751900  0.14751900  1
  O  O45  1  0.38940700  0.30717600  0.87747000  1
  O  O46  1  0.87549300  0.56849400  0.11325700  1
  O  O47  1  0.87549300  0.93150600  0.61325700  1
  O  O48  1  0.88940700  0.30717600  0.62253000  1
  O  O49  1  0.56849400  0.38674300  0.37549300  1
  O  O50  1  0.06849400  0.38674300  0.12450700  1
  O  O51  1  0.85248100  0.64751900  0.35248100  1
  O  O52  1  0.37549300  0.93150600  0.88674300  1
  O  O53  1  0.93150600  0.88674300  0.37549300  1
  O  O54  1  0.14751900  0.35248100  0.64751900  1
  O  O55  1  0.43150600  0.88674300  0.12450700  1
  O  O56  1  0.37747000  0.38940700  0.19282400  1
  O  O57  1  0.12253000  0.61059300  0.69282400  1
  O  O58  1  0.56849400  0.11325700  0.87549300  1
  O  O59  1  0.38940700  0.19282400  0.37747000  1
  O  O60  1  0.80717600  0.87747000  0.11059300  1
  O  O61  1  0.19282400  0.37747000  0.38940700  1
  O  O62  1  0.37549300  0.56849400  0.38674300  1
  O  O63  1  0.11059300  0.69282400  0.37747000  1
  O  O64  1  0.85248100  0.85248100  0.85248100  1
  O  O65  1  0.88940700  0.19282400  0.12253000  1
  O  O66  1  0.12450700  0.06849400  0.38674300  1
  O  O67  1  0.69282400  0.37747000  0.11059300  1
  O  O68  1  0.64751900  0.35248100  0.85248100  1
  O  O69  1  0.11325700  0.87549300  0.56849400  1
  O  O70  1  0.19282400  0.12253000  0.88940700  1
  O  O71  1  0.61059300  0.80717600  0.62253000  1
  O  O72  1  0.30717600  0.62253000  0.88940700  1
  O  O73  1  0.93150600  0.61325700  0.87549300  1
  O  O74  1  0.61059300  0.69282400  0.12253000  1
  O  O75  1  0.11325700  0.62450700  0.06849400  1
  O  O76  1  0.61325700  0.62450700  0.43150600  1
  O  O77  1  0.69282400  0.12253000  0.61059300  1
  O  O78  1  0.80717600  0.62253000  0.61059300  1
  O  O79  1  0.35248100  0.85248100  0.64751900  1
  O  O80  1  0.87747000  0.11059300  0.80717600  1
  O  O81  1  0.61325700  0.87549300  0.93150600  1
  O  O82  1  0.88674300  0.37549300  0.93150600  1
  O  O83  1  0.64751900  0.14751900  0.35248100  1
  O  O84  1  0.35248100  0.64751900  0.14751900  1
  O  O85  1  0.62450700  0.06849400  0.11325700  1
  O  O86  1  0.38674300  0.12450700  0.06849400  1
  O  O87  1  0.38674300  0.37549300  0.56849400  1
