# generated using pymatgen
data_Sr2GeN2
_symmetry_space_group_name_H-M   'P 1'
_cell_length_a   5.46456000
_cell_length_b   11.47242200
_cell_length_c   12.26659100
_cell_angle_alpha   90.00000000
_cell_angle_beta   90.00000000
_cell_angle_gamma   90.00000000
_symmetry_Int_Tables_number   1
_chemical_formula_structural   Sr2GeN2
_chemical_formula_sum   'Sr16 Ge8 N16'
_cell_volume   769.01391359
_cell_formula_units_Z   8
loop_
 _symmetry_equiv_pos_site_id
 _symmetry_equiv_pos_as_xyz
  1  'x, y, z'
loop_
 _atom_site_type_symbol
 _atom_site_label
 _atom_site_symmetry_multiplicity
 _atom_site_fract_x
 _atom_site_fract_y
 _atom_site_fract_z
 _atom_site_occupancy
  Sr  Sr0  1  0.50000000  0.85597600  0.44167600  1
  Sr  Sr1  1  0.00000000  0.95207800  0.64226900  1
  Sr  Sr2  1  0.50000000  0.95207800  0.85773100  1
  Sr  Sr3  1  0.50000000  0.54792200  0.35773100  1
  Sr  Sr4  1  0.50000000  0.64402400  0.94167600  1
  Sr  Sr5  1  0.00000000  0.54792200  0.14226900  1
  Sr  Sr6  1  0.00000000  0.64402400  0.55832400  1
  Sr  Sr7  1  0.00000000  0.85597600  0.05832400  1
  Sr  Sr8  1  0.00000000  0.35597600  0.44167600  1
  Sr  Sr9  1  0.50000000  0.45207800  0.64226900  1
  Sr  Sr10  1  0.00000000  0.45207800  0.85773100  1
  Sr  Sr11  1  0.00000000  0.04792200  0.35773100  1
  Sr  Sr12  1  0.00000000  0.14402400  0.94167600  1
  Sr  Sr13  1  0.50000000  0.04792200  0.14226900  1
  Sr  Sr14  1  0.50000000  0.14402400  0.55832400  1
  Sr  Sr15  1  0.50000000  0.35597600  0.05832400  1
  Ge  Ge16  1  0.50000000  0.73974300  0.17996700  1
  Ge  Ge17  1  0.00000000  0.76025700  0.82003300  1
  Ge  Ge18  1  0.00000000  0.73974300  0.32003300  1
  Ge  Ge19  1  0.50000000  0.76025700  0.67996700  1
  Ge  Ge20  1  0.00000000  0.23974300  0.17996700  1
  Ge  Ge21  1  0.50000000  0.26025700  0.82003300  1
  Ge  Ge22  1  0.50000000  0.23974300  0.32003300  1
  Ge  Ge23  1  0.00000000  0.26025700  0.67996700  1
  N  N24  1  0.50000000  0.66005600  0.55964900  1
  N  N25  1  0.00000000  0.57900000  0.35845900  1
  N  N26  1  0.00000000  0.66005600  0.94035100  1
  N  N27  1  0.50000000  0.57900000  0.14154100  1
  N  N28  1  0.00000000  0.83994400  0.44035100  1
  N  N29  1  0.50000000  0.83994400  0.05964900  1
  N  N30  1  0.00000000  0.92100000  0.85845900  1
  N  N31  1  0.50000000  0.92100000  0.64154100  1
  N  N32  1  0.00000000  0.16005600  0.55964900  1
  N  N33  1  0.50000000  0.07900000  0.35845900  1
  N  N34  1  0.50000000  0.16005600  0.94035100  1
  N  N35  1  0.00000000  0.07900000  0.14154100  1
  N  N36  1  0.50000000  0.33994400  0.44035100  1
  N  N37  1  0.00000000  0.33994400  0.05964900  1
  N  N38  1  0.50000000  0.42100000  0.85845900  1
  N  N39  1  0.00000000  0.42100000  0.64154100  1
