# generated using pymatgen
data_SnSe2(Cl4O)2
_symmetry_space_group_name_H-M   'P 1'
_cell_length_a   9.73118800
_cell_length_b   9.62561200
_cell_length_c   16.84812410
_cell_angle_alpha   90.00000000
_cell_angle_beta   95.58166517
_cell_angle_gamma   90.00000000
_symmetry_Int_Tables_number   1
_chemical_formula_structural   SnSe2(Cl4O)2
_chemical_formula_sum   'Sn4 Se8 Cl32 O8'
_cell_volume   1570.65823578
_cell_formula_units_Z   4
loop_
 _symmetry_equiv_pos_site_id
 _symmetry_equiv_pos_as_xyz
  1  'x, y, z'
loop_
 _atom_site_type_symbol
 _atom_site_label
 _atom_site_symmetry_multiplicity
 _atom_site_fract_x
 _atom_site_fract_y
 _atom_site_fract_z
 _atom_site_occupancy
  Sn  Sn0  1  0.00000000  0.80064400  0.75000000  1
  Sn  Sn1  1  0.00000000  0.19935600  0.25000000  1
  Sn  Sn2  1  0.50000000  0.30064400  0.75000000  1
  Sn  Sn3  1  0.50000000  0.69935600  0.25000000  1
  Se  Se4  1  0.34406250  0.55747250  0.63353500  1
  Se  Se5  1  0.65593750  0.55747250  0.86646500  1
  Se  Se6  1  0.65593750  0.44252750  0.36646500  1
  Se  Se7  1  0.34406250  0.44252750  0.13353500  1
  Se  Se8  1  0.84406250  0.05747250  0.63353500  1
  Se  Se9  1  0.15593750  0.05747250  0.86646500  1
  Se  Se10  1  0.15593750  0.94252750  0.36646500  1
  Se  Se11  1  0.84406250  0.94252750  0.13353500  1
  Cl  Cl12  1  0.93124300  0.76420500  0.07446000  1
  Cl  Cl13  1  0.06875700  0.23579500  0.92554000  1
  Cl  Cl14  1  0.06875700  0.76420500  0.42554000  1
  Cl  Cl15  1  0.74901450  0.34036150  0.75938700  1
  Cl  Cl16  1  0.25098550  0.34036150  0.74061300  1
  Cl  Cl17  1  0.74901450  0.65963850  0.25938700  1
  Cl  Cl18  1  0.26311550  0.55592250  0.02550000  1
  Cl  Cl19  1  0.00293050  0.36050050  0.35812800  1
  Cl  Cl20  1  0.99706950  0.63949950  0.64187200  1
  Cl  Cl21  1  0.00293050  0.63949950  0.85812800  1
  Cl  Cl22  1  0.93124300  0.23579500  0.57446000  1
  Cl  Cl23  1  0.26311550  0.44407750  0.52550000  1
  Cl  Cl24  1  0.73688450  0.55592250  0.47450000  1
  Cl  Cl25  1  0.99706950  0.36050050  0.14187200  1
  Cl  Cl26  1  0.73688450  0.44407750  0.97450000  1
  Cl  Cl27  1  0.25098550  0.65963850  0.24061300  1
  Cl  Cl28  1  0.43124300  0.26420500  0.07446000  1
  Cl  Cl29  1  0.56875700  0.73579500  0.92554000  1
  Cl  Cl30  1  0.56875700  0.26420500  0.42554000  1
  Cl  Cl31  1  0.24901450  0.84036150  0.75938700  1
  Cl  Cl32  1  0.75098550  0.84036150  0.74061300  1
  Cl  Cl33  1  0.24901450  0.15963850  0.25938700  1
  Cl  Cl34  1  0.76311550  0.05592250  0.02550000  1
  Cl  Cl35  1  0.50293050  0.86050050  0.35812800  1
  Cl  Cl36  1  0.49706950  0.13949950  0.64187200  1
  Cl  Cl37  1  0.50293050  0.13949950  0.85812800  1
  Cl  Cl38  1  0.43124300  0.73579500  0.57446000  1
  Cl  Cl39  1  0.76311550  0.94407750  0.52550000  1
  Cl  Cl40  1  0.23688450  0.05592250  0.47450000  1
  Cl  Cl41  1  0.49706950  0.86050050  0.14187200  1
  Cl  Cl42  1  0.23688450  0.94407750  0.97450000  1
  Cl  Cl43  1  0.75098550  0.15963850  0.24061300  1
  O  O44  1  0.00501250  0.97687850  0.83679800  1
  O  O45  1  0.99498750  0.02312150  0.16320200  1
  O  O46  1  0.00501250  0.02312150  0.33679800  1
  O  O47  1  0.99498750  0.97687850  0.66320200  1
  O  O48  1  0.50501250  0.47687850  0.83679800  1
  O  O49  1  0.49498750  0.52312150  0.16320200  1
  O  O50  1  0.50501250  0.52312150  0.33679800  1
  O  O51  1  0.49498750  0.47687850  0.66320200  1
