# generated using pymatgen
data_CaTa2Bi2O9
_symmetry_space_group_name_H-M   'P 1'
_cell_length_a   5.49404200
_cell_length_b   25.35494600
_cell_length_c   5.55636200
_cell_angle_alpha   90.00000000
_cell_angle_beta   90.00000000
_cell_angle_gamma   90.00000000
_symmetry_Int_Tables_number   1
_chemical_formula_structural   CaTa2Bi2O9
_chemical_formula_sum   'Ca4 Ta8 Bi8 O36'
_cell_volume   774.00755103
_cell_formula_units_Z   4
loop_
 _symmetry_equiv_pos_site_id
 _symmetry_equiv_pos_as_xyz
  1  'x, y, z'
loop_
 _atom_site_type_symbol
 _atom_site_label
 _atom_site_symmetry_multiplicity
 _atom_site_fract_x
 _atom_site_fract_y
 _atom_site_fract_z
 _atom_site_occupancy
  Ca  Ca0  1  0.75543000  0.00000000  0.50069500  1
  Ca  Ca1  1  0.24457000  0.00000000  0.00069500  1
  Ca  Ca2  1  0.25543000  0.50000000  0.50069500  1
  Ca  Ca3  1  0.74457000  0.50000000  0.00069500  1
  Ta  Ta4  1  0.74789850  0.91889950  0.96569200  1
  Ta  Ta5  1  0.75210150  0.58110050  0.46569200  1
  Ta  Ta6  1  0.25210150  0.91889950  0.46569200  1
  Ta  Ta7  1  0.24789850  0.58110050  0.96569200  1
  Ta  Ta8  1  0.24789850  0.41889950  0.96569200  1
  Ta  Ta9  1  0.25210150  0.08110050  0.46569200  1
  Ta  Ta10  1  0.75210150  0.41889950  0.46569200  1
  Ta  Ta11  1  0.74789850  0.08110050  0.96569200  1
  Bi  Bi12  1  0.71781850  0.69923150  0.04278900  1
  Bi  Bi13  1  0.21781850  0.80076850  0.04278900  1
  Bi  Bi14  1  0.28218150  0.69923150  0.54278900  1
  Bi  Bi15  1  0.78218150  0.80076850  0.54278900  1
  Bi  Bi16  1  0.21781850  0.19923150  0.04278900  1
  Bi  Bi17  1  0.71781850  0.30076850  0.04278900  1
  Bi  Bi18  1  0.78218150  0.19923150  0.54278900  1
  Bi  Bi19  1  0.28218150  0.30076850  0.54278900  1
  O  O20  1  0.33225900  0.65355600  0.94817300  1
  O  O21  1  0.45284050  0.91408650  0.15530900  1
  O  O22  1  0.67224200  0.00000000  0.92726600  1
  O  O23  1  0.32775800  0.00000000  0.42726600  1
  O  O24  1  0.95284050  0.58591350  0.15530900  1
  O  O25  1  0.01281100  0.74953600  0.76707500  1
  O  O26  1  0.66774100  0.65355600  0.44817300  1
  O  O27  1  0.53599650  0.56116850  0.73203300  1
  O  O28  1  0.03599650  0.93883150  0.73203300  1
  O  O29  1  0.54715950  0.91408650  0.65530900  1
  O  O30  1  0.16774100  0.84644400  0.44817300  1
  O  O31  1  0.96400350  0.93883150  0.23203300  1
  O  O32  1  0.48718900  0.75046400  0.26707500  1
  O  O33  1  0.04715950  0.58591350  0.65530900  1
  O  O34  1  0.98718900  0.74953600  0.26707500  1
  O  O35  1  0.46400350  0.56116850  0.23203300  1
  O  O36  1  0.83225900  0.84644400  0.94817300  1
  O  O37  1  0.51281100  0.75046400  0.76707500  1
  O  O38  1  0.83225900  0.15355600  0.94817300  1
  O  O39  1  0.95284050  0.41408650  0.15530900  1
  O  O40  1  0.17224200  0.50000000  0.92726600  1
  O  O41  1  0.82775800  0.50000000  0.42726600  1
  O  O42  1  0.45284050  0.08591350  0.15530900  1
  O  O43  1  0.51281100  0.24953600  0.76707500  1
  O  O44  1  0.16774100  0.15355600  0.44817300  1
  O  O45  1  0.03599650  0.06116850  0.73203300  1
  O  O46  1  0.53599650  0.43883150  0.73203300  1
  O  O47  1  0.04715950  0.41408650  0.65530900  1
  O  O48  1  0.66774100  0.34644400  0.44817300  1
  O  O49  1  0.46400350  0.43883150  0.23203300  1
  O  O50  1  0.98718900  0.25046400  0.26707500  1
  O  O51  1  0.54715950  0.08591350  0.65530900  1
  O  O52  1  0.48718900  0.24953600  0.26707500  1
  O  O53  1  0.96400350  0.06116850  0.23203300  1
  O  O54  1  0.33225900  0.34644400  0.94817300  1
  O  O55  1  0.01281100  0.25046400  0.76707500  1
