# generated using pymatgen
data_Cd2Si(P2O7)2
_symmetry_space_group_name_H-M   'P 1'
_cell_length_a   17.49021400
_cell_length_b   5.26104800
_cell_length_c   12.68921337
_cell_angle_alpha   90.00000000
_cell_angle_beta   103.26571368
_cell_angle_gamma   90.00000000
_symmetry_Int_Tables_number   1
_chemical_formula_structural   Cd2Si(P2O7)2
_chemical_formula_sum   'Cd8 Si4 P16 O56'
_cell_volume   1136.46512243
_cell_formula_units_Z   4
loop_
 _symmetry_equiv_pos_site_id
 _symmetry_equiv_pos_as_xyz
  1  'x, y, z'
loop_
 _atom_site_type_symbol
 _atom_site_label
 _atom_site_symmetry_multiplicity
 _atom_site_fract_x
 _atom_site_fract_y
 _atom_site_fract_z
 _atom_site_occupancy
  Cd  Cd0  1  0.74459800  0.34437300  0.63183000  1
  Cd  Cd1  1  0.75540200  0.84437300  0.86817000  1
  Cd  Cd2  1  0.75540200  0.15562700  0.36817000  1
  Cd  Cd3  1  0.74459800  0.65562700  0.13183000  1
  Cd  Cd4  1  0.24459800  0.84437300  0.63183000  1
  Cd  Cd5  1  0.25540200  0.34437300  0.86817000  1
  Cd  Cd6  1  0.25540200  0.65562700  0.36817000  1
  Cd  Cd7  1  0.24459800  0.15562700  0.13183000  1
  Si  Si8  1  0.00000000  0.86102500  0.25000000  1
  Si  Si9  1  0.00000000  0.13897500  0.75000000  1
  Si  Si10  1  0.50000000  0.36102500  0.25000000  1
  Si  Si11  1  0.50000000  0.63897500  0.75000000  1
  P  P12  1  0.63096450  0.67284750  0.41417900  1
  P  P13  1  0.86903550  0.17284750  0.08582100  1
  P  P14  1  0.86903550  0.82715250  0.58582100  1
  P  P15  1  0.63096450  0.32715250  0.91417900  1
  P  P16  1  0.61799700  0.85325700  0.62952900  1
  P  P17  1  0.88200300  0.35325700  0.87047100  1
  P  P18  1  0.88200300  0.64674300  0.37047100  1
  P  P19  1  0.61799700  0.14674300  0.12952900  1
  P  P20  1  0.13096450  0.17284750  0.41417900  1
  P  P21  1  0.36903550  0.67284750  0.08582100  1
  P  P22  1  0.36903550  0.32715250  0.58582100  1
  P  P23  1  0.13096450  0.82715250  0.91417900  1
  P  P24  1  0.11799700  0.35325700  0.62952900  1
  P  P25  1  0.38200300  0.85325700  0.87047100  1
  P  P26  1  0.38200300  0.14674300  0.37047100  1
  P  P27  1  0.11799700  0.64674300  0.12952900  1
  O  O28  1  0.56274000  0.54085800  0.32956100  1
  O  O29  1  0.93726000  0.04085800  0.17043900  1
  O  O30  1  0.93726000  0.95914200  0.67043900  1
  O  O31  1  0.56274000  0.45914200  0.82956100  1
  O  O32  1  0.58866800  0.71183600  0.51421400  1
  O  O33  1  0.91133200  0.21183600  0.98578600  1
  O  O34  1  0.91133200  0.78816400  0.48578600  1
  O  O35  1  0.58866800  0.28816400  0.01421400  1
  O  O36  1  0.54183350  0.82085950  0.67568700  1
  O  O37  1  0.95816650  0.32085950  0.82431300  1
  O  O38  1  0.95816650  0.67914050  0.32431300  1
  O  O39  1  0.54183350  0.17914050  0.17568700  1
  O  O40  1  0.64778500  0.92557800  0.37038100  1
  O  O41  1  0.85221500  0.42557800  0.12961900  1
  O  O42  1  0.85221500  0.57442200  0.62961900  1
  O  O43  1  0.64778500  0.07442200  0.87038100  1
  O  O44  1  0.69876200  0.48836000  0.45086700  1
  O  O45  1  0.80123800  0.98836000  0.04913300  1
  O  O46  1  0.80123800  0.01164000  0.54913300  1
  O  O47  1  0.69876200  0.51164000  0.95086700  1
  O  O48  1  0.68631550  0.69957250  0.69696800  1
  O  O49  1  0.81368450  0.19957250  0.80303200  1
  O  O50  1  0.81368450  0.80042750  0.30303200  1
  O  O51  1  0.68631550  0.30042750  0.19696800  1
  O  O52  1  0.63193700  0.13062700  0.61511700  1
  O  O53  1  0.86806300  0.63062700  0.88488300  1
  O  O54  1  0.86806300  0.36937300  0.38488300  1
  O  O55  1  0.63193700  0.86937300  0.11511700  1
  O  O56  1  0.06274000  0.04085800  0.32956100  1
  O  O57  1  0.43726000  0.54085800  0.17043900  1
  O  O58  1  0.43726000  0.45914200  0.67043900  1
  O  O59  1  0.06274000  0.95914200  0.82956100  1
  O  O60  1  0.08866800  0.21183600  0.51421400  1
  O  O61  1  0.41133200  0.71183600  0.98578600  1
  O  O62  1  0.41133200  0.28816400  0.48578600  1
  O  O63  1  0.08866800  0.78816400  0.01421400  1
  O  O64  1  0.04183350  0.32085950  0.67568700  1
  O  O65  1  0.45816650  0.82085950  0.82431300  1
  O  O66  1  0.45816650  0.17914050  0.32431300  1
  O  O67  1  0.04183350  0.67914050  0.17568700  1
  O  O68  1  0.14778500  0.42557800  0.37038100  1
  O  O69  1  0.35221500  0.92557800  0.12961900  1
  O  O70  1  0.35221500  0.07442200  0.62961900  1
  O  O71  1  0.14778500  0.57442200  0.87038100  1
  O  O72  1  0.19876200  0.98836000  0.45086700  1
  O  O73  1  0.30123800  0.48836000  0.04913300  1
  O  O74  1  0.30123800  0.51164000  0.54913300  1
  O  O75  1  0.19876200  0.01164000  0.95086700  1
  O  O76  1  0.18631550  0.19957250  0.69696800  1
  O  O77  1  0.31368450  0.69957250  0.80303200  1
  O  O78  1  0.31368450  0.30042750  0.30303200  1
  O  O79  1  0.18631550  0.80042750  0.19696800  1
  O  O80  1  0.13193700  0.63062700  0.61511700  1
  O  O81  1  0.36806300  0.13062700  0.88488300  1
  O  O82  1  0.36806300  0.86937300  0.38488300  1
  O  O83  1  0.13193700  0.36937300  0.11511700  1
