# generated using pymatgen
data_CuP4S3I
_symmetry_space_group_name_H-M   'P 1'
_cell_length_a   8.17765000
_cell_length_b   22.12678200
_cell_length_c   10.90966500
_cell_angle_alpha   90.00000000
_cell_angle_beta   90.00000000
_cell_angle_gamma   90.00000000
_symmetry_Int_Tables_number   1
_chemical_formula_structural   CuP4S3I
_chemical_formula_sum   'Cu8 P32 S24 I8'
_cell_volume   1974.05019335
_cell_formula_units_Z   8
loop_
 _symmetry_equiv_pos_site_id
 _symmetry_equiv_pos_as_xyz
  1  'x, y, z'
loop_
 _atom_site_type_symbol
 _atom_site_label
 _atom_site_symmetry_multiplicity
 _atom_site_fract_x
 _atom_site_fract_y
 _atom_site_fract_z
 _atom_site_occupancy
  Cu  Cu0  1  0.79645500  0.00000000  0.50000000  1
  Cu  Cu1  1  0.29645500  0.00000000  0.00000000  1
  Cu  Cu2  1  0.70354500  0.00000000  0.00000000  1
  Cu  Cu3  1  0.20354500  0.00000000  0.50000000  1
  Cu  Cu4  1  0.29645500  0.50000000  0.50000000  1
  Cu  Cu5  1  0.79645500  0.50000000  0.00000000  1
  Cu  Cu6  1  0.20354500  0.50000000  0.00000000  1
  Cu  Cu7  1  0.70354500  0.50000000  0.50000000  1
  P  P8  1  0.50000000  0.88024100  0.29364200  1
  P  P9  1  0.00000000  0.71723000  0.47328300  1
  P  P10  1  0.36264400  0.91806100  0.45905500  1
  P  P11  1  0.63735600  0.91806100  0.45905500  1
  P  P12  1  0.63735600  0.58193900  0.95905500  1
  P  P13  1  0.86264400  0.91806100  0.04094500  1
  P  P14  1  0.50000000  0.61975900  0.79364200  1
  P  P15  1  0.36264400  0.58193900  0.95905500  1
  P  P16  1  0.00000000  0.88024100  0.20635800  1
  P  P17  1  0.13735600  0.91806100  0.04094500  1
  P  P18  1  0.00000000  0.78277000  0.97328300  1
  P  P19  1  0.13735600  0.58193900  0.54094500  1
  P  P20  1  0.50000000  0.78277000  0.52671700  1
  P  P21  1  0.00000000  0.61975900  0.70635800  1
  P  P22  1  0.86264400  0.58193900  0.54094500  1
  P  P23  1  0.50000000  0.71723000  0.02671700  1
  P  P24  1  0.00000000  0.38024100  0.29364200  1
  P  P25  1  0.50000000  0.21723000  0.47328300  1
  P  P26  1  0.86264400  0.41806100  0.45905500  1
  P  P27  1  0.13735600  0.41806100  0.45905500  1
  P  P28  1  0.13735600  0.08193900  0.95905500  1
  P  P29  1  0.36264400  0.41806100  0.04094500  1
  P  P30  1  0.00000000  0.11975900  0.79364200  1
  P  P31  1  0.86264400  0.08193900  0.95905500  1
  P  P32  1  0.50000000  0.38024100  0.20635800  1
  P  P33  1  0.63735600  0.41806100  0.04094500  1
  P  P34  1  0.50000000  0.28277000  0.97328300  1
  P  P35  1  0.63735600  0.08193900  0.54094500  1
  P  P36  1  0.00000000  0.28277000  0.52671700  1
  P  P37  1  0.50000000  0.11975900  0.70635800  1
  P  P38  1  0.36264400  0.08193900  0.54094500  1
  P  P39  1  0.00000000  0.21723000  0.02671700  1
  S  S40  1  0.80175050  0.65814150  0.43634100  1
  S  S41  1  0.00000000  0.71303500  0.66859100  1
  S  S42  1  0.19824950  0.65814150  0.43634100  1
  S  S43  1  0.50000000  0.71303500  0.83140900  1
  S  S44  1  0.30175050  0.65814150  0.06365900  1
  S  S45  1  0.50000000  0.78696500  0.33140900  1
  S  S46  1  0.69824950  0.84185850  0.56365900  1
  S  S47  1  0.69824950  0.65814150  0.06365900  1
  S  S48  1  0.80175050  0.84185850  0.93634100  1
  S  S49  1  0.00000000  0.78696500  0.16859100  1
  S  S50  1  0.30175050  0.84185850  0.56365900  1
  S  S51  1  0.19824950  0.84185850  0.93634100  1
  S  S52  1  0.30175050  0.15814150  0.43634100  1
  S  S53  1  0.50000000  0.21303500  0.66859100  1
  S  S54  1  0.69824950  0.15814150  0.43634100  1
  S  S55  1  0.00000000  0.21303500  0.83140900  1
  S  S56  1  0.80175050  0.15814150  0.06365900  1
  S  S57  1  0.00000000  0.28696500  0.33140900  1
  S  S58  1  0.19824950  0.34185850  0.56365900  1
  S  S59  1  0.19824950  0.15814150  0.06365900  1
  S  S60  1  0.30175050  0.34185850  0.93634100  1
  S  S61  1  0.50000000  0.28696500  0.16859100  1
  S  S62  1  0.80175050  0.34185850  0.56365900  1
  S  S63  1  0.69824950  0.34185850  0.93634100  1
  I  I64  1  0.00000000  0.53179000  0.17649100  1
  I  I65  1  0.50000000  0.53179000  0.32350900  1
  I  I66  1  0.50000000  0.96821000  0.82350900  1
  I  I67  1  0.00000000  0.96821000  0.67649100  1
  I  I68  1  0.50000000  0.03179000  0.17649100  1
  I  I69  1  0.00000000  0.03179000  0.32350900  1
  I  I70  1  0.00000000  0.46821000  0.82350900  1
  I  I71  1  0.50000000  0.46821000  0.67649100  1
