# generated using pymatgen
data_SrCuAs2O7
_symmetry_space_group_name_H-M   'P 1'
_cell_length_a   5.71585700
_cell_length_b   8.38065800
_cell_length_c   14.04577958
_cell_angle_alpha   90.00000000
_cell_angle_beta   111.75588045
_cell_angle_gamma   90.00000000
_symmetry_Int_Tables_number   1
_chemical_formula_structural   SrCuAs2O7
_chemical_formula_sum   'Sr4 Cu4 As8 O28'
_cell_volume   624.90530279
_cell_formula_units_Z   4
loop_
 _symmetry_equiv_pos_site_id
 _symmetry_equiv_pos_as_xyz
  1  'x, y, z'
loop_
 _atom_site_type_symbol
 _atom_site_label
 _atom_site_symmetry_multiplicity
 _atom_site_fract_x
 _atom_site_fract_y
 _atom_site_fract_z
 _atom_site_occupancy
  Sr  Sr0  1  0.49130100  0.84127500  0.28266000  1
  Sr  Sr1  1  0.50869900  0.15872500  0.71734000  1
  Sr  Sr2  1  0.49130100  0.65872500  0.78266000  1
  Sr  Sr3  1  0.50869900  0.34127500  0.21734000  1
  Cu  Cu4  1  0.82496200  0.64202000  0.11924800  1
  Cu  Cu5  1  0.17503800  0.14202000  0.38075200  1
  Cu  Cu6  1  0.17503800  0.35798000  0.88075200  1
  Cu  Cu7  1  0.82496200  0.85798000  0.61924800  1
  As  As8  1  0.83078400  0.31856400  0.00533300  1
  As  As9  1  0.90400700  0.46684300  0.65710700  1
  As  As10  1  0.83078400  0.18143600  0.50533300  1
  As  As11  1  0.90400700  0.03315700  0.15710700  1
  As  As12  1  0.16921600  0.68143600  0.99466700  1
  As  As13  1  0.09599300  0.53315700  0.34289300  1
  As  As14  1  0.09599300  0.96684300  0.84289300  1
  As  As15  1  0.16921600  0.81856400  0.49466700  1
  O  O16  1  0.34182600  0.94632000  0.80471500  1
  O  O17  1  0.59872300  0.34067000  0.88952300  1
  O  O18  1  0.81310300  0.39124200  0.53022400  1
  O  O19  1  0.40127700  0.65933000  0.11047700  1
  O  O20  1  0.18689700  0.60875800  0.46977600  1
  O  O21  1  0.14077000  0.14814500  0.51797500  1
  O  O22  1  0.22174500  0.90797800  0.39335800  1
  O  O23  1  0.99400200  0.34256300  0.34728600  1
  O  O24  1  0.22174500  0.59202200  0.89335800  1
  O  O25  1  0.85923000  0.85185500  0.48202500  1
  O  O26  1  0.82676400  0.86918100  0.76541600  1
  O  O27  1  0.82676400  0.63081900  0.26541600  1
  O  O28  1  0.00599800  0.65743700  0.65271400  1
  O  O29  1  0.17323600  0.13081900  0.23458400  1
  O  O30  1  0.81310300  0.10875800  0.03022400  1
  O  O31  1  0.77825500  0.09202200  0.60664200  1
  O  O32  1  0.14077000  0.35185500  0.01797500  1
  O  O33  1  0.59872300  0.15933000  0.38952300  1
  O  O34  1  0.99400200  0.15743700  0.84728600  1
  O  O35  1  0.65817400  0.05368000  0.19528500  1
  O  O36  1  0.17323600  0.36918100  0.73458400  1
  O  O37  1  0.34182600  0.55368000  0.30471500  1
  O  O38  1  0.77825500  0.40797800  0.10664200  1
  O  O39  1  0.85923000  0.64814500  0.98202500  1
  O  O40  1  0.40127700  0.84067000  0.61047700  1
  O  O41  1  0.00599800  0.84256300  0.15271400  1
  O  O42  1  0.18689700  0.89124200  0.96977600  1
  O  O43  1  0.65817400  0.44632000  0.69528500  1
