# generated using pymatgen
data_Sc(PO3)3
_symmetry_space_group_name_H-M   'P 1'
_cell_length_a   13.76060600
_cell_length_b   19.81850600
_cell_length_c   9.84419317
_cell_angle_alpha   90.00000000
_cell_angle_beta   127.12707841
_cell_angle_gamma   90.00000000
_symmetry_Int_Tables_number   1
_chemical_formula_structural   Sc(PO3)3
_chemical_formula_sum   'Sc12 P36 O108'
_cell_volume   2140.47267469
_cell_formula_units_Z   12
loop_
 _symmetry_equiv_pos_site_id
 _symmetry_equiv_pos_as_xyz
  1  'x, y, z'
loop_
 _atom_site_type_symbol
 _atom_site_label
 _atom_site_symmetry_multiplicity
 _atom_site_fract_x
 _atom_site_fract_y
 _atom_site_fract_z
 _atom_site_occupancy
  Sc  Sc0  1  0.00682900  0.41117800  0.01357600  1
  Sc  Sc1  1  0.50489850  0.42179950  0.51307600  1
  Sc  Sc2  1  0.50682900  0.08882200  0.51357600  1
  Sc  Sc3  1  0.48801950  0.25597550  0.97772100  1
  Sc  Sc4  1  0.98801950  0.24402450  0.47772100  1
  Sc  Sc5  1  0.00489850  0.07820050  0.01307600  1
  Sc  Sc6  1  0.50682900  0.91117800  0.01357600  1
  Sc  Sc7  1  0.00489850  0.92179950  0.51307600  1
  Sc  Sc8  1  0.00682900  0.58882200  0.51357600  1
  Sc  Sc9  1  0.98801950  0.75597550  0.97772100  1
  Sc  Sc10  1  0.48801950  0.74402450  0.47772100  1
  Sc  Sc11  1  0.50489850  0.57820050  0.01307600  1
  P  P12  1  0.35401250  0.19953850  0.16164400  1
  P  P13  1  0.36103150  0.46852150  0.68118500  1
  P  P14  1  0.15324950  0.47150750  0.84884600  1
  P  P15  1  0.14199700  0.13612800  0.83257700  1
  P  P16  1  0.34805000  0.13671400  0.66318500  1
  P  P17  1  0.75883550  0.18963250  0.76900600  1
  P  P18  1  0.65324950  0.02849250  0.34884600  1
  P  P19  1  0.14149150  0.19606650  0.32093200  1
  P  P20  1  0.76827250  0.47551850  0.28736100  1
  P  P21  1  0.64199700  0.36387200  0.33257700  1
  P  P22  1  0.25883550  0.31036750  0.26900600  1
  P  P23  1  0.26827250  0.02448150  0.78736100  1
  P  P24  1  0.86103150  0.03147850  0.18118500  1
  P  P25  1  0.73103700  0.14153500  0.21867400  1
  P  P26  1  0.23103700  0.35846500  0.71867400  1
  P  P27  1  0.84805000  0.36328600  0.16318500  1
  P  P28  1  0.85401250  0.30046150  0.66164400  1
  P  P29  1  0.64149150  0.30393350  0.82093200  1
  P  P30  1  0.85401250  0.69953850  0.16164400  1
  P  P31  1  0.86103150  0.96852150  0.68118500  1
  P  P32  1  0.65324950  0.97150750  0.84884600  1
  P  P33  1  0.64199700  0.63612800  0.83257700  1
  P  P34  1  0.84805000  0.63671400  0.66318500  1
  P  P35  1  0.25883550  0.68963250  0.76900600  1
  P  P36  1  0.15324950  0.52849250  0.34884600  1
  P  P37  1  0.64149150  0.69606650  0.32093200  1
  P  P38  1  0.26827250  0.97551850  0.28736100  1
  P  P39  1  0.14199700  0.86387200  0.33257700  1
  P  P40  1  0.75883550  0.81036750  0.26900600  1
  P  P41  1  0.76827250  0.52448150  0.78736100  1
  P  P42  1  0.36103150  0.53147850  0.18118500  1
  P  P43  1  0.23103700  0.64153500  0.21867400  1
  P  P44  1  0.73103700  0.85846500  0.71867400  1
  P  P45  1  0.34805000  0.86328600  0.16318500  1
  P  P46  1  0.35401250  0.80046150  0.66164400  1
  P  P47  1  0.14149150  0.80393350  0.82093200  1
  O  O48  1  0.74495150  0.41852450  0.38066900  1
  O  O49  1  0.15116700  0.00865000  0.14773300  1
  O  O50  1  0.89548750  0.00061450  0.84285300  1
  O  O51  1  0.16880400  0.40116600  0.78518300  1
  O  O52  1  0.33262200  0.27015400  0.21721200  1
  O  O53  1  0.06207650  0.46043950  0.88316600  1
  O  O54  1  0.83262200  0.22984600  0.71721200  1
  O  O55  1  0.44637850  0.21209450  0.13021100  1
  O  O56  1  0.84615100  0.13789500  0.89453500  1
  O  O57  1  0.66880400  0.09883400  0.28518300  1
  O  O58  1  0.13475700  0.31186400  0.58502500  1
  O  O59  1  0.09455650  0.16966850  0.66674900  1
  O  O60  1  0.32437700  0.06368500  0.70679900  1
  O  O61  1  0.72180000  0.35427000  0.97779000  1
  O  O62  1  0.55106550  0.39520550  0.35090800  1
  O  O63  1  0.22185650  0.18951450  0.98317200  1
  O  O64  1  0.53756600  0.28080500  0.82019800  1
  O  O65  1  0.25809650  0.41189150  0.62160000  1
  O  O66  1  0.73623450  0.24333150  0.87085300  1
  O  O67  1  0.62913450  0.02708350  0.72889700  1
  O  O68  1  0.03756600  0.21919500  0.32019800  1
  O  O69  1  0.86114150  0.31182250  0.28497400  1
  O  O70  1  0.13891800  0.33373600  0.11079600  1
  O  O71  1  0.63475700  0.18813600  0.08502500  1
  O  O72  1  0.46374200  0.44179400  0.68295500  1
  O  O73  1  0.34615100  0.36210500  0.39453500  1
  O  O74  1  0.28646100  0.47859900  0.02764300  1
  O  O75  1  0.39548750  0.49938550  0.34285300  1
  O  O76  1  0.78646100  0.02140100  0.52764300  1
  O  O77  1  0.44995700  0.13166800  0.64851000  1
  O  O78  1  0.34845200  0.32895200  0.86811500  1
  O  O79  1  0.10995800  0.16153000  0.16315400  1
  O  O80  1  0.60995800  0.33847000  0.66315400  1
  O  O81  1  0.23623450  0.25666850  0.37085300  1
  O  O82  1  0.38203050  0.14585550  0.28798400  1
  O  O83  1  0.65116700  0.49135000  0.64773300  1
  O  O84  1  0.36114150  0.18817750  0.78497400  1
  O  O85  1  0.82437700  0.43631500  0.20679900  1
  O  O86  1  0.63891800  0.16626400  0.61079600  1
  O  O87  1  0.94995700  0.36833200  0.14851000  1
  O  O88  1  0.05106550  0.10479450  0.85090800  1
  O  O89  1  0.86834450  0.48133650  0.92773200  1
  O  O90  1  0.72185650  0.31048550  0.48317200  1
  O  O91  1  0.22180000  0.14573000  0.47779000  1
  O  O92  1  0.36834450  0.01866350  0.42773200  1
  O  O93  1  0.56207650  0.03956050  0.38316600  1
  O  O94  1  0.84845200  0.17104800  0.36811500  1
  O  O95  1  0.59455650  0.33033150  0.16674900  1
  O  O96  1  0.12913450  0.47291650  0.22889700  1
  O  O97  1  0.24495150  0.08147550  0.88066900  1
  O  O98  1  0.88203050  0.35414450  0.78798400  1
  O  O99  1  0.75809650  0.08810850  0.12160000  1
  O  O100  1  0.96374200  0.05820600  0.18295500  1
  O  O101  1  0.94637850  0.28790550  0.63021100  1
  O  O102  1  0.24495150  0.91852450  0.38066900  1
  O  O103  1  0.65116700  0.50865000  0.14773300  1
  O  O104  1  0.39548750  0.50061450  0.84285300  1
  O  O105  1  0.66880400  0.90116600  0.78518300  1
  O  O106  1  0.83262200  0.77015400  0.21721200  1
  O  O107  1  0.56207650  0.96043950  0.88316600  1
  O  O108  1  0.33262200  0.72984600  0.71721200  1
  O  O109  1  0.94637850  0.71209450  0.13021100  1
  O  O110  1  0.34615100  0.63789500  0.89453500  1
  O  O111  1  0.16880400  0.59883400  0.28518300  1
  O  O112  1  0.63475700  0.81186400  0.58502500  1
  O  O113  1  0.59455650  0.66966850  0.66674900  1
  O  O114  1  0.82437700  0.56368500  0.70679900  1
  O  O115  1  0.22180000  0.85427000  0.97779000  1
  O  O116  1  0.05106550  0.89520550  0.35090800  1
  O  O117  1  0.72185650  0.68951450  0.98317200  1
  O  O118  1  0.03756600  0.78080500  0.82019800  1
  O  O119  1  0.75809650  0.91189150  0.62160000  1
  O  O120  1  0.23623450  0.74333150  0.87085300  1
  O  O121  1  0.12913450  0.52708350  0.72889700  1
  O  O122  1  0.53756600  0.71919500  0.32019800  1
  O  O123  1  0.36114150  0.81182250  0.28497400  1
  O  O124  1  0.63891800  0.83373600  0.11079600  1
  O  O125  1  0.13475700  0.68813600  0.08502500  1
  O  O126  1  0.96374200  0.94179400  0.68295500  1
  O  O127  1  0.84615100  0.86210500  0.39453500  1
  O  O128  1  0.78646100  0.97859900  0.02764300  1
  O  O129  1  0.89548750  0.99938550  0.34285300  1
  O  O130  1  0.28646100  0.52140100  0.52764300  1
  O  O131  1  0.94995700  0.63166800  0.64851000  1
  O  O132  1  0.84845200  0.82895200  0.86811500  1
  O  O133  1  0.60995800  0.66153000  0.16315400  1
  O  O134  1  0.10995800  0.83847000  0.66315400  1
  O  O135  1  0.73623450  0.75666850  0.37085300  1
  O  O136  1  0.88203050  0.64585550  0.28798400  1
  O  O137  1  0.15116700  0.99135000  0.64773300  1
  O  O138  1  0.86114150  0.68817750  0.78497400  1
  O  O139  1  0.32437700  0.93631500  0.20679900  1
  O  O140  1  0.13891800  0.66626400  0.61079600  1
  O  O141  1  0.44995700  0.86833200  0.14851000  1
  O  O142  1  0.55106550  0.60479450  0.85090800  1
  O  O143  1  0.36834450  0.98133650  0.92773200  1
  O  O144  1  0.22185650  0.81048550  0.48317200  1
  O  O145  1  0.72180000  0.64573000  0.47779000  1
  O  O146  1  0.86834450  0.51866350  0.42773200  1
  O  O147  1  0.06207650  0.53956050  0.38316600  1
  O  O148  1  0.34845200  0.67104800  0.36811500  1
  O  O149  1  0.09455650  0.83033150  0.16674900  1
  O  O150  1  0.62913450  0.97291650  0.22889700  1
  O  O151  1  0.74495150  0.58147550  0.88066900  1
  O  O152  1  0.38203050  0.85414450  0.78798400  1
  O  O153  1  0.25809650  0.58810850  0.12160000  1
  O  O154  1  0.46374200  0.55820600  0.18295500  1
  O  O155  1  0.44637850  0.78790550  0.63021100  1
