# generated using pymatgen
data_Na2AlB(As2O7)2
_symmetry_space_group_name_H-M   'P 1'
_cell_length_a   4.67997300
_cell_length_b   21.11519300
_cell_length_c   11.14139633
_cell_angle_alpha   90.00000000
_cell_angle_beta   90.38941633
_cell_angle_gamma   90.00000000
_symmetry_Int_Tables_number   1
_chemical_formula_structural   Na2AlB(As2O7)2
_chemical_formula_sum   'Na8 Al4 B4 As16 O56'
_cell_volume   1100.95101338
_cell_formula_units_Z   4
loop_
 _symmetry_equiv_pos_site_id
 _symmetry_equiv_pos_as_xyz
  1  'x, y, z'
loop_
 _atom_site_type_symbol
 _atom_site_label
 _atom_site_symmetry_multiplicity
 _atom_site_fract_x
 _atom_site_fract_y
 _atom_site_fract_z
 _atom_site_occupancy
  Na  Na0  1  0.78114700  0.02517300  0.58437100  1
  Na  Na1  1  0.21885300  0.52517300  0.91562900  1
  Na  Na2  1  0.78114700  0.47482700  0.08437100  1
  Na  Na3  1  0.22225900  0.70966800  0.47504000  1
  Na  Na4  1  0.77774100  0.29033200  0.52496000  1
  Na  Na5  1  0.21885300  0.97482700  0.41562900  1
  Na  Na6  1  0.77774100  0.20966800  0.02496000  1
  Na  Na7  1  0.22225900  0.79033200  0.97504000  1
  Al  Al8  1  0.22439700  0.82265200  0.27448700  1
  Al  Al9  1  0.22439700  0.67734800  0.77448700  1
  Al  Al10  1  0.77560300  0.17734800  0.72551300  1
  Al  Al11  1  0.77560300  0.32265200  0.22551300  1
  B  B12  1  0.20149700  0.39394900  0.63733600  1
  B  B13  1  0.79850300  0.60605100  0.36266400  1
  B  B14  1  0.20149700  0.10605100  0.13733600  1
  B  B15  1  0.79850300  0.89394900  0.86266400  1
  As  As16  1  0.74133600  0.85443700  0.46570300  1
  As  As17  1  0.25866400  0.35443700  0.03429700  1
  As  As18  1  0.25866400  0.14556300  0.53429700  1
  As  As19  1  0.27306400  0.27883200  0.78430100  1
  As  As20  1  0.26291900  0.39303900  0.37501800  1
  As  As21  1  0.74133600  0.64556300  0.96570300  1
  As  As22  1  0.73708100  0.60696100  0.62498200  1
  As  As23  1  0.73708100  0.89303900  0.12498200  1
  As  As24  1  0.27306400  0.22116800  0.28430100  1
  As  As25  1  0.26291900  0.10696100  0.87501800  1
  As  As26  1  0.72693600  0.72116800  0.21569900  1
  As  As27  1  0.72693600  0.77883200  0.71569900  1
  As  As28  1  0.70226400  0.46447400  0.70826000  1
  As  As29  1  0.29773600  0.96447400  0.79174000  1
  As  As30  1  0.29773600  0.53552600  0.29174000  1
  As  As31  1  0.70226400  0.03552600  0.20826000  1
  O  O32  1  0.90241600  0.65982900  0.28836400  1
  O  O33  1  0.99029400  0.89550200  0.23472500  1
  O  O34  1  0.98505800  0.77226500  0.16838300  1
  O  O35  1  0.02352500  0.30056600  0.09650100  1
  O  O36  1  0.88995400  0.58216600  0.02769800  1
  O  O37  1  0.39839900  0.47121100  0.38907000  1
  O  O38  1  0.54652300  0.25220000  0.69820900  1
  O  O39  1  0.01494200  0.22773500  0.83161700  1
  O  O40  1  0.35561200  0.98272600  0.65014200  1
  O  O41  1  0.56332600  0.80702600  0.58200900  1
  O  O42  1  0.90241600  0.84017100  0.78836400  1
  O  O43  1  0.51567100  0.40195000  0.64120200  1
  O  O44  1  0.99029400  0.60449800  0.73472500  1
  O  O45  1  0.09758400  0.34017100  0.71163600  1
  O  O46  1  0.11004600  0.08216600  0.47230200  1
  O  O47  1  0.60160100  0.52878900  0.61093000  1
  O  O48  1  0.45414600  0.84287000  0.13575500  1
  O  O49  1  0.54585400  0.15713000  0.86424500  1
  O  O50  1  0.45347700  0.74780000  0.30179100  1
  O  O51  1  0.88995400  0.91783400  0.52769800  1
  O  O52  1  0.01494200  0.27226500  0.33161700  1
  O  O53  1  0.54652300  0.24780000  0.19820900  1
  O  O54  1  0.89296200  0.87692000  0.98744200  1
  O  O55  1  0.54633500  0.12766600  0.62443900  1
  O  O56  1  0.09758400  0.15982900  0.21163600  1
  O  O57  1  0.97647500  0.69943400  0.90349900  1
  O  O58  1  0.43667400  0.30702600  0.91799100  1
  O  O59  1  0.97647500  0.80056600  0.40349900  1
  O  O60  1  0.45347700  0.75220000  0.80179100  1
  O  O61  1  0.64438800  0.01727400  0.34985800  1
  O  O62  1  0.10703800  0.37692000  0.51255800  1
  O  O63  1  0.54585400  0.34287000  0.36424500  1
  O  O64  1  0.45366500  0.62766600  0.87556100  1
  O  O65  1  0.64438800  0.48272600  0.84985800  1
  O  O66  1  0.45414600  0.65713000  0.63575500  1
  O  O67  1  0.11004600  0.41783400  0.97230200  1
  O  O68  1  0.35561200  0.51727400  0.15014200  1
  O  O69  1  0.48432900  0.59805000  0.35879800  1
  O  O70  1  0.43667400  0.19297400  0.41799100  1
  O  O71  1  0.93800000  0.54717000  0.32282800  1
  O  O72  1  0.48432900  0.90195000  0.85879800  1
  O  O73  1  0.45366500  0.87233400  0.37556100  1
  O  O74  1  0.51567100  0.09805000  0.14120200  1
  O  O75  1  0.00970600  0.10449800  0.76527500  1
  O  O76  1  0.56332600  0.69297400  0.08200900  1
  O  O77  1  0.39839900  0.02878900  0.88907000  1
  O  O78  1  0.93800000  0.95283000  0.82282800  1
  O  O79  1  0.06200000  0.45283000  0.67717200  1
  O  O80  1  0.60160100  0.97121100  0.11093000  1
  O  O81  1  0.54633500  0.37233400  0.12443900  1
  O  O82  1  0.89296200  0.62308000  0.48744200  1
  O  O83  1  0.10703800  0.12308000  0.01255800  1
  O  O84  1  0.98505800  0.72773500  0.66838300  1
  O  O85  1  0.02352500  0.19943400  0.59650100  1
  O  O86  1  0.06200000  0.04717000  0.17717200  1
  O  O87  1  0.00970600  0.39550200  0.26527500  1
