# generated using pymatgen
data_K5NaCe2(SO4)6
_symmetry_space_group_name_H-M   'P 1'
_cell_length_a   9.34470200
_cell_length_b   16.54193000
_cell_length_c   7.85972103
_cell_angle_alpha   90.00000000
_cell_angle_beta   111.00351298
_cell_angle_gamma   90.00000000
_symmetry_Int_Tables_number   1
_chemical_formula_structural   K5NaCe2(SO4)6
_chemical_formula_sum   'K10 Na2 Ce4 S12 O48'
_cell_volume   1134.22778534
_cell_formula_units_Z   2
loop_
 _symmetry_equiv_pos_site_id
 _symmetry_equiv_pos_as_xyz
  1  'x, y, z'
loop_
 _atom_site_type_symbol
 _atom_site_label
 _atom_site_symmetry_multiplicity
 _atom_site_fract_x
 _atom_site_fract_y
 _atom_site_fract_z
 _atom_site_occupancy
  K  K0  1  0.77618900  0.84484200  0.87990600  1
  K  K1  1  0.72381100  0.65515800  0.12009400  1
  K  K2  1  0.22381100  0.84484200  0.12009400  1
  K  K3  1  0.50000000  0.00000000  0.50000000  1
  K  K4  1  0.27618900  0.65515800  0.87990600  1
  K  K5  1  0.27618900  0.34484200  0.87990600  1
  K  K6  1  0.22381100  0.15515800  0.12009400  1
  K  K7  1  0.72381100  0.34484200  0.12009400  1
  K  K8  1  0.00000000  0.50000000  0.50000000  1
  K  K9  1  0.77618900  0.15515800  0.87990600  1
  Na  Na10  1  0.50000000  0.00000000  0.00000000  1
  Na  Na11  1  0.00000000  0.50000000  0.00000000  1
  Ce  Ce12  1  0.00000000  0.85662300  0.50000000  1
  Ce  Ce13  1  0.50000000  0.64337700  0.50000000  1
  Ce  Ce14  1  0.50000000  0.35662300  0.50000000  1
  Ce  Ce15  1  0.00000000  0.14337700  0.50000000  1
  S  S16  1  0.09535300  0.00000000  0.80340900  1
  S  S17  1  0.62665300  0.83452300  0.31778000  1
  S  S18  1  0.90464700  0.00000000  0.19659100  1
  S  S19  1  0.37334700  0.83452300  0.68222000  1
  S  S20  1  0.87334700  0.66547700  0.68222000  1
  S  S21  1  0.12665300  0.66547700  0.31778000  1
  S  S22  1  0.59535300  0.50000000  0.80340900  1
  S  S23  1  0.12665300  0.33452300  0.31778000  1
  S  S24  1  0.40464700  0.50000000  0.19659100  1
  S  S25  1  0.87334700  0.33452300  0.68222000  1
  S  S26  1  0.37334700  0.16547700  0.68222000  1
  S  S27  1  0.62665300  0.16547700  0.31778000  1
  O  O28  1  0.48175150  0.89889450  0.77778800  1
  O  O29  1  0.00014850  0.92538550  0.78910900  1
  O  O30  1  0.96270700  0.74139500  0.68809500  1
  O  O31  1  0.01824850  0.60110550  0.22221200  1
  O  O32  1  0.25684300  0.81869300  0.76952200  1
  O  O33  1  0.53729300  0.75860500  0.31190500  1
  O  O34  1  0.78386600  0.64083300  0.49014200  1
  O  O35  1  0.77197700  0.00000000  0.02479400  1
  O  O36  1  0.74315700  0.81869300  0.23047800  1
  O  O37  1  0.46270700  0.75860500  0.68809500  1
  O  O38  1  0.03729300  0.74139500  0.31190500  1
  O  O39  1  0.85778200  0.00000000  0.36094000  1
  O  O40  1  0.75684300  0.68130700  0.76952200  1
  O  O41  1  0.14221800  0.00000000  0.63906000  1
  O  O42  1  0.50014850  0.57461450  0.78910900  1
  O  O43  1  0.21613400  0.64083300  0.50985800  1
  O  O44  1  0.51824850  0.89889450  0.22221200  1
  O  O45  1  0.22802300  0.00000000  0.97520600  1
  O  O46  1  0.28386600  0.85916700  0.49014200  1
  O  O47  1  0.98175150  0.60110550  0.77778800  1
  O  O48  1  0.71613400  0.85916700  0.50985800  1
  O  O49  1  0.24315700  0.68130700  0.23047800  1
  O  O50  1  0.99985150  0.92538550  0.21089100  1
  O  O51  1  0.49985150  0.57461450  0.21089100  1
  O  O52  1  0.98175150  0.39889450  0.77778800  1
  O  O53  1  0.50014850  0.42538550  0.78910900  1
  O  O54  1  0.46270700  0.24139500  0.68809500  1
  O  O55  1  0.51824850  0.10110550  0.22221200  1
  O  O56  1  0.75684300  0.31869300  0.76952200  1
  O  O57  1  0.03729300  0.25860500  0.31190500  1
  O  O58  1  0.28386600  0.14083300  0.49014200  1
  O  O59  1  0.27197700  0.50000000  0.02479400  1
  O  O60  1  0.24315700  0.31869300  0.23047800  1
  O  O61  1  0.96270700  0.25860500  0.68809500  1
  O  O62  1  0.53729300  0.24139500  0.31190500  1
  O  O63  1  0.35778200  0.50000000  0.36094000  1
  O  O64  1  0.25684300  0.18130700  0.76952200  1
  O  O65  1  0.64221800  0.50000000  0.63906000  1
  O  O66  1  0.00014850  0.07461450  0.78910900  1
  O  O67  1  0.71613400  0.14083300  0.50985800  1
  O  O68  1  0.01824850  0.39889450  0.22221200  1
  O  O69  1  0.72802300  0.50000000  0.97520600  1
  O  O70  1  0.78386600  0.35916700  0.49014200  1
  O  O71  1  0.48175150  0.10110550  0.77778800  1
  O  O72  1  0.21613400  0.35916700  0.50985800  1
  O  O73  1  0.74315700  0.18130700  0.23047800  1
  O  O74  1  0.49985150  0.42538550  0.21089100  1
  O  O75  1  0.99985150  0.07461450  0.21089100  1
