# generated using pymatgen
data_SrDy2O4
_symmetry_space_group_name_H-M   'P 1'
_cell_length_a   3.43427900
_cell_length_b   10.15742100
_cell_length_c   12.00685700
_cell_angle_alpha   90.00000000
_cell_angle_beta   90.00000000
_cell_angle_gamma   90.00000000
_symmetry_Int_Tables_number   1
_chemical_formula_structural   SrDy2O4
_chemical_formula_sum   'Sr4 Dy8 O16'
_cell_volume   418.84020721
_cell_formula_units_Z   4
loop_
 _symmetry_equiv_pos_site_id
 _symmetry_equiv_pos_as_xyz
  1  'x, y, z'
loop_
 _atom_site_type_symbol
 _atom_site_label
 _atom_site_symmetry_multiplicity
 _atom_site_fract_x
 _atom_site_fract_y
 _atom_site_fract_z
 _atom_site_occupancy
  Sr  Sr0  1  0.75000000  0.25244600  0.14869900  1
  Sr  Sr1  1  0.25000000  0.24755400  0.64869900  1
  Sr  Sr2  1  0.75000000  0.75244600  0.35130100  1
  Sr  Sr3  1  0.25000000  0.74755400  0.85130100  1
  Dy  Dy4  1  0.25000000  0.57633900  0.11109400  1
  Dy  Dy5  1  0.75000000  0.42216300  0.38801700  1
  Dy  Dy6  1  0.25000000  0.57783700  0.61198300  1
  Dy  Dy7  1  0.75000000  0.42366100  0.88890600  1
  Dy  Dy8  1  0.25000000  0.07633900  0.38890600  1
  Dy  Dy9  1  0.25000000  0.07783700  0.88801700  1
  Dy  Dy10  1  0.75000000  0.92216300  0.11198300  1
  Dy  Dy11  1  0.75000000  0.92366100  0.61109400  1
  O  O12  1  0.25000000  0.37439500  0.01965400  1
  O  O13  1  0.25000000  0.98627100  0.71628400  1
  O  O14  1  0.25000000  0.57382600  0.42245800  1
  O  O15  1  0.75000000  0.92617400  0.92245800  1
  O  O16  1  0.75000000  0.21217700  0.82517700  1
  O  O17  1  0.75000000  0.12560500  0.51965400  1
  O  O18  1  0.25000000  0.28782300  0.32517700  1
  O  O19  1  0.25000000  0.48627100  0.78371600  1
  O  O20  1  0.25000000  0.07382600  0.07754200  1
  O  O21  1  0.75000000  0.71217700  0.67482300  1
  O  O22  1  0.75000000  0.01372900  0.28371600  1
  O  O23  1  0.75000000  0.42617400  0.57754200  1
  O  O24  1  0.75000000  0.62560500  0.98034600  1
  O  O25  1  0.75000000  0.51372900  0.21628400  1
  O  O26  1  0.25000000  0.87439500  0.48034600  1
  O  O27  1  0.25000000  0.78782300  0.17482300  1
