# generated using pymatgen
data_RbYbI3
_symmetry_space_group_name_H-M   'P 1'
_cell_length_a   4.67126900
_cell_length_b   10.63430000
_cell_length_c   17.50834000
_cell_angle_alpha   90.00000000
_cell_angle_beta   90.00000000
_cell_angle_gamma   90.00000000
_symmetry_Int_Tables_number   1
_chemical_formula_structural   RbYbI3
_chemical_formula_sum   'Rb4 Yb4 I12'
_cell_volume   869.73862385
_cell_formula_units_Z   4
loop_
 _symmetry_equiv_pos_site_id
 _symmetry_equiv_pos_as_xyz
  1  'x, y, z'
loop_
 _atom_site_type_symbol
 _atom_site_label
 _atom_site_symmetry_multiplicity
 _atom_site_fract_x
 _atom_site_fract_y
 _atom_site_fract_z
 _atom_site_occupancy
  Rb  Rb0  1  0.75000000  0.07316000  0.67894000  1
  Rb  Rb1  1  0.25000000  0.92684000  0.32106000  1
  Rb  Rb2  1  0.25000000  0.42684000  0.17894000  1
  Rb  Rb3  1  0.75000000  0.57316000  0.82106000  1
  Yb  Yb4  1  0.75000000  0.83183000  0.05445600  1
  Yb  Yb5  1  0.75000000  0.33183000  0.44554400  1
  Yb  Yb6  1  0.25000000  0.66817000  0.55445600  1
  Yb  Yb7  1  0.25000000  0.16817000  0.94554400  1
  I  I8  1  0.25000000  0.51827500  0.39668000  1
  I  I9  1  0.75000000  0.70488800  0.21159500  1
  I  I10  1  0.75000000  0.20488800  0.28840500  1
  I  I11  1  0.25000000  0.16625500  0.51103300  1
  I  I12  1  0.25000000  0.79511200  0.71159500  1
  I  I13  1  0.75000000  0.83374500  0.48896700  1
  I  I14  1  0.25000000  0.01827500  0.10332000  1
  I  I15  1  0.75000000  0.33374500  0.01103300  1
  I  I16  1  0.75000000  0.48172500  0.60332000  1
  I  I17  1  0.75000000  0.98172500  0.89668000  1
  I  I18  1  0.25000000  0.66625500  0.98896700  1
  I  I19  1  0.25000000  0.29511200  0.78840500  1
