# generated using pymatgen
data_Zn3As2(HO)16
_symmetry_space_group_name_H-M   'P 1'
_cell_length_a   11.40559000
_cell_length_b   13.26614200
_cell_length_c   4.96334995
_cell_angle_alpha   90.00000000
_cell_angle_beta   99.92610593
_cell_angle_gamma   90.00000000
_symmetry_Int_Tables_number   1
_chemical_formula_structural   Zn3As2(HO)16
_chemical_formula_sum   'Zn6 As4 H32 O32'
_cell_volume   739.75369441
_cell_formula_units_Z   2
loop_
 _symmetry_equiv_pos_site_id
 _symmetry_equiv_pos_as_xyz
  1  'x, y, z'
loop_
 _atom_site_type_symbol
 _atom_site_label
 _atom_site_symmetry_multiplicity
 _atom_site_fract_x
 _atom_site_fract_y
 _atom_site_fract_z
 _atom_site_occupancy
  Zn  Zn0  1  0.00000000  0.00000000  0.00000000  1
  Zn  Zn1  1  0.50000000  0.12176100  0.00000000  1
  Zn  Zn2  1  0.50000000  0.87823900  0.00000000  1
  Zn  Zn3  1  0.50000000  0.50000000  0.00000000  1
  Zn  Zn4  1  0.00000000  0.62176100  0.00000000  1
  Zn  Zn5  1  0.00000000  0.37823900  0.00000000  1
  As  As6  1  0.68620300  0.00000000  0.63260800  1
  As  As7  1  0.31379700  0.00000000  0.36739200  1
  As  As8  1  0.18620300  0.50000000  0.63260800  1
  As  As9  1  0.81379700  0.50000000  0.36739200  1
  H  H10  1  0.59925100  0.60521600  0.62409800  1
  H  H11  1  0.40074900  0.60521600  0.37590200  1
  H  H12  1  0.40074900  0.39478400  0.37590200  1
  H  H13  1  0.59925100  0.39478400  0.62409800  1
  H  H14  1  0.33393850  0.14889250  0.67383100  1
  H  H15  1  0.66606150  0.14889250  0.32616900  1
  H  H16  1  0.66606150  0.85110750  0.32616900  1
  H  H17  1  0.33393850  0.85110750  0.67383100  1
  H  H18  1  0.30705500  0.19394900  0.06997700  1
  H  H19  1  0.69294500  0.19394900  0.93002300  1
  H  H20  1  0.69294500  0.80605100  0.93002300  1
  H  H21  1  0.30705500  0.80605100  0.06997700  1
  H  H22  1  0.40424100  0.31997300  0.11043300  1
  H  H23  1  0.59575900  0.31997300  0.88956700  1
  H  H24  1  0.59575900  0.68002700  0.88956700  1
  H  H25  1  0.40424100  0.68002700  0.11043300  1
  H  H26  1  0.09925100  0.10521600  0.62409800  1
  H  H27  1  0.90074900  0.10521600  0.37590200  1
  H  H28  1  0.90074900  0.89478400  0.37590200  1
  H  H29  1  0.09925100  0.89478400  0.62409800  1
  H  H30  1  0.83393850  0.64889250  0.67383100  1
  H  H31  1  0.16606150  0.64889250  0.32616900  1
  H  H32  1  0.16606150  0.35110750  0.32616900  1
  H  H33  1  0.83393850  0.35110750  0.67383100  1
  H  H34  1  0.80705500  0.69394900  0.06997700  1
  H  H35  1  0.19294500  0.69394900  0.93002300  1
  H  H36  1  0.19294500  0.30605100  0.93002300  1
  H  H37  1  0.80705500  0.30605100  0.06997700  1
  H  H38  1  0.90424100  0.81997300  0.11043300  1
  H  H39  1  0.09575900  0.81997300  0.88956700  1
  H  H40  1  0.09575900  0.18002700  0.88956700  1
  H  H41  1  0.90424100  0.18002700  0.11043300  1
  O  O42  1  0.83528600  0.00000000  0.66646600  1
  O  O43  1  0.16471400  0.00000000  0.33353400  1
  O  O44  1  0.60936500  0.00000000  0.90398700  1
  O  O45  1  0.39063500  0.00000000  0.09601300  1
  O  O46  1  0.62517450  0.89038950  0.46333300  1
  O  O47  1  0.37482550  0.89038950  0.53666700  1
  O  O48  1  0.37482550  0.10961050  0.53666700  1
  O  O49  1  0.62517450  0.10961050  0.46333300  1
  O  O50  1  0.56703150  0.38533150  0.79289300  1
  O  O51  1  0.43296850  0.38533150  0.20710700  1
  O  O52  1  0.43296850  0.61466850  0.20710700  1
  O  O53  1  0.56703150  0.61466850  0.79289300  1
  O  O54  1  0.63837500  0.78425900  0.04948300  1
  O  O55  1  0.36162500  0.78425900  0.95051700  1
  O  O56  1  0.36162500  0.21574100  0.95051700  1
  O  O57  1  0.63837500  0.21574100  0.04948300  1
  O  O58  1  0.33528600  0.50000000  0.66646600  1
  O  O59  1  0.66471400  0.50000000  0.33353400  1
  O  O60  1  0.10936500  0.50000000  0.90398700  1
  O  O61  1  0.89063500  0.50000000  0.09601300  1
  O  O62  1  0.12517450  0.39038950  0.46333300  1
  O  O63  1  0.87482550  0.39038950  0.53666700  1
  O  O64  1  0.87482550  0.60961050  0.53666700  1
  O  O65  1  0.12517450  0.60961050  0.46333300  1
  O  O66  1  0.06703150  0.88533150  0.79289300  1
  O  O67  1  0.93296850  0.88533150  0.20710700  1
  O  O68  1  0.93296850  0.11466850  0.20710700  1
  O  O69  1  0.06703150  0.11466850  0.79289300  1
  O  O70  1  0.13837500  0.28425900  0.04948300  1
  O  O71  1  0.86162500  0.28425900  0.95051700  1
  O  O72  1  0.86162500  0.71574100  0.95051700  1
  O  O73  1  0.13837500  0.71574100  0.04948300  1
