# generated using pymatgen
data_Bi12PtCl12
_symmetry_space_group_name_H-M   'P 1'
_cell_length_a   9.33458800
_cell_length_b   9.41478639
_cell_length_c   9.54304466
_cell_angle_alpha   89.42792052
_cell_angle_beta   89.43761478
_cell_angle_gamma   87.58955582
_symmetry_Int_Tables_number   1
_chemical_formula_structural   Bi12PtCl12
_chemical_formula_sum   'Bi12 Pt1 Cl12'
_cell_volume   837.85195118
_cell_formula_units_Z   1
loop_
 _symmetry_equiv_pos_site_id
 _symmetry_equiv_pos_as_xyz
  1  'x, y, z'
loop_
 _atom_site_type_symbol
 _atom_site_label
 _atom_site_symmetry_multiplicity
 _atom_site_fract_x
 _atom_site_fract_y
 _atom_site_fract_z
 _atom_site_occupancy
  Bi  Bi0  1  0.03541600  0.28526600  0.03399300  1
  Bi  Bi1  1  0.70851200  0.04115500  0.03983700  1
  Bi  Bi2  1  0.96379100  0.71260300  0.96819200  1
  Bi  Bi3  1  0.54265900  0.49736300  0.76086000  1
  Bi  Bi4  1  0.54264600  0.72907100  0.55216800  1
  Bi  Bi5  1  0.29017800  0.95912300  0.95827900  1
  Bi  Bi6  1  0.03332200  0.95474500  0.28361800  1
  Bi  Bi7  1  0.96466200  0.03865800  0.71559100  1
  Bi  Bi8  1  0.45370500  0.26129200  0.39826800  1
  Bi  Bi9  1  0.47540900  0.54648300  0.27281400  1
  Bi  Bi10  1  0.71812400  0.43716800  0.48403200  1
  Bi  Bi11  1  0.28781000  0.49786600  0.56073700  1
  Pt  Pt12  1  0.99936900  0.99921900  0.99971700  1
  Cl  Cl13  1  0.66769400  0.07152300  0.75027800  1
  Cl  Cl14  1  0.66788000  0.75005500  0.01786400  1
  Cl  Cl15  1  0.07087300  0.24819900  0.32577100  1
  Cl  Cl16  1  0.26329100  0.99074500  0.66776900  1
  Cl  Cl17  1  0.73733700  0.00190300  0.33218400  1
  Cl  Cl18  1  0.33090800  0.91868300  0.24935200  1
  Cl  Cl19  1  0.00345000  0.66229800  0.25345800  1
  Cl  Cl20  1  0.73855900  0.33729700  0.07378500  1
  Cl  Cl21  1  0.33078400  0.24798200  0.98954600  1
  Cl  Cl22  1  0.92727100  0.75076900  0.67373300  1
  Cl  Cl23  1  0.99637000  0.33773300  0.74368800  1
  Cl  Cl24  1  0.26037800  0.66069900  0.93196700  1
