# generated using pymatgen
data_Na2Zr12B2I5Cl23
_symmetry_space_group_name_H-M   'P 1'
_cell_length_a   13.49807200
_cell_length_b   13.62145300
_cell_length_c   13.49946427
_cell_angle_alpha   90.00000000
_cell_angle_beta   90.03323287
_cell_angle_gamma   90.00000000
_symmetry_Int_Tables_number   1
_chemical_formula_structural   Na2Zr12B2I5Cl23
_chemical_formula_sum   'Na4 Zr24 B4 I10 Cl46'
_cell_volume   2482.05635159
_cell_formula_units_Z   2
loop_
 _symmetry_equiv_pos_site_id
 _symmetry_equiv_pos_as_xyz
  1  'x, y, z'
loop_
 _atom_site_type_symbol
 _atom_site_label
 _atom_site_symmetry_multiplicity
 _atom_site_fract_x
 _atom_site_fract_y
 _atom_site_fract_z
 _atom_site_occupancy
  Na  Na0  1  0.28426100  0.53400100  0.28278200  1
  Na  Na1  1  0.28426100  0.46599900  0.78278200  1
  Na  Na2  1  0.22383800  0.03027900  0.28427700  1
  Na  Na3  1  0.22383800  0.96972100  0.78427700  1
  Zr  Zr4  1  0.94892400  0.09900500  0.43657400  1
  Zr  Zr5  1  0.94892400  0.90099500  0.93657400  1
  Zr  Zr6  1  0.93335900  0.79375700  0.15203500  1
  Zr  Zr7  1  0.93335900  0.20624300  0.65203500  1
  Zr  Zr8  1  0.84540800  0.31542200  0.45336300  1
  Zr  Zr9  1  0.84540800  0.68457800  0.95336300  1
  Zr  Zr10  1  0.65465900  0.81329700  0.45374400  1
  Zr  Zr11  1  0.65465900  0.18670300  0.95374400  1
  Zr  Zr12  1  0.56680800  0.29605200  0.15269200  1
  Zr  Zr13  1  0.56680800  0.70394800  0.65269200  1
  Zr  Zr14  1  0.54938100  0.59810600  0.43699100  1
  Zr  Zr15  1  0.54938100  0.40189400  0.93699100  1
  Zr  Zr16  1  0.45824000  0.09992200  0.06447700  1
  Zr  Zr17  1  0.45824000  0.90007800  0.56447700  1
  Zr  Zr18  1  0.43945300  0.79496400  0.34800100  1
  Zr  Zr19  1  0.43945300  0.20503600  0.84800100  1
  Zr  Zr20  1  0.35022600  0.31313200  0.04538800  1
  Zr  Zr21  1  0.35022600  0.68686800  0.54538800  1
  Zr  Zr22  1  0.14982200  0.18804200  0.54419100  1
  Zr  Zr23  1  0.14982200  0.81195800  0.04419100  1
  Zr  Zr24  1  0.06198100  0.69923800  0.84786800  1
  Zr  Zr25  1  0.06198100  0.30076200  0.34786800  1
  Zr  Zr26  1  0.04280800  0.59841800  0.06468700  1
  Zr  Zr27  1  0.04280800  0.40158200  0.56468700  1
  B  B28  1  0.99690500  0.74933000  0.99906400  1
  B  B29  1  0.99690500  0.25067000  0.49906400  1
  B  B30  1  0.50334600  0.74918400  0.50032600  1
  B  B31  1  0.50334600  0.25081600  0.00032600  1
  I  I32  1  0.86825000  0.88308400  0.36943200  1
  I  I33  1  0.86825000  0.11691600  0.86943200  1
  I  I34  1  0.63133700  0.38350000  0.36859300  1
  I  I35  1  0.63133700  0.61650000  0.86859300  1
  I  I36  1  0.36456700  0.11474300  0.63490400  1
  I  I37  1  0.36456700  0.88525700  0.13490400  1
  I  I38  1  0.13710100  0.61156800  0.63664100  1
  I  I39  1  0.13710100  0.38843200  0.13664100  1
  I  I40  1  0.01689200  0.12814200  0.23218400  1
  I  I41  1  0.01689200  0.87185800  0.73218400  1
  Cl  Cl42  1  0.98012000  0.63356900  0.23885900  1
  Cl  Cl43  1  0.98012000  0.36643100  0.73885900  1
  Cl  Cl44  1  0.90233900  0.37529100  0.28387100  1
  Cl  Cl45  1  0.90233900  0.62470900  0.78387100  1
  Cl  Cl46  1  0.88218400  0.51221900  0.02127900  1
  Cl  Cl47  1  0.88218400  0.48778100  0.52127900  1
  Cl  Cl48  1  0.87374000  0.96162800  0.09656400  1
  Cl  Cl49  1  0.87374000  0.03837200  0.59656400  1
  Cl  Cl50  1  0.78013400  0.15543600  0.37912700  1
  Cl  Cl51  1  0.78013400  0.84456400  0.87912700  1
  Cl  Cl52  1  0.76092000  0.72690000  0.11734600  1
  Cl  Cl53  1  0.76092000  0.27310000  0.61734600  1
  Cl  Cl54  1  0.73941600  0.22976700  0.11757300  1
  Cl  Cl55  1  0.73941600  0.77023300  0.61757300  1
  Cl  Cl56  1  0.71772100  0.65327800  0.37784600  1
  Cl  Cl57  1  0.71772100  0.34672200  0.87784600  1
  Cl  Cl58  1  0.62005700  0.46666700  0.09818400  1
  Cl  Cl59  1  0.62005700  0.53333300  0.59818400  1
  Cl  Cl60  1  0.61824800  0.01357500  0.01996700  1
  Cl  Cl61  1  0.61824800  0.98642500  0.51996700  1
  Cl  Cl62  1  0.59774300  0.86939000  0.28242700  1
  Cl  Cl63  1  0.59774300  0.13061000  0.78242700  1
  Cl  Cl64  1  0.52015900  0.13482700  0.23906000  1
  Cl  Cl65  1  0.52015900  0.86517300  0.73906000  1
  Cl  Cl66  1  0.47698300  0.63079200  0.26120800  1
  Cl  Cl67  1  0.47698300  0.36920800  0.76120800  1
  Cl  Cl68  1  0.40243400  0.37005000  0.21796400  1
  Cl  Cl69  1  0.40243400  0.62995000  0.71796400  1
  Cl  Cl70  1  0.38197100  0.48743100  0.97713000  1
  Cl  Cl71  1  0.38197100  0.51256900  0.47713000  1
  Cl  Cl72  1  0.38056200  0.96593200  0.40281700  1
  Cl  Cl73  1  0.38056200  0.03406800  0.90281700  1
  Cl  Cl74  1  0.28297000  0.15250100  0.11828300  1
  Cl  Cl75  1  0.28297000  0.84749900  0.61828300  1
  Cl  Cl76  1  0.26200400  0.72784100  0.38124200  1
  Cl  Cl77  1  0.26200400  0.27215900  0.88124200  1
  Cl  Cl78  1  0.23858700  0.23012100  0.38114000  1
  Cl  Cl79  1  0.23858700  0.76987900  0.88114000  1
  Cl  Cl80  1  0.21832900  0.65218800  0.11843900  1
  Cl  Cl81  1  0.21832900  0.34781200  0.61843900  1
  Cl  Cl82  1  0.12117400  0.53017400  0.90435000  1
  Cl  Cl83  1  0.12117400  0.46982600  0.40435000  1
  Cl  Cl84  1  0.11671900  0.98642400  0.97716800  1
  Cl  Cl85  1  0.11671900  0.01357600  0.47716800  1
  Cl  Cl86  1  0.09801800  0.86677700  0.21744200  1
  Cl  Cl87  1  0.09801800  0.13322300  0.71744200  1
