# generated using pymatgen
data_Al2CdS4
_symmetry_space_group_name_H-M   'P 1'
_cell_length_a   5.63949600
_cell_length_b   5.63949600
_cell_length_c   10.25552800
_cell_angle_alpha   90.00000000
_cell_angle_beta   90.00000000
_cell_angle_gamma   90.00000000
_symmetry_Int_Tables_number   1
_chemical_formula_structural   Al2CdS4
_chemical_formula_sum   'Al4 Cd2 S8'
_cell_volume   326.16594217
_cell_formula_units_Z   2
loop_
 _symmetry_equiv_pos_site_id
 _symmetry_equiv_pos_as_xyz
  1  'x, y, z'
loop_
 _atom_site_type_symbol
 _atom_site_label
 _atom_site_symmetry_multiplicity
 _atom_site_fract_x
 _atom_site_fract_y
 _atom_site_fract_z
 _atom_site_occupancy
  Al  Al0  1  0.50000000  0.00000000  0.25000000  1
  Al  Al1  1  0.00000000  0.00000000  0.00000000  1
  Al  Al2  1  0.00000000  0.50000000  0.75000000  1
  Al  Al3  1  0.50000000  0.50000000  0.50000000  1
  Cd  Cd4  1  0.50000000  0.50000000  0.00000000  1
  Cd  Cd5  1  0.00000000  0.00000000  0.50000000  1
  S  S6  1  0.28051700  0.73580400  0.36586000  1
  S  S7  1  0.71948300  0.26419600  0.36586000  1
  S  S8  1  0.23580400  0.21948300  0.13414000  1
  S  S9  1  0.76419600  0.78051700  0.13414000  1
  S  S10  1  0.78051700  0.23580400  0.86586000  1
  S  S11  1  0.21948300  0.76419600  0.86586000  1
  S  S12  1  0.73580400  0.71948300  0.63414000  1
  S  S13  1  0.26419600  0.28051700  0.63414000  1
