# generated using pymatgen
data_Na2AlZnF7
_symmetry_space_group_name_H-M   'P 1'
_cell_length_a   7.20366200
_cell_length_b   7.47887400
_cell_length_c   10.27904200
_cell_angle_alpha   90.00000000
_cell_angle_beta   90.00000000
_cell_angle_gamma   90.00000000
_symmetry_Int_Tables_number   1
_chemical_formula_structural   Na2AlZnF7
_chemical_formula_sum   'Na8 Al4 Zn4 F28'
_cell_volume   553.78627037
_cell_formula_units_Z   4
loop_
 _symmetry_equiv_pos_site_id
 _symmetry_equiv_pos_as_xyz
  1  'x, y, z'
loop_
 _atom_site_type_symbol
 _atom_site_label
 _atom_site_symmetry_multiplicity
 _atom_site_fract_x
 _atom_site_fract_y
 _atom_site_fract_z
 _atom_site_occupancy
  Na  Na0  1  0.00000000  0.00000000  0.00000000  1
  Na  Na1  1  0.25000000  0.25000000  0.25000000  1
  Na  Na2  1  0.75000000  0.25000000  0.25000000  1
  Na  Na3  1  0.00000000  0.00000000  0.50000000  1
  Na  Na4  1  0.50000000  0.50000000  0.50000000  1
  Na  Na5  1  0.75000000  0.75000000  0.75000000  1
  Na  Na6  1  0.25000000  0.75000000  0.75000000  1
  Na  Na7  1  0.50000000  0.50000000  0.00000000  1
  Al  Al8  1  0.50000000  0.00000000  0.50000000  1
  Al  Al9  1  0.50000000  0.00000000  0.00000000  1
  Al  Al10  1  0.00000000  0.50000000  0.00000000  1
  Al  Al11  1  0.00000000  0.50000000  0.50000000  1
  Zn  Zn12  1  0.25000000  0.75000000  0.25000000  1
  Zn  Zn13  1  0.75000000  0.75000000  0.25000000  1
  Zn  Zn14  1  0.75000000  0.25000000  0.75000000  1
  Zn  Zn15  1  0.25000000  0.25000000  0.75000000  1
  F  F16  1  0.31516400  0.06394500  0.88850800  1
  F  F17  1  0.50000000  0.22127300  0.41715200  1
  F  F18  1  0.31516400  0.93605500  0.38850800  1
  F  F19  1  0.00000000  0.27872700  0.41715200  1
  F  F20  1  0.68483600  0.06394500  0.61149200  1
  F  F21  1  0.00000000  0.72127300  0.58284800  1
  F  F22  1  0.68483600  0.06394500  0.88850800  1
  F  F23  1  0.00000000  0.87384800  0.25000000  1
  F  F24  1  0.00000000  0.12615200  0.75000000  1
  F  F25  1  0.68483600  0.93605500  0.11149200  1
  F  F26  1  0.31516400  0.06394500  0.61149200  1
  F  F27  1  0.31516400  0.93605500  0.11149200  1
  F  F28  1  0.68483600  0.93605500  0.38850800  1
  F  F29  1  0.50000000  0.77872700  0.58284800  1
  F  F30  1  0.81516400  0.56394500  0.38850800  1
  F  F31  1  0.00000000  0.72127300  0.91715200  1
  F  F32  1  0.81516400  0.43605500  0.88850800  1
  F  F33  1  0.50000000  0.77872700  0.91715200  1
  F  F34  1  0.18483600  0.56394500  0.11149200  1
  F  F35  1  0.50000000  0.22127300  0.08284800  1
  F  F36  1  0.18483600  0.56394500  0.38850800  1
  F  F37  1  0.50000000  0.37384800  0.75000000  1
  F  F38  1  0.50000000  0.62615200  0.25000000  1
  F  F39  1  0.18483600  0.43605500  0.61149200  1
  F  F40  1  0.81516400  0.56394500  0.11149200  1
  F  F41  1  0.81516400  0.43605500  0.61149200  1
  F  F42  1  0.18483600  0.43605500  0.88850800  1
  F  F43  1  0.00000000  0.27872700  0.08284800  1
