# generated using pymatgen
data_CuP4I
_symmetry_space_group_name_H-M   'P 1'
_cell_length_a   9.84123600
_cell_length_b   13.95739300
_cell_length_c   13.16877860
_cell_angle_alpha   90.00000000
_cell_angle_beta   109.10332407
_cell_angle_gamma   90.00000000
_symmetry_Int_Tables_number   1
_chemical_formula_structural   CuP4I
_chemical_formula_sum   'Cu12 P48 I12'
_cell_volume   1709.22428094
_cell_formula_units_Z   12
loop_
 _symmetry_equiv_pos_site_id
 _symmetry_equiv_pos_as_xyz
  1  'x, y, z'
loop_
 _atom_site_type_symbol
 _atom_site_label
 _atom_site_symmetry_multiplicity
 _atom_site_fract_x
 _atom_site_fract_y
 _atom_site_fract_z
 _atom_site_occupancy
  Cu  Cu0  1  0.20920900  0.95956800  0.84808600  1
  Cu  Cu1  1  0.99425600  0.89237000  0.07643900  1
  Cu  Cu2  1  0.09559900  0.68259700  0.93873800  1
  Cu  Cu3  1  0.20491700  0.23631600  0.70993800  1
  Cu  Cu4  1  0.79079100  0.45956800  0.15191400  1
  Cu  Cu5  1  0.90440100  0.18259700  0.06126200  1
  Cu  Cu6  1  0.21097800  0.78628400  0.51231200  1
  Cu  Cu7  1  0.20641700  0.51027900  0.64226600  1
  Cu  Cu8  1  0.79358300  0.01027900  0.35773400  1
  Cu  Cu9  1  0.00574400  0.39237000  0.92356100  1
  Cu  Cu10  1  0.79508300  0.73631600  0.29006200  1
  Cu  Cu11  1  0.78902200  0.28628400  0.48768800  1
  P  P12  1  0.41067700  0.88100900  0.55823700  1
  P  P13  1  0.69162600  0.60643800  0.51192800  1
  P  P14  1  0.61414200  0.93982600  0.90254200  1
  P  P15  1  0.61456300  0.80283600  0.65218100  1
  P  P16  1  0.54953100  0.26995500  0.66251600  1
  P  P17  1  0.32411600  0.20176600  0.03142100  1
  P  P18  1  0.53295300  0.65530300  0.59030500  1
  P  P19  1  0.40927400  0.86491500  0.89838400  1
  P  P20  1  0.69225900  0.00550000  0.17476400  1
  P  P21  1  0.54369700  0.47714400  0.85997900  1
  P  P22  1  0.53327100  0.08762400  0.92351800  1
  P  P23  1  0.43605600  0.82856900  0.06836700  1
  P  P24  1  0.30774100  0.50550000  0.82523600  1
  P  P25  1  0.45359800  0.71862200  0.85067700  1
  P  P26  1  0.30472300  0.63676300  0.92225100  1
  P  P27  1  0.33299200  0.28064700  0.88161600  1
  P  P28  1  0.54136700  0.52657200  0.36996100  1
  P  P29  1  0.65038100  0.19230200  0.55375700  1
  P  P30  1  0.66700800  0.78064700  0.11838400  1
  P  P31  1  0.45046900  0.76995500  0.33748400  1
  P  P32  1  0.76653600  0.90808300  0.07046500  1
  P  P33  1  0.69527700  0.13676300  0.07774900  1
  P  P34  1  0.66996200  0.96229100  0.46766300  1
  P  P35  1  0.38585800  0.43982600  0.09745800  1
  P  P36  1  0.46704700  0.15530300  0.40969500  1
  P  P37  1  0.23346400  0.40808300  0.92953500  1
  P  P38  1  0.46672900  0.58762400  0.07648200  1
  P  P39  1  0.76859700  0.83292700  0.56000300  1
  P  P40  1  0.45863300  0.02657200  0.63003900  1
  P  P41  1  0.31897400  0.54417100  0.37957800  1
  P  P42  1  0.56408000  0.41832800  0.59810200  1
  P  P43  1  0.34961900  0.69230200  0.44624300  1
  P  P44  1  0.35125500  0.05285800  0.98107200  1
  P  P45  1  0.45630300  0.97714400  0.14002100  1
  P  P46  1  0.58932300  0.38100900  0.44176300  1
  P  P47  1  0.68102600  0.04417100  0.62042200  1
  P  P48  1  0.56394400  0.32856900  0.93163300  1
  P  P49  1  0.59072600  0.36491500  0.10161600  1
  P  P50  1  0.33003800  0.46229100  0.53233700  1
  P  P51  1  0.64874500  0.55285800  0.01892800  1
  P  P52  1  0.68565200  0.73967100  0.41770200  1
  P  P53  1  0.67588400  0.70176600  0.96857900  1
  P  P54  1  0.31434800  0.23967100  0.58229800  1
  P  P55  1  0.43592000  0.91832800  0.40189800  1
  P  P56  1  0.54640200  0.21862200  0.14932300  1
  P  P57  1  0.23140300  0.33292700  0.43999700  1
  P  P58  1  0.30837400  0.10643800  0.48807200  1
  P  P59  1  0.38543700  0.30283600  0.34781900  1
  I  I60  1  0.10321700  0.05871400  0.67509900  1
  I  I61  1  0.89610400  0.18528500  0.36972100  1
  I  I62  1  0.09823200  0.71804600  0.13773300  1
  I  I63  1  0.99698600  0.86127300  0.87191500  1
  I  I64  1  0.89678300  0.55871400  0.32490100  1
  I  I65  1  0.00301400  0.36127300  0.12808500  1
  I  I66  1  0.88935300  0.55867900  0.84690900  1
  I  I67  1  0.11064700  0.05867900  0.15309100  1
  I  I68  1  0.10389600  0.68528500  0.63027900  1
  I  I69  1  0.00260900  0.37347000  0.63309500  1
  I  I70  1  0.90176800  0.21804600  0.86226700  1
  I  I71  1  0.99739100  0.87347000  0.36690500  1
