# generated using pymatgen
data_KPrTe2
_symmetry_space_group_name_H-M   'P 1'
_cell_length_a   4.65500802
_cell_length_b   4.65500802
_cell_length_c   24.79689765
_cell_angle_alpha   90.00000000
_cell_angle_beta   90.00000000
_cell_angle_gamma   120.00000000
_symmetry_Int_Tables_number   1
_chemical_formula_structural   KPrTe2
_chemical_formula_sum   'K3 Pr3 Te6'
_cell_volume   465.33835353
_cell_formula_units_Z   3
loop_
 _symmetry_equiv_pos_site_id
 _symmetry_equiv_pos_as_xyz
  1  'x, y, z'
loop_
 _atom_site_type_symbol
 _atom_site_label
 _atom_site_symmetry_multiplicity
 _atom_site_fract_x
 _atom_site_fract_y
 _atom_site_fract_z
 _atom_site_occupancy
  K  K0  1  0.33333333  0.66666667  0.16666667  1
  K  K1  1  1.00000000  1.00000000  0.50000000  1
  K  K2  1  0.66666667  0.33333333  0.83333333  1
  Pr  Pr3  1  0.00000000  0.00000000  0.00000000  1
  Pr  Pr4  1  0.66666667  0.33333333  0.33333333  1
  Pr  Pr5  1  0.33333333  0.66666667  0.66666667  1
  Te  Te6  1  0.66666667  0.33333333  0.07189933  1
  Te  Te7  1  0.00000000  0.00000000  0.26143400  1
  Te  Te8  1  0.33333333  0.66666667  0.40523267  1
  Te  Te9  1  0.66666667  0.33333333  0.59476733  1
  Te  Te10  1  0.00000000  0.00000000  0.73856600  1
  Te  Te11  1  0.33333333  0.66666667  0.92810067  1
