# generated using pymatgen
data_ThV4O12
_symmetry_space_group_name_H-M   'P 1'
_cell_length_a   8.75699800
_cell_length_b   8.75699800
_cell_length_c   29.62326600
_cell_angle_alpha   90.00000000
_cell_angle_beta   90.00000000
_cell_angle_gamma   90.00000000
_symmetry_Int_Tables_number   1
_chemical_formula_structural   ThV4O12
_chemical_formula_sum   'Th8 V32 O96'
_cell_volume   2271.66056711
_cell_formula_units_Z   8
loop_
 _symmetry_equiv_pos_site_id
 _symmetry_equiv_pos_as_xyz
  1  'x, y, z'
loop_
 _atom_site_type_symbol
 _atom_site_label
 _atom_site_symmetry_multiplicity
 _atom_site_fract_x
 _atom_site_fract_y
 _atom_site_fract_z
 _atom_site_occupancy
  Th  Th0  1  0.50000000  0.00000000  0.00000000  1
  Th  Th1  1  0.00000000  0.00000000  0.25000000  1
  Th  Th2  1  0.50000000  0.50000000  0.25000000  1
  Th  Th3  1  0.00000000  0.50000000  0.00000000  1
  Th  Th4  1  0.00000000  0.50000000  0.50000000  1
  Th  Th5  1  0.50000000  0.50000000  0.75000000  1
  Th  Th6  1  0.00000000  0.00000000  0.75000000  1
  Th  Th7  1  0.50000000  0.00000000  0.50000000  1
  V  V8  1  0.35582550  0.85936350  0.17510650  1
  V  V9  1  0.64063650  0.64417450  0.42510650  1
  V  V10  1  0.35582550  0.35936350  0.07489350  1
  V  V11  1  0.85582550  0.14063650  0.07489350  1
  V  V12  1  0.85936350  0.35582550  0.32489350  1
  V  V13  1  0.35936350  0.35582550  0.42510650  1
  V  V14  1  0.14417450  0.85936350  0.07489350  1
  V  V15  1  0.14063650  0.64417450  0.32489350  1
  V  V16  1  0.14063650  0.85582550  0.42510650  1
  V  V17  1  0.64417450  0.14063650  0.17510650  1
  V  V18  1  0.85582550  0.64063650  0.17510650  1
  V  V19  1  0.14417450  0.35936350  0.17510650  1
  V  V20  1  0.64417450  0.64063650  0.07489350  1
  V  V21  1  0.85936350  0.14417450  0.42510650  1
  V  V22  1  0.35936350  0.14417450  0.32489350  1
  V  V23  1  0.64063650  0.85582550  0.32489350  1
  V  V24  1  0.85582550  0.35936350  0.67510650  1
  V  V25  1  0.14063650  0.14417450  0.92510650  1
  V  V26  1  0.85582550  0.85936350  0.57489350  1
  V  V27  1  0.35582550  0.64063650  0.57489350  1
  V  V28  1  0.35936350  0.85582550  0.82489350  1
  V  V29  1  0.85936350  0.85582550  0.92510650  1
  V  V30  1  0.64417450  0.35936350  0.57489350  1
  V  V31  1  0.64063650  0.14417450  0.82489350  1
  V  V32  1  0.64063650  0.35582550  0.92510650  1
  V  V33  1  0.14417450  0.64063650  0.67510650  1
  V  V34  1  0.35582550  0.14063650  0.67510650  1
  V  V35  1  0.64417450  0.85936350  0.67510650  1
  V  V36  1  0.14417450  0.14063650  0.57489350  1
  V  V37  1  0.35936350  0.64417450  0.92510650  1
  V  V38  1  0.85936350  0.64417450  0.82489350  1
  V  V39  1  0.14063650  0.35582550  0.82489350  1
  O  O40  1  0.23914350  0.43321950  0.03490050  1
  O  O41  1  0.18347500  0.75000000  0.37500000  1
  O  O42  1  0.25000000  0.81652500  0.12500000  1
  O  O43  1  0.30374500  0.93483600  0.44534100  1
  O  O44  1  0.06516400  0.69625500  0.05465900  1
  O  O45  1  0.76085650  0.56678050  0.03490050  1
  O  O46  1  0.93483600  0.80374500  0.19534100  1
  O  O47  1  0.73914350  0.56678050  0.21509950  1
  O  O48  1  0.50000000  0.50000000  0.08708600  1
  O  O49  1  0.00000000  0.00000000  0.08708600  1
  O  O50  1  0.69625500  0.43483600  0.30465900  1
  O  O51  1  0.75000000  0.68347500  0.12500000  1
  O  O52  1  0.23914350  0.93321950  0.21509950  1
  O  O53  1  0.93321950  0.23914350  0.28490050  1
  O  O54  1  0.26085650  0.43321950  0.21509950  1
  O  O55  1  0.50000000  0.00000000  0.33708600  1
  O  O56  1  0.68347500  0.75000000  0.37500000  1
  O  O57  1  0.06678050  0.73914350  0.46509950  1
  O  O58  1  0.93483600  0.30374500  0.05465900  1
  O  O59  1  0.43321950  0.26085650  0.28490050  1
  O  O60  1  0.76085650  0.06678050  0.21509950  1
  O  O61  1  0.80374500  0.93483600  0.30465900  1
  O  O62  1  0.50000000  0.00000000  0.16291400  1
  O  O63  1  0.93321950  0.26085650  0.46509950  1
  O  O64  1  0.43483600  0.19625500  0.05465900  1
  O  O65  1  0.56678050  0.76085650  0.46509950  1
  O  O66  1  0.19625500  0.06516400  0.30465900  1
  O  O67  1  0.56516400  0.30374500  0.19534100  1
  O  O68  1  0.30374500  0.56516400  0.30465900  1
  O  O69  1  0.00000000  0.50000000  0.33708600  1
  O  O70  1  0.56678050  0.73914350  0.28490050  1
  O  O71  1  0.25000000  0.31652500  0.12500000  1
  O  O72  1  0.26085650  0.93321950  0.03490050  1
  O  O73  1  0.00000000  0.50000000  0.16291400  1
  O  O74  1  0.56516400  0.80374500  0.05465900  1
  O  O75  1  0.50000000  0.50000000  0.41291400  1
  O  O76  1  0.31652500  0.25000000  0.37500000  1
  O  O77  1  0.80374500  0.56516400  0.44534100  1
  O  O78  1  0.06516400  0.19625500  0.19534100  1
  O  O79  1  0.81652500  0.25000000  0.37500000  1
  O  O80  1  0.73914350  0.06678050  0.03490050  1
  O  O81  1  0.69625500  0.06516400  0.44534100  1
  O  O82  1  0.19625500  0.43483600  0.44534100  1
  O  O83  1  0.75000000  0.18347500  0.12500000  1
  O  O84  1  0.00000000  0.00000000  0.41291400  1
  O  O85  1  0.43321950  0.23914350  0.46509950  1
  O  O86  1  0.43483600  0.69625500  0.19534100  1
  O  O87  1  0.06678050  0.76085650  0.28490050  1
  O  O88  1  0.73914350  0.93321950  0.53490050  1
  O  O89  1  0.68347500  0.25000000  0.87500000  1
  O  O90  1  0.75000000  0.31652500  0.62500000  1
  O  O91  1  0.80374500  0.43483600  0.94534100  1
  O  O92  1  0.56516400  0.19625500  0.55465900  1
  O  O93  1  0.26085650  0.06678050  0.53490050  1
  O  O94  1  0.43483600  0.30374500  0.69534100  1
  O  O95  1  0.23914350  0.06678050  0.71509950  1
  O  O96  1  0.00000000  0.00000000  0.58708600  1
  O  O97  1  0.50000000  0.50000000  0.58708600  1
  O  O98  1  0.19625500  0.93483600  0.80465900  1
  O  O99  1  0.25000000  0.18347500  0.62500000  1
  O  O100  1  0.73914350  0.43321950  0.71509950  1
  O  O101  1  0.43321950  0.73914350  0.78490050  1
  O  O102  1  0.76085650  0.93321950  0.71509950  1
  O  O103  1  0.00000000  0.50000000  0.83708600  1
  O  O104  1  0.18347500  0.25000000  0.87500000  1
  O  O105  1  0.56678050  0.23914350  0.96509950  1
  O  O106  1  0.43483600  0.80374500  0.55465900  1
  O  O107  1  0.93321950  0.76085650  0.78490050  1
  O  O108  1  0.26085650  0.56678050  0.71509950  1
  O  O109  1  0.30374500  0.43483600  0.80465900  1
  O  O110  1  0.00000000  0.50000000  0.66291400  1
  O  O111  1  0.43321950  0.76085650  0.96509950  1
  O  O112  1  0.93483600  0.69625500  0.55465900  1
  O  O113  1  0.06678050  0.26085650  0.96509950  1
  O  O114  1  0.69625500  0.56516400  0.80465900  1
  O  O115  1  0.06516400  0.80374500  0.69534100  1
  O  O116  1  0.80374500  0.06516400  0.80465900  1
  O  O117  1  0.50000000  0.00000000  0.83708600  1
  O  O118  1  0.06678050  0.23914350  0.78490050  1
  O  O119  1  0.75000000  0.81652500  0.62500000  1
  O  O120  1  0.76085650  0.43321950  0.53490050  1
  O  O121  1  0.50000000  0.00000000  0.66291400  1
  O  O122  1  0.06516400  0.30374500  0.55465900  1
  O  O123  1  0.00000000  0.00000000  0.91291400  1
  O  O124  1  0.81652500  0.75000000  0.87500000  1
  O  O125  1  0.30374500  0.06516400  0.94534100  1
  O  O126  1  0.56516400  0.69625500  0.69534100  1
  O  O127  1  0.31652500  0.75000000  0.87500000  1
  O  O128  1  0.23914350  0.56678050  0.53490050  1
  O  O129  1  0.19625500  0.56516400  0.94534100  1
  O  O130  1  0.69625500  0.93483600  0.94534100  1
  O  O131  1  0.25000000  0.68347500  0.62500000  1
  O  O132  1  0.50000000  0.50000000  0.91291400  1
  O  O133  1  0.93321950  0.73914350  0.96509950  1
  O  O134  1  0.93483600  0.19625500  0.69534100  1
  O  O135  1  0.56678050  0.26085650  0.78490050  1
