# generated using pymatgen
data_Na8Si6SnO18
_symmetry_space_group_name_H-M   'P 1'
_cell_length_a   10.31976358
_cell_length_b   10.31976358
_cell_length_c   13.38290799
_cell_angle_alpha   90.00000000
_cell_angle_beta   90.00000000
_cell_angle_gamma   120.00000000
_symmetry_Int_Tables_number   1
_chemical_formula_structural   Na8Si6SnO18
_chemical_formula_sum   'Na24 Si18 Sn3 O54'
_cell_volume   1234.29968887
_cell_formula_units_Z   3
loop_
 _symmetry_equiv_pos_site_id
 _symmetry_equiv_pos_as_xyz
  1  'x, y, z'
loop_
 _atom_site_type_symbol
 _atom_site_label
 _atom_site_symmetry_multiplicity
 _atom_site_fract_x
 _atom_site_fract_y
 _atom_site_fract_z
 _atom_site_occupancy
  Na  Na0  1  0.50000000  0.00000000  0.00000000  1
  Na  Na1  1  0.33333333  0.66666667  0.42175667  1
  Na  Na2  1  0.33333333  0.66666667  0.91157667  1
  Na  Na3  1  0.16666667  0.83333333  0.33333333  1
  Na  Na4  1  0.16666667  0.83333333  0.83333333  1
  Na  Na5  1  0.33333333  0.16666667  0.16666667  1
  Na  Na6  1  0.83333333  0.66666667  0.16666667  1
  Na  Na7  1  0.00000000  0.50000000  0.00000000  1
  Na  Na8  1  0.16666667  0.33333333  0.33333333  1
  Na  Na9  1  0.00000000  0.00000000  0.75509000  1
  Na  Na10  1  0.00000000  0.00000000  0.24491000  1
  Na  Na11  1  0.83333333  0.16666667  0.66666667  1
  Na  Na12  1  0.83333333  0.16666667  0.16666667  1
  Na  Na13  1  0.00000000  0.50000000  0.50000000  1
  Na  Na14  1  0.50000000  0.00000000  0.50000000  1
  Na  Na15  1  0.66666667  0.83333333  0.33333333  1
  Na  Na16  1  0.83333333  0.66666667  0.66666667  1
  Na  Na17  1  0.66666667  0.33333333  0.08842333  1
  Na  Na18  1  0.66666667  0.33333333  0.57824333  1
  Na  Na19  1  0.50000000  0.50000000  0.00000000  1
  Na  Na20  1  0.50000000  0.50000000  0.50000000  1
  Na  Na21  1  0.66666667  0.83333333  0.83333333  1
  Na  Na22  1  0.16666667  0.33333333  0.83333333  1
  Na  Na23  1  0.33333333  0.16666667  0.66666667  1
  Si  Si24  1  0.63732667  0.81866333  0.09756433  1
  Si  Si25  1  0.18133667  0.36267333  0.09756433  1
  Si  Si26  1  0.48533000  0.97066000  0.23576900  1
  Si  Si27  1  0.02934000  0.51467000  0.23576900  1
  Si  Si28  1  0.48533000  0.51467000  0.23576900  1
  Si  Si29  1  0.18133667  0.81866333  0.09756433  1
  Si  Si30  1  0.30399333  0.15199667  0.43089767  1
  Si  Si31  1  0.84800333  0.69600667  0.43089767  1
  Si  Si32  1  0.15199667  0.30399333  0.56910233  1
  Si  Si33  1  0.69600667  0.84800333  0.56910233  1
  Si  Si34  1  0.15199667  0.84800333  0.56910233  1
  Si  Si35  1  0.84800333  0.15199667  0.43089767  1
  Si  Si36  1  0.97066000  0.48533000  0.76423100  1
  Si  Si37  1  0.51467000  0.02934000  0.76423100  1
  Si  Si38  1  0.81866333  0.63732667  0.90243567  1
  Si  Si39  1  0.36267333  0.18133667  0.90243567  1
  Si  Si40  1  0.81866333  0.18133667  0.90243567  1
  Si  Si41  1  0.51467000  0.48533000  0.76423100  1
  Sn  Sn42  1  0.00000000  0.00000000  0.00000000  1
  Sn  Sn43  1  0.66666667  0.33333333  0.33333333  1
  Sn  Sn44  1  0.33333333  0.66666667  0.66666667  1
  O  O45  1  0.08967267  0.91032733  0.09957033  1
  O  O46  1  0.59096033  0.66666667  0.16666667  1
  O  O47  1  0.22075733  0.77924267  0.99098867  1
  O  O48  1  0.07570633  0.66666667  0.16666667  1
  O  O49  1  0.10818133  0.55409067  0.34234467  1
  O  O50  1  0.33333333  0.40903967  0.16666667  1
  O  O51  1  0.59096033  0.92429367  0.16666667  1
  O  O52  1  0.08967267  0.17934533  0.09957033  1
  O  O53  1  0.57699400  0.42300600  0.23376300  1
  O  O54  1  0.57699400  0.15398800  0.23376300  1
  O  O55  1  0.44590933  0.89181867  0.34234467  1
  O  O56  1  0.84601200  0.42300600  0.23376300  1
  O  O57  1  0.33333333  0.92429367  0.16666667  1
  O  O58  1  0.44590933  0.55409067  0.34234467  1
  O  O59  1  0.22075733  0.44151467  0.99098867  1
  O  O60  1  0.82065467  0.91032733  0.09957033  1
  O  O61  1  0.07570633  0.40903967  0.16666667  1
  O  O62  1  0.55848533  0.77924267  0.99098867  1
  O  O63  1  0.75633933  0.24366067  0.43290367  1
  O  O64  1  0.25762700  0.00000000  0.50000000  1
  O  O65  1  0.88742400  0.11257600  0.32432200  1
  O  O66  1  0.74237300  0.00000000  0.50000000  1
  O  O67  1  0.77484800  0.88742400  0.67567800  1
  O  O68  1  0.00000000  0.74237300  0.50000000  1
  O  O69  1  0.25762700  0.25762700  0.50000000  1
  O  O70  1  0.75633933  0.51267867  0.43290367  1
  O  O71  1  0.24366067  0.75633933  0.56709633  1
  O  O72  1  0.24366067  0.48732133  0.56709633  1
  O  O73  1  0.11257600  0.22515200  0.67567800  1
  O  O74  1  0.51267867  0.75633933  0.56709633  1
  O  O75  1  0.00000000  0.25762700  0.50000000  1
  O  O76  1  0.11257600  0.88742400  0.67567800  1
  O  O77  1  0.88742400  0.77484800  0.32432200  1
  O  O78  1  0.48732133  0.24366067  0.43290367  1
  O  O79  1  0.74237300  0.74237300  0.50000000  1
  O  O80  1  0.22515200  0.11257600  0.32432200  1
  O  O81  1  0.42300600  0.57699400  0.76623700  1
  O  O82  1  0.92429367  0.33333333  0.83333333  1
  O  O83  1  0.55409067  0.44590933  0.65765533  1
  O  O84  1  0.40903967  0.33333333  0.83333333  1
  O  O85  1  0.44151467  0.22075733  0.00901133  1
  O  O86  1  0.66666667  0.07570633  0.83333333  1
  O  O87  1  0.92429367  0.59096033  0.83333333  1
  O  O88  1  0.42300600  0.84601200  0.76623700  1
  O  O89  1  0.91032733  0.08967267  0.90042967  1
  O  O90  1  0.91032733  0.82065467  0.90042967  1
  O  O91  1  0.77924267  0.55848533  0.00901133  1
  O  O92  1  0.17934533  0.08967267  0.90042967  1
  O  O93  1  0.66666667  0.59096033  0.83333333  1
  O  O94  1  0.77924267  0.22075733  0.00901133  1
  O  O95  1  0.55409067  0.10818133  0.65765533  1
  O  O96  1  0.15398800  0.57699400  0.76623700  1
  O  O97  1  0.40903967  0.07570633  0.83333333  1
  O  O98  1  0.89181867  0.44590933  0.65765533  1
