# generated using pymatgen
data_Te2MoCl12
_symmetry_space_group_name_H-M   'P 1'
_cell_length_a   11.51470206
_cell_length_b   11.51470206
_cell_length_c   37.43175651
_cell_angle_alpha   90.00000000
_cell_angle_beta   90.00000000
_cell_angle_gamma   120.00000000
_symmetry_Int_Tables_number   1
_chemical_formula_structural   Te2MoCl12
_chemical_formula_sum   'Te18 Mo9 Cl108'
_cell_volume   4298.09736032
_cell_formula_units_Z   9
loop_
 _symmetry_equiv_pos_site_id
 _symmetry_equiv_pos_as_xyz
  1  'x, y, z'
loop_
 _atom_site_type_symbol
 _atom_site_label
 _atom_site_symmetry_multiplicity
 _atom_site_fract_x
 _atom_site_fract_y
 _atom_site_fract_z
 _atom_site_occupancy
  Te  Te0  1  0.66974067  0.69107833  0.08194633  1
  Te  Te1  1  0.02133767  0.33025933  0.08194633  1
  Te  Te2  1  0.30892167  0.97866233  0.08194633  1
  Te  Te3  1  0.99692600  0.64225500  0.25138700  1
  Te  Te4  1  0.64532900  0.00307400  0.25138700  1
  Te  Te5  1  0.35774500  0.35467100  0.25138700  1
  Te  Te6  1  0.33640733  0.02441167  0.41527967  1
  Te  Te7  1  0.68800433  0.66359267  0.41527967  1
  Te  Te8  1  0.97558833  0.31199567  0.41527967  1
  Te  Te9  1  0.66359267  0.97558833  0.58472033  1
  Te  Te10  1  0.31199567  0.33640733  0.58472033  1
  Te  Te11  1  0.02441167  0.68800433  0.58472033  1
  Te  Te12  1  0.00307400  0.35774500  0.74861300  1
  Te  Te13  1  0.35467100  0.99692600  0.74861300  1
  Te  Te14  1  0.64225500  0.64532900  0.74861300  1
  Te  Te15  1  0.33025933  0.30892167  0.91805367  1
  Te  Te16  1  0.97866233  0.66974067  0.91805367  1
  Te  Te17  1  0.69107833  0.02133767  0.91805367  1
  Mo  Mo18  1  0.66666667  0.33333333  0.08070633  1
  Mo  Mo19  1  0.00000000  0.00000000  0.25262700  1
  Mo  Mo20  1  0.33333333  0.66666667  0.16666667  1
  Mo  Mo21  1  0.33333333  0.66666667  0.41403967  1
  Mo  Mo22  1  0.66666667  0.33333333  0.58596033  1
  Mo  Mo23  1  1.00000000  0.00000000  0.50000000  1
  Mo  Mo24  1  0.00000000  0.00000000  0.74737300  1
  Mo  Mo25  1  0.33333333  0.66666667  0.91929367  1
  Mo  Mo26  1  0.66666667  0.33333333  0.83333333  1
  Cl  Cl27  1  0.56552367  0.77992933  0.04513433  1
  Cl  Cl28  1  0.21440567  0.43447633  0.04513433  1
  Cl  Cl29  1  0.22007067  0.78559433  0.04513433  1
  Cl  Cl30  1  0.10114300  0.55340400  0.28819900  1
  Cl  Cl31  1  0.45226100  0.89885700  0.28819900  1
  Cl  Cl32  1  0.44659600  0.54773900  0.28819900  1
  Cl  Cl33  1  0.77411467  0.87075733  0.12268133  1
  Cl  Cl34  1  0.09664267  0.22588533  0.12268133  1
  Cl  Cl35  1  0.12924267  0.90335733  0.12268133  1
  Cl  Cl36  1  0.89255200  0.46257600  0.21065200  1
  Cl  Cl37  1  0.57002400  0.10744800  0.21065200  1
  Cl  Cl38  1  0.53742400  0.42997600  0.21065200  1
  Cl  Cl39  1  0.85972767  0.77541533  0.04464733  1
  Cl  Cl40  1  0.91568767  0.14027233  0.04464733  1
  Cl  Cl41  1  0.22458467  0.08431233  0.04464733  1
  Cl  Cl42  1  0.80693900  0.55791800  0.28868600  1
  Cl  Cl43  1  0.75097900  0.19306100  0.28868600  1
  Cl  Cl44  1  0.44208200  0.24902100  0.28868600  1
  Cl  Cl45  1  0.76276100  0.53066600  0.11796700  1
  Cl  Cl46  1  0.76790500  0.23723900  0.11796700  1
  Cl  Cl47  1  0.46933400  0.23209500  0.11796700  1
  Cl  Cl48  1  0.90390567  0.80266733  0.21536633  1
  Cl  Cl49  1  0.89876167  0.09609433  0.21536633  1
  Cl  Cl50  1  0.19733267  0.10123833  0.21536633  1
  Cl  Cl51  1  0.57242533  0.43670667  0.04406067  1
  Cl  Cl52  1  0.86428133  0.42757467  0.04406067  1
  Cl  Cl53  1  0.56329333  0.13571867  0.04406067  1
  Cl  Cl54  1  0.09424133  0.89662667  0.28927267  1
  Cl  Cl55  1  0.80238533  0.90575867  0.28927267  1
  Cl  Cl56  1  0.10337333  0.19761467  0.28927267  1
  Cl  Cl57  1  0.42921367  0.56626633  0.12993033  1
  Cl  Cl58  1  0.13705267  0.57078633  0.12993033  1
  Cl  Cl59  1  0.43373367  0.86294733  0.12993033  1
  Cl  Cl60  1  0.23745300  0.76706700  0.20340300  1
  Cl  Cl61  1  0.52961400  0.76254700  0.20340300  1
  Cl  Cl62  1  0.23293300  0.47038600  0.20340300  1
  Cl  Cl63  1  0.23219033  0.11326267  0.37846767  1
  Cl  Cl64  1  0.88107233  0.76780967  0.37846767  1
  Cl  Cl65  1  0.88673733  0.11892767  0.37846767  1
  Cl  Cl66  1  0.76780967  0.88673733  0.62153233  1
  Cl  Cl67  1  0.11892767  0.23219033  0.62153233  1
  Cl  Cl68  1  0.11326267  0.88107233  0.62153233  1
  Cl  Cl69  1  0.44078133  0.20409067  0.45601467  1
  Cl  Cl70  1  0.76330933  0.55921867  0.45601467  1
  Cl  Cl71  1  0.79590933  0.23669067  0.45601467  1
  Cl  Cl72  1  0.55921867  0.79590933  0.54398533  1
  Cl  Cl73  1  0.23669067  0.44078133  0.54398533  1
  Cl  Cl74  1  0.20409067  0.76330933  0.54398533  1
  Cl  Cl75  1  0.52639433  0.10874867  0.37798067  1
  Cl  Cl76  1  0.58235433  0.47360567  0.37798067  1
  Cl  Cl77  1  0.89125133  0.41764567  0.37798067  1
  Cl  Cl78  1  0.47360567  0.89125133  0.62201933  1
  Cl  Cl79  1  0.41764567  0.52639433  0.62201933  1
  Cl  Cl80  1  0.10874867  0.58235433  0.62201933  1
  Cl  Cl81  1  0.42942767  0.86399933  0.45130033  1
  Cl  Cl82  1  0.43457167  0.57057233  0.45130033  1
  Cl  Cl83  1  0.13600067  0.56542833  0.45130033  1
  Cl  Cl84  1  0.57057233  0.13600067  0.54869967  1
  Cl  Cl85  1  0.56542833  0.42942767  0.54869967  1
  Cl  Cl86  1  0.86399933  0.43457167  0.54869967  1
  Cl  Cl87  1  0.23909200  0.77004000  0.37739400  1
  Cl  Cl88  1  0.53094800  0.76090800  0.37739400  1
  Cl  Cl89  1  0.22996000  0.46905200  0.37739400  1
  Cl  Cl90  1  0.76090800  0.22996000  0.62260600  1
  Cl  Cl91  1  0.46905200  0.23909200  0.62260600  1
  Cl  Cl92  1  0.77004000  0.53094800  0.62260600  1
  Cl  Cl93  1  0.09588033  0.89959967  0.46326367  1
  Cl  Cl94  1  0.80371933  0.90411967  0.46326367  1
  Cl  Cl95  1  0.10040033  0.19628067  0.46326367  1
  Cl  Cl96  1  0.90411967  0.10040033  0.53673633  1
  Cl  Cl97  1  0.19628067  0.09588033  0.53673633  1
  Cl  Cl98  1  0.89959967  0.80371933  0.53673633  1
  Cl  Cl99  1  0.89885700  0.44659600  0.71180100  1
  Cl  Cl100  1  0.54773900  0.10114300  0.71180100  1
  Cl  Cl101  1  0.55340400  0.45226100  0.71180100  1
  Cl  Cl102  1  0.43447633  0.22007067  0.95486567  1
  Cl  Cl103  1  0.78559433  0.56552367  0.95486567  1
  Cl  Cl104  1  0.77992933  0.21440567  0.95486567  1
  Cl  Cl105  1  0.10744800  0.53742400  0.78934800  1
  Cl  Cl106  1  0.42997600  0.89255200  0.78934800  1
  Cl  Cl107  1  0.46257600  0.57002400  0.78934800  1
  Cl  Cl108  1  0.22588533  0.12924267  0.87731867  1
  Cl  Cl109  1  0.90335733  0.77411467  0.87731867  1
  Cl  Cl110  1  0.87075733  0.09664267  0.87731867  1
  Cl  Cl111  1  0.19306100  0.44208200  0.71131400  1
  Cl  Cl112  1  0.24902100  0.80693900  0.71131400  1
  Cl  Cl113  1  0.55791800  0.75097900  0.71131400  1
  Cl  Cl114  1  0.14027233  0.22458467  0.95535267  1
  Cl  Cl115  1  0.08431233  0.85972767  0.95535267  1
  Cl  Cl116  1  0.77541533  0.91568767  0.95535267  1
  Cl  Cl117  1  0.09609433  0.19733267  0.78463367  1
  Cl  Cl118  1  0.10123833  0.90390567  0.78463367  1
  Cl  Cl119  1  0.80266733  0.89876167  0.78463367  1
  Cl  Cl120  1  0.23723900  0.46933400  0.88203300  1
  Cl  Cl121  1  0.23209500  0.76276100  0.88203300  1
  Cl  Cl122  1  0.53066600  0.76790500  0.88203300  1
  Cl  Cl123  1  0.90575867  0.10337333  0.71072733  1
  Cl  Cl124  1  0.19761467  0.09424133  0.71072733  1
  Cl  Cl125  1  0.89662667  0.80238533  0.71072733  1
  Cl  Cl126  1  0.42757467  0.56329333  0.95593933  1
  Cl  Cl127  1  0.13571867  0.57242533  0.95593933  1
  Cl  Cl128  1  0.43670667  0.86428133  0.95593933  1
  Cl  Cl129  1  0.76254700  0.23293300  0.79659700  1
  Cl  Cl130  1  0.47038600  0.23745300  0.79659700  1
  Cl  Cl131  1  0.76706700  0.52961400  0.79659700  1
  Cl  Cl132  1  0.57078633  0.43373367  0.87006967  1
  Cl  Cl133  1  0.86294733  0.42921367  0.87006967  1
  Cl  Cl134  1  0.56626633  0.13705267  0.87006967  1
