# generated using pymatgen
data_V2O5
_symmetry_space_group_name_H-M   'P 1'
_cell_length_a   12.05120200
_cell_length_b   4.72427800
_cell_length_c   5.39244706
_cell_angle_alpha   90.00000000
_cell_angle_beta   103.64521353
_cell_angle_gamma   90.00000000
_symmetry_Int_Tables_number   1
_chemical_formula_structural   V2O5
_chemical_formula_sum   'V8 O20'
_cell_volume   298.34412282
_cell_formula_units_Z   4
loop_
 _symmetry_equiv_pos_site_id
 _symmetry_equiv_pos_as_xyz
  1  'x, y, z'
loop_
 _atom_site_type_symbol
 _atom_site_label
 _atom_site_symmetry_multiplicity
 _atom_site_fract_x
 _atom_site_fract_y
 _atom_site_fract_z
 _atom_site_occupancy
  V  V0  1  0.14287700  0.75973500  0.24733700  1
  V  V1  1  0.14287700  0.24026500  0.74733700  1
  V  V2  1  0.35712300  0.74026500  0.75266300  1
  V  V3  1  0.35712300  0.25973500  0.25266300  1
  V  V4  1  0.64287700  0.25973500  0.24733700  1
  V  V5  1  0.64287700  0.74026500  0.74733700  1
  V  V6  1  0.85712300  0.24026500  0.75266300  1
  V  V7  1  0.85712300  0.75973500  0.25266300  1
  O  O8  1  0.10995950  0.43982750  0.48244700  1
  O  O9  1  0.39004050  0.93982750  0.01755300  1
  O  O10  1  0.10995950  0.56017250  0.98244700  1
  O  O11  1  0.39004050  0.06017250  0.51755300  1
  O  O12  1  0.29656100  0.42981600  0.86841700  1
  O  O13  1  0.29656100  0.57018400  0.36841700  1
  O  O14  1  0.20343900  0.07018400  0.13158300  1
  O  O15  1  0.20343900  0.92981600  0.63158300  1
  O  O16  1  0.00000000  0.88522900  0.25000000  1
  O  O17  1  0.00000000  0.11477100  0.75000000  1
  O  O18  1  0.60995950  0.93982750  0.48244700  1
  O  O19  1  0.89004050  0.43982750  0.01755300  1
  O  O20  1  0.60995950  0.06017250  0.98244700  1
  O  O21  1  0.89004050  0.56017250  0.51755300  1
  O  O22  1  0.79656100  0.92981600  0.86841700  1
  O  O23  1  0.79656100  0.07018400  0.36841700  1
  O  O24  1  0.70343900  0.57018400  0.13158300  1
  O  O25  1  0.70343900  0.42981600  0.63158300  1
  O  O26  1  0.50000000  0.38522900  0.25000000  1
  O  O27  1  0.50000000  0.61477100  0.75000000  1
