# generated using pymatgen
data_NaNd(Si3O7)2
_symmetry_space_group_name_H-M   'P 1'
_cell_length_a   7.74791400
_cell_length_b   15.59321800
_cell_length_c   19.91986600
_cell_angle_alpha   90.00000000
_cell_angle_beta   90.00000000
_cell_angle_gamma   90.00000000
_symmetry_Int_Tables_number   1
_chemical_formula_structural   NaNd(Si3O7)2
_chemical_formula_sum   'Na8 Nd8 Si48 O112'
_cell_volume   2406.61685878
_cell_formula_units_Z   8
loop_
 _symmetry_equiv_pos_site_id
 _symmetry_equiv_pos_as_xyz
  1  'x, y, z'
loop_
 _atom_site_type_symbol
 _atom_site_label
 _atom_site_symmetry_multiplicity
 _atom_site_fract_x
 _atom_site_fract_y
 _atom_site_fract_z
 _atom_site_occupancy
  Na  Na0  1  0.50000000  0.50000000  0.25000000  1
  Na  Na1  1  0.00000000  0.50000000  0.00000000  1
  Na  Na2  1  0.50000000  0.50000000  0.75000000  1
  Na  Na3  1  0.50000000  0.00000000  0.00000000  1
  Na  Na4  1  0.00000000  0.00000000  0.75000000  1
  Na  Na5  1  0.50000000  0.00000000  0.50000000  1
  Na  Na6  1  0.00000000  0.00000000  0.25000000  1
  Na  Na7  1  0.00000000  0.50000000  0.50000000  1
  Nd  Nd8  1  0.50000000  0.72854900  0.25000000  1
  Nd  Nd9  1  0.50000000  0.27145100  0.75000000  1
  Nd  Nd10  1  0.50000000  0.72854900  0.75000000  1
  Nd  Nd11  1  0.50000000  0.27145100  0.25000000  1
  Nd  Nd12  1  0.00000000  0.22854900  0.75000000  1
  Nd  Nd13  1  0.00000000  0.77145100  0.25000000  1
  Nd  Nd14  1  0.00000000  0.22854900  0.25000000  1
  Nd  Nd15  1  0.00000000  0.77145100  0.75000000  1
  Si  Si16  1  0.15144250  0.61959350  0.85247650  1
  Si  Si17  1  0.23883100  0.57828700  0.35334900  1
  Si  Si18  1  0.84855750  0.38040650  0.14752350  1
  Si  Si19  1  0.76116900  0.57828700  0.14665100  1
  Si  Si20  1  0.73198900  0.33390600  0.00000000  1
  Si  Si21  1  0.15144250  0.38040650  0.64752350  1
  Si  Si22  1  0.76116900  0.57828700  0.85334900  1
  Si  Si23  1  0.23883100  0.42171300  0.14665100  1
  Si  Si24  1  0.84855750  0.61959350  0.64752350  1
  Si  Si25  1  0.76116900  0.42171300  0.35334900  1
  Si  Si26  1  0.76801100  0.83390600  0.00000000  1
  Si  Si27  1  0.76116900  0.42171300  0.64665100  1
  Si  Si28  1  0.67818800  0.63357700  0.00000000  1
  Si  Si29  1  0.23883100  0.57828700  0.64665100  1
  Si  Si30  1  0.26801100  0.66609400  0.00000000  1
  Si  Si31  1  0.84855750  0.61959350  0.35247650  1
  Si  Si32  1  0.82181200  0.13357700  0.00000000  1
  Si  Si33  1  0.32181200  0.36642300  0.00000000  1
  Si  Si34  1  0.15144250  0.61959350  0.14752350  1
  Si  Si35  1  0.23198900  0.16609400  0.00000000  1
  Si  Si36  1  0.23883100  0.42171300  0.85334900  1
  Si  Si37  1  0.15144250  0.38040650  0.35247650  1
  Si  Si38  1  0.17818800  0.86642300  0.00000000  1
  Si  Si39  1  0.84855750  0.38040650  0.85247650  1
  Si  Si40  1  0.65144250  0.11959350  0.35247650  1
  Si  Si41  1  0.73883100  0.07828700  0.85334900  1
  Si  Si42  1  0.34855750  0.88040650  0.64752350  1
  Si  Si43  1  0.26116900  0.07828700  0.64665100  1
  Si  Si44  1  0.23198900  0.83390600  0.50000000  1
  Si  Si45  1  0.65144250  0.88040650  0.14752350  1
  Si  Si46  1  0.26116900  0.07828700  0.35334900  1
  Si  Si47  1  0.73883100  0.92171300  0.64665100  1
  Si  Si48  1  0.34855750  0.11959350  0.14752350  1
  Si  Si49  1  0.26116900  0.92171300  0.85334900  1
  Si  Si50  1  0.26801100  0.33390600  0.50000000  1
  Si  Si51  1  0.26116900  0.92171300  0.14665100  1
  Si  Si52  1  0.17818800  0.13357700  0.50000000  1
  Si  Si53  1  0.73883100  0.07828700  0.14665100  1
  Si  Si54  1  0.76801100  0.16609400  0.50000000  1
  Si  Si55  1  0.34855750  0.11959350  0.85247650  1
  Si  Si56  1  0.32181200  0.63357700  0.50000000  1
  Si  Si57  1  0.82181200  0.86642300  0.50000000  1
  Si  Si58  1  0.65144250  0.11959350  0.64752350  1
  Si  Si59  1  0.73198900  0.66609400  0.50000000  1
  Si  Si60  1  0.73883100  0.92171300  0.35334900  1
  Si  Si61  1  0.65144250  0.88040650  0.85247650  1
  Si  Si62  1  0.67818800  0.36642300  0.50000000  1
  Si  Si63  1  0.34855750  0.88040650  0.35247650  1
  O  O64  1  0.66734150  0.87473350  0.93549950  1
  O  O65  1  0.59569650  0.61689250  0.18185850  1
  O  O66  1  0.75447900  0.57923800  0.06328900  1
  O  O67  1  0.23873850  0.69620850  0.81138550  1
  O  O68  1  0.78575000  0.47689200  0.83221100  1
  O  O69  1  0.24552100  0.42076200  0.06328900  1
  O  O70  1  0.76126150  0.30379150  0.81138550  1
  O  O71  1  0.94277500  0.62940000  0.83370300  1
  O  O72  1  0.78575000  0.52310800  0.66778900  1
  O  O73  1  0.53091100  0.36323500  0.00000000  1
  O  O74  1  0.83265850  0.37473350  0.06450050  1
  O  O75  1  0.26126150  0.19620850  0.18861450  1
  O  O76  1  0.26126150  0.19620850  0.81138550  1
  O  O77  1  0.03091100  0.13676500  0.00000000  1
  O  O78  1  0.46908900  0.63676500  0.00000000  1
  O  O79  1  0.33265850  0.12526650  0.06450050  1
  O  O80  1  0.40430350  0.38310750  0.81814150  1
  O  O81  1  0.66734150  0.87473350  0.06450050  1
  O  O82  1  0.96908900  0.86323500  0.00000000  1
  O  O83  1  0.40430350  0.61689250  0.31814150  1
  O  O84  1  0.75799200  0.73009000  0.00000000  1
  O  O85  1  0.78575000  0.47689200  0.16778900  1
  O  O86  1  0.21425000  0.47689200  0.33221100  1
  O  O87  1  0.24552100  0.42076200  0.93671100  1
  O  O88  1  0.74552100  0.07923800  0.06328900  1
  O  O89  1  0.40430350  0.38310750  0.18185850  1
  O  O90  1  0.94277500  0.62940000  0.16629700  1
  O  O91  1  0.76126150  0.30379150  0.18861450  1
  O  O92  1  0.25799200  0.76991000  0.00000000  1
  O  O93  1  0.75447900  0.57923800  0.93671100  1
  O  O94  1  0.21425000  0.47689200  0.66778900  1
  O  O95  1  0.74552100  0.07923800  0.93671100  1
  O  O96  1  0.24200800  0.26991000  0.00000000  1
  O  O97  1  0.05722500  0.62940000  0.33370300  1
  O  O98  1  0.25447900  0.92076200  0.06328900  1
  O  O99  1  0.73873850  0.80379150  0.18861450  1
  O  O100  1  0.59569650  0.38310750  0.31814150  1
  O  O101  1  0.94277500  0.37060000  0.33370300  1
  O  O102  1  0.73873850  0.80379150  0.81138550  1
  O  O103  1  0.40430350  0.61689250  0.68185850  1
  O  O104  1  0.83265850  0.37473350  0.93549950  1
  O  O105  1  0.16734150  0.62526650  0.06450050  1
  O  O106  1  0.05722500  0.37060000  0.16629700  1
  O  O107  1  0.23873850  0.69620850  0.18861450  1
  O  O108  1  0.05722500  0.37060000  0.83370300  1
  O  O109  1  0.16734150  0.62526650  0.93549950  1
  O  O110  1  0.33265850  0.12526650  0.93549950  1
  O  O111  1  0.59569650  0.61689250  0.81814150  1
  O  O112  1  0.59569650  0.38310750  0.68185850  1
  O  O113  1  0.25447900  0.92076200  0.93671100  1
  O  O114  1  0.74200800  0.23009000  0.00000000  1
  O  O115  1  0.21425000  0.52310800  0.83221100  1
  O  O116  1  0.05722500  0.62940000  0.66629700  1
  O  O117  1  0.94277500  0.37060000  0.66629700  1
  O  O118  1  0.21425000  0.52310800  0.16778900  1
  O  O119  1  0.78575000  0.52310800  0.33221100  1
  O  O120  1  0.16734150  0.37473350  0.43549950  1
  O  O121  1  0.09569650  0.11689250  0.68185850  1
  O  O122  1  0.25447900  0.07923800  0.56328900  1
  O  O123  1  0.73873850  0.19620850  0.31138550  1
  O  O124  1  0.28575000  0.97689200  0.33221100  1
  O  O125  1  0.74552100  0.92076200  0.56328900  1
  O  O126  1  0.26126150  0.80379150  0.31138550  1
  O  O127  1  0.44277500  0.12940000  0.33370300  1
  O  O128  1  0.28575000  0.02310800  0.16778900  1
  O  O129  1  0.03091100  0.86323500  0.50000000  1
  O  O130  1  0.33265850  0.87473350  0.56450050  1
  O  O131  1  0.76126150  0.69620850  0.68861450  1
  O  O132  1  0.76126150  0.69620850  0.31138550  1
  O  O133  1  0.53091100  0.63676500  0.50000000  1
  O  O134  1  0.96908900  0.13676500  0.50000000  1
  O  O135  1  0.83265850  0.62526650  0.56450050  1
  O  O136  1  0.90430350  0.88310750  0.31814150  1
  O  O137  1  0.16734150  0.37473350  0.56450050  1
  O  O138  1  0.46908900  0.36323500  0.50000000  1
  O  O139  1  0.90430350  0.11689250  0.81814150  1
  O  O140  1  0.25799200  0.23009000  0.50000000  1
  O  O141  1  0.28575000  0.97689200  0.66778900  1
  O  O142  1  0.71425000  0.97689200  0.83221100  1
  O  O143  1  0.74552100  0.92076200  0.43671100  1
  O  O144  1  0.24552100  0.57923800  0.56328900  1
  O  O145  1  0.90430350  0.88310750  0.68185850  1
  O  O146  1  0.44277500  0.12940000  0.66629700  1
  O  O147  1  0.26126150  0.80379150  0.68861450  1
  O  O148  1  0.75799200  0.26991000  0.50000000  1
  O  O149  1  0.25447900  0.07923800  0.43671100  1
  O  O150  1  0.71425000  0.97689200  0.16778900  1
  O  O151  1  0.24552100  0.57923800  0.43671100  1
  O  O152  1  0.74200800  0.76991000  0.50000000  1
  O  O153  1  0.55722500  0.12940000  0.83370300  1
  O  O154  1  0.75447900  0.42076200  0.56328900  1
  O  O155  1  0.23873850  0.30379150  0.68861450  1
  O  O156  1  0.09569650  0.88310750  0.81814150  1
  O  O157  1  0.44277500  0.87060000  0.83370300  1
  O  O158  1  0.23873850  0.30379150  0.31138550  1
  O  O159  1  0.90430350  0.11689250  0.18185850  1
  O  O160  1  0.33265850  0.87473350  0.43549950  1
  O  O161  1  0.66734150  0.12526650  0.56450050  1
  O  O162  1  0.55722500  0.87060000  0.66629700  1
  O  O163  1  0.73873850  0.19620850  0.68861450  1
  O  O164  1  0.55722500  0.87060000  0.33370300  1
  O  O165  1  0.66734150  0.12526650  0.43549950  1
  O  O166  1  0.83265850  0.62526650  0.43549950  1
  O  O167  1  0.09569650  0.11689250  0.31814150  1
  O  O168  1  0.09569650  0.88310750  0.18185850  1
  O  O169  1  0.75447900  0.42076200  0.43671100  1
  O  O170  1  0.24200800  0.73009000  0.50000000  1
  O  O171  1  0.71425000  0.02310800  0.33221100  1
  O  O172  1  0.55722500  0.12940000  0.16629700  1
  O  O173  1  0.44277500  0.87060000  0.16629700  1
  O  O174  1  0.71425000  0.02310800  0.66778900  1
  O  O175  1  0.28575000  0.02310800  0.83221100  1
