# generated using pymatgen
data_LaTmS3
_symmetry_space_group_name_H-M   'P 1'
_cell_length_a   3.99977600
_cell_length_b   16.48407000
_cell_length_c   21.43224700
_cell_angle_alpha   90.00000000
_cell_angle_beta   90.00000000
_cell_angle_gamma   90.00000000
_symmetry_Int_Tables_number   1
_chemical_formula_structural   LaTmS3
_chemical_formula_sum   'La12 Tm12 S36'
_cell_volume   1413.08350211
_cell_formula_units_Z   12
loop_
 _symmetry_equiv_pos_site_id
 _symmetry_equiv_pos_as_xyz
  1  'x, y, z'
loop_
 _atom_site_type_symbol
 _atom_site_label
 _atom_site_symmetry_multiplicity
 _atom_site_fract_x
 _atom_site_fract_y
 _atom_site_fract_z
 _atom_site_occupancy
  La  La0  1  0.25000000  0.19385900  0.92083600  1
  La  La1  1  0.75000000  0.84087700  0.75458100  1
  La  La2  1  0.75000000  0.34087700  0.74541900  1
  La  La3  1  0.25000000  0.83004700  0.41291700  1
  La  La4  1  0.25000000  0.65912300  0.25458100  1
  La  La5  1  0.75000000  0.30614100  0.42083600  1
  La  La6  1  0.25000000  0.15912300  0.24541900  1
  La  La7  1  0.75000000  0.80614100  0.07916400  1
  La  La8  1  0.75000000  0.66995300  0.91291700  1
  La  La9  1  0.25000000  0.69385900  0.57916400  1
  La  La10  1  0.75000000  0.16995300  0.58708300  1
  La  La11  1  0.25000000  0.33004700  0.08708300  1
  Tm  Tm12  1  0.75000000  0.90503100  0.25040000  1
  Tm  Tm13  1  0.75000000  0.43407400  0.92030500  1
  Tm  Tm14  1  0.25000000  0.94318400  0.93101100  1
  Tm  Tm15  1  0.75000000  0.40503100  0.24960000  1
  Tm  Tm16  1  0.25000000  0.44318400  0.56898900  1
  Tm  Tm17  1  0.25000000  0.06592600  0.42030500  1
  Tm  Tm18  1  0.25000000  0.09496900  0.74960000  1
  Tm  Tm19  1  0.25000000  0.56592600  0.07969500  1
  Tm  Tm20  1  0.75000000  0.93407400  0.57969500  1
  Tm  Tm21  1  0.75000000  0.05681600  0.06898900  1
  Tm  Tm22  1  0.75000000  0.55681600  0.43101100  1
  Tm  Tm23  1  0.25000000  0.59496900  0.75040000  1
  S  S24  1  0.25000000  0.23011800  0.67849700  1
  S  S25  1  0.25000000  0.44878000  0.69306100  1
  S  S26  1  0.25000000  0.20863800  0.48264500  1
  S  S27  1  0.75000000  0.55122000  0.30693900  1
  S  S28  1  0.25000000  0.32386400  0.31511600  1
  S  S29  1  0.75000000  0.84141500  0.93686700  1
  S  S30  1  0.25000000  0.04260900  0.55213000  1
  S  S31  1  0.25000000  0.35422400  0.85147100  1
  S  S32  1  0.75000000  0.95739100  0.44787000  1
  S  S33  1  0.75000000  0.05122000  0.19306100  1
  S  S34  1  0.75000000  0.79136200  0.51735500  1
  S  S35  1  0.75000000  0.14577600  0.35147100  1
  S  S36  1  0.75000000  0.55915600  0.55793800  1
  S  S37  1  0.75000000  0.05915600  0.94206200  1
  S  S38  1  0.25000000  0.65858500  0.43686700  1
  S  S39  1  0.25000000  0.96355300  0.31783400  1
  S  S40  1  0.25000000  0.94084400  0.05793800  1
  S  S41  1  0.25000000  0.46355300  0.18216600  1
  S  S42  1  0.25000000  0.15858500  0.06313300  1
  S  S43  1  0.75000000  0.03644700  0.68216600  1
  S  S44  1  0.25000000  0.73011800  0.82150300  1
  S  S45  1  0.25000000  0.94878000  0.80693900  1
  S  S46  1  0.75000000  0.76988200  0.32150300  1
  S  S47  1  0.75000000  0.53644700  0.81783400  1
  S  S48  1  0.75000000  0.45739100  0.05213000  1
  S  S49  1  0.75000000  0.64577600  0.14852900  1
  S  S50  1  0.75000000  0.17613600  0.81511600  1
  S  S51  1  0.75000000  0.67613600  0.68488400  1
  S  S52  1  0.75000000  0.29136200  0.98264500  1
  S  S53  1  0.25000000  0.85422400  0.64852900  1
  S  S54  1  0.75000000  0.34141500  0.56313300  1
  S  S55  1  0.75000000  0.26988200  0.17849700  1
  S  S56  1  0.25000000  0.70863800  0.01735500  1
  S  S57  1  0.25000000  0.44084400  0.44206200  1
  S  S58  1  0.25000000  0.82386400  0.18488400  1
  S  S59  1  0.25000000  0.54260900  0.94787000  1
