# generated using pymatgen
data_LiMnP2O7
_symmetry_space_group_name_H-M   'P 1'
_cell_length_a   8.41197500
_cell_length_b   5.16747800
_cell_length_c   13.86359665
_cell_angle_alpha   90.00000000
_cell_angle_beta   116.85593992
_cell_angle_gamma   90.00000000
_symmetry_Int_Tables_number   1
_chemical_formula_structural   LiMnP2O7
_chemical_formula_sum   'Li4 Mn4 P8 O28'
_cell_volume   537.63565185
_cell_formula_units_Z   4
loop_
 _symmetry_equiv_pos_site_id
 _symmetry_equiv_pos_as_xyz
  1  'x, y, z'
loop_
 _atom_site_type_symbol
 _atom_site_label
 _atom_site_symmetry_multiplicity
 _atom_site_fract_x
 _atom_site_fract_y
 _atom_site_fract_z
 _atom_site_occupancy
  Li  Li0  1  0.93953800  0.99646500  0.81064100  1
  Li  Li1  1  0.93953800  0.00353500  0.31064100  1
  Li  Li2  1  0.50341700  0.53894100  0.41771200  1
  Li  Li3  1  0.50341700  0.46105900  0.91771200  1
  Mn  Mn4  1  0.23405700  0.48062200  0.48498200  1
  Mn  Mn5  1  0.23405700  0.51937800  0.98498200  1
  Mn  Mn6  1  0.76780600  0.99967400  0.02572500  1
  Mn  Mn7  1  0.76780600  0.00032600  0.52572500  1
  P  P8  1  0.80937700  0.51614300  0.38144800  1
  P  P9  1  0.19004100  0.96488200  0.61647000  1
  P  P10  1  0.32825200  0.97704100  0.85928300  1
  P  P11  1  0.80937700  0.48385700  0.88144800  1
  P  P12  1  0.19004100  0.03511800  0.11647000  1
  P  P13  1  0.67460100  0.49079800  0.64352300  1
  P  P14  1  0.67460100  0.50920200  0.14352300  1
  P  P15  1  0.32825200  0.02295900  0.35928300  1
  O  O16  1  0.79953300  0.30756800  0.13481100  1
  O  O17  1  0.51846400  0.07981700  0.93198500  1
  O  O18  1  0.72437900  0.63138000  0.94163100  1
  O  O19  1  0.51846400  0.92018300  0.43198500  1
  O  O20  1  0.48411300  0.55601000  0.55823700  1
  O  O21  1  0.32697100  0.98987800  0.74333800  1
  O  O22  1  0.01239800  0.93379200  0.10898000  1
  O  O23  1  0.17989500  0.67864400  0.58539400  1
  O  O24  1  0.27041700  0.13456400  0.56231300  1
  O  O25  1  0.98295700  0.60666700  0.89023800  1
  O  O26  1  0.79953300  0.69243200  0.63481100  1
  O  O27  1  0.82521600  0.19178600  0.90406200  1
  O  O28  1  0.82521600  0.80821400  0.40406200  1
  O  O29  1  0.30305100  0.68862700  0.87660600  1
  O  O30  1  0.72861600  0.79119300  0.14355900  1
  O  O31  1  0.01239800  0.06620800  0.60898000  1
  O  O32  1  0.30305100  0.31137300  0.37660600  1
  O  O33  1  0.72861600  0.20880700  0.64355900  1
  O  O34  1  0.98295700  0.39333300  0.39023800  1
  O  O35  1  0.66619800  0.53142400  0.75693200  1
  O  O36  1  0.32697100  0.01012200  0.24333800  1
  O  O37  1  0.48411300  0.44399000  0.05823700  1
  O  O38  1  0.72437900  0.36862000  0.44163100  1
  O  O39  1  0.27041700  0.86543600  0.06231300  1
  O  O40  1  0.18707900  0.84817900  0.36344400  1
  O  O41  1  0.66619800  0.46857600  0.25693200  1
  O  O42  1  0.17989500  0.32135600  0.08539400  1
  O  O43  1  0.18707900  0.15182100  0.86344400  1
