# generated using pymatgen
data_MgP2H20C4(N2O3)4
_symmetry_space_group_name_H-M   'P 1'
_cell_length_a   5.42271200
_cell_length_b   21.79658400
_cell_length_c   9.07555441
_cell_angle_alpha   90.00000000
_cell_angle_beta   125.42496768
_cell_angle_gamma   90.00000000
_symmetry_Int_Tables_number   1
_chemical_formula_structural   MgP2H20C4(N2O3)4
_chemical_formula_sum   'Mg2 P4 H40 C8 N16 O24'
_cell_volume   874.11643685
_cell_formula_units_Z   2
loop_
 _symmetry_equiv_pos_site_id
 _symmetry_equiv_pos_as_xyz
  1  'x, y, z'
loop_
 _atom_site_type_symbol
 _atom_site_label
 _atom_site_symmetry_multiplicity
 _atom_site_fract_x
 _atom_site_fract_y
 _atom_site_fract_z
 _atom_site_occupancy
  Mg  Mg0  1  0.00000000  0.00000000  0.00000000  1
  Mg  Mg1  1  0.00000000  0.50000000  0.50000000  1
  P  P2  1  0.59502100  0.08406000  0.10415700  1
  P  P3  1  0.40497900  0.58406000  0.39584300  1
  P  P4  1  0.40497900  0.91594000  0.89584300  1
  P  P5  1  0.59502100  0.41594000  0.60415700  1
  H  H6  1  0.63956900  0.17289700  0.23557700  1
  H  H7  1  0.36043100  0.67289700  0.26442300  1
  H  H8  1  0.36043100  0.82710300  0.76442300  1
  H  H9  1  0.63956900  0.32710300  0.73557700  1
  H  H10  1  0.52901600  0.09441700  0.84502100  1
  H  H11  1  0.47098400  0.59441700  0.65497900  1
  H  H12  1  0.47098400  0.90558300  0.15497900  1
  H  H13  1  0.52901600  0.40558300  0.34502100  1
  H  H14  1  0.95212200  0.01128200  0.65403800  1
  H  H15  1  0.04787800  0.51128200  0.84596200  1
  H  H16  1  0.04787800  0.98871800  0.34596200  1
  H  H17  1  0.95212200  0.48871800  0.15403800  1
  H  H18  1  0.70906700  0.04405000  0.43289200  1
  H  H19  1  0.29093300  0.54405000  0.06710800  1
  H  H20  1  0.29093300  0.95595000  0.56710800  1
  H  H21  1  0.70906700  0.45595000  0.93289200  1
  H  H22  1  0.35392400  0.11359100  0.37685600  1
  H  H23  1  0.64607600  0.61359100  0.12314400  1
  H  H24  1  0.64607600  0.88640900  0.62314400  1
  H  H25  1  0.35392400  0.38640900  0.87685600  1
  H  H26  1  0.29342200  0.13154400  0.53734700  1
  H  H27  1  0.70657800  0.63154400  0.96265300  1
  H  H28  1  0.70657800  0.86845600  0.46265300  1
  H  H29  1  0.29342200  0.36845600  0.03734700  1
  H  H30  1  0.07064100  0.15607000  0.99916900  1
  H  H31  1  0.92935900  0.65607000  0.50083100  1
  H  H32  1  0.92935900  0.84393000  0.00083100  1
  H  H33  1  0.07064100  0.34393000  0.49916900  1
  H  H34  1  0.78525800  0.21246500  0.89779300  1
  H  H35  1  0.21474200  0.71246500  0.60220700  1
  H  H36  1  0.21474200  0.78753500  0.10220700  1
  H  H37  1  0.78525800  0.28753500  0.39779300  1
  H  H38  1  0.83003000  0.29779200  0.04862200  1
  H  H39  1  0.16997000  0.79779200  0.45137800  1
  H  H40  1  0.16997000  0.70220800  0.95137800  1
  H  H41  1  0.83003000  0.20220800  0.54862200  1
  H  H42  1  0.17622000  0.31869000  0.24783000  1
  H  H43  1  0.82378000  0.81869000  0.25217000  1
  H  H44  1  0.82378000  0.68131000  0.75217000  1
  H  H45  1  0.17622000  0.18131000  0.74783000  1
  C  C46  1  0.65377800  0.07427600  0.62421800  1
  C  C47  1  0.34622200  0.57427600  0.87578200  1
  C  C48  1  0.34622200  0.92572400  0.37578200  1
  C  C49  1  0.65377800  0.42572400  0.12421800  1
  C  C50  1  0.18306800  0.23799400  0.13402400  1
  C  C51  1  0.81693200  0.73799400  0.36597600  1
  C  C52  1  0.81693200  0.76200600  0.86597600  1
  C  C53  1  0.18306800  0.26200600  0.63402400  1
  N  N54  1  0.79831100  0.04372000  0.56721500  1
  N  N55  1  0.20168900  0.54372000  0.93278500  1
  N  N56  1  0.20168900  0.95628000  0.43278500  1
  N  N57  1  0.79831100  0.45628000  0.06721500  1
  N  N58  1  0.43943400  0.11549700  0.51053100  1
  N  N59  1  0.56056600  0.61549700  0.98946900  1
  N  N60  1  0.56056600  0.88450300  0.48946900  1
  N  N61  1  0.43943400  0.38450300  0.01053100  1
  N  N62  1  0.00632000  0.20045400  0.99132100  1
  N  N63  1  0.99368000  0.70045400  0.50867900  1
  N  N64  1  0.99368000  0.79954600  0.00867900  1
  N  N65  1  0.00632000  0.29954600  0.49132100  1
  N  N66  1  0.05768700  0.29159700  0.13552400  1
  N  N67  1  0.94231300  0.79159700  0.36447600  1
  N  N68  1  0.94231300  0.70840300  0.86447600  1
  N  N69  1  0.05768700  0.20840300  0.63552400  1
  O  O70  1  0.82943600  0.03717800  0.13739300  1
  O  O71  1  0.17056400  0.53717800  0.36260700  1
  O  O72  1  0.17056400  0.96282200  0.86260700  1
  O  O73  1  0.82943600  0.46282200  0.63739300  1
  O  O74  1  0.35829800  0.06389800  0.13442500  1
  O  O75  1  0.64170200  0.56389800  0.36557500  1
  O  O76  1  0.64170200  0.93610200  0.86557500  1
  O  O77  1  0.35829800  0.43610200  0.63442500  1
  O  O78  1  0.77481800  0.14069200  0.23444900  1
  O  O79  1  0.22518200  0.64069200  0.26555100  1
  O  O80  1  0.22518200  0.85930800  0.76555100  1
  O  O81  1  0.77481800  0.35930800  0.73444900  1
  O  O82  1  0.42316200  0.10957300  0.90156900  1
  O  O83  1  0.57683800  0.60957300  0.59843100  1
  O  O84  1  0.57683800  0.89042700  0.09843100  1
  O  O85  1  0.42316200  0.39042700  0.40156900  1
  O  O86  1  0.72557800  0.06667000  0.78493000  1
  O  O87  1  0.27442200  0.56667000  0.71507000  1
  O  O88  1  0.27442200  0.93333000  0.21507000  1
  O  O89  1  0.72557800  0.43333000  0.28493000  1
  O  O90  1  0.45775100  0.22540600  0.25843000  1
  O  O91  1  0.54224900  0.72540600  0.24157000  1
  O  O92  1  0.54224900  0.77459400  0.74157000  1
  O  O93  1  0.45775100  0.27459400  0.75843000  1
