# generated using pymatgen
data_SiC
_symmetry_space_group_name_H-M   'P 1'
_cell_length_a   3.09480906
_cell_length_b   3.09480906
_cell_length_c   91.10035700
_cell_angle_alpha   90.00000000
_cell_angle_beta   90.00000000
_cell_angle_gamma   120.00000000
_symmetry_Int_Tables_number   1
_chemical_formula_structural   SiC
_chemical_formula_sum   'Si36 C36'
_cell_volume   755.64607535
_cell_formula_units_Z   36
loop_
 _symmetry_equiv_pos_site_id
 _symmetry_equiv_pos_as_xyz
  1  'x, y, z'
loop_
 _atom_site_type_symbol
 _atom_site_label
 _atom_site_symmetry_multiplicity
 _atom_site_fract_x
 _atom_site_fract_y
 _atom_site_fract_z
 _atom_site_occupancy
  Si  Si0  1  0.00000000  0.00000000  0.16665800  1
  Si  Si1  1  0.66666667  0.33333333  0.61110000  1
  Si  Si2  1  0.33333333  0.66666667  0.91663800  1
  Si  Si3  1  0.00000000  0.00000000  0.41665500  1
  Si  Si4  1  0.33333333  0.66666667  0.36111600  1
  Si  Si5  1  0.66666667  0.33333333  0.27778500  1
  Si  Si6  1  0.33333333  0.66666667  0.80556500  1
  Si  Si7  1  0.33333333  0.66666667  0.30553700  1
  Si  Si8  1  0.66666667  0.33333333  0.77777300  1
  Si  Si9  1  0.33333333  0.66666667  0.13886400  1
  Si  Si10  1  0.00000000  0.00000000  0.66664100  1
  Si  Si11  1  0.33333333  0.66666667  0.02778500  1
  Si  Si12  1  0.66666667  0.33333333  0.52777200  1
  Si  Si13  1  0.33333333  0.66666667  0.63889200  1
  Si  Si14  1  0.00000000  0.00000000  0.83331100  1
  Si  Si15  1  0.33333333  0.66666667  0.19444500  1
  Si  Si16  1  0.33333333  0.66666667  0.47221000  1
  Si  Si17  1  0.66666667  0.33333333  0.11111300  1
  Si  Si18  1  0.66666667  0.33333333  0.05553200  1
  Si  Si19  1  0.00000000  0.00000000  0.49997500  1
  Si  Si20  1  0.66666667  0.33333333  0.22219600  1
  Si  Si21  1  0.00000000  0.00000000  0.55556200  1
  Si  Si22  1  0.00000000  0.00000000  0.72222500  1
  Si  Si23  1  0.00000000  0.00000000  0.08332500  1
  Si  Si24  1  0.66666667  0.33333333  0.94443300  1
  Si  Si25  1  0.66666667  0.33333333  0.38886200  1
  Si  Si26  1  0.66666667  0.33333333  0.69443300  1
  Si  Si27  1  0.66666667  0.33333333  0.86110400  1
  Si  Si28  1  0.00000000  0.00000000  0.33332700  1
  Si  Si29  1  0.33333333  0.66666667  0.58330800  1
  Si  Si30  1  0.00000000  0.00000000  0.99999000  1
  Si  Si31  1  0.00000000  0.00000000  0.88889100  1
  Si  Si32  1  0.66666667  0.33333333  0.44444400  1
  Si  Si33  1  0.33333333  0.66666667  0.74997700  1
  Si  Si34  1  0.00000000  0.00000000  0.24999300  1
  Si  Si35  1  0.33333333  0.66666667  0.97220700  1
  C  C36  1  0.00000000  0.00000000  0.74306000  1
  C  C37  1  0.00000000  0.00000000  0.27088300  1
  C  C38  1  0.33333333  0.66666667  0.38195000  1
  C  C39  1  0.00000000  0.00000000  0.57639100  1
  C  C40  1  0.66666667  0.33333333  0.46528200  1
  C  C41  1  0.66666667  0.33333333  0.13194900  1
  C  C42  1  0.66666667  0.33333333  0.40969800  1
  C  C43  1  0.33333333  0.66666667  0.82639500  1
  C  C44  1  0.00000000  0.00000000  0.43755000  1
  C  C45  1  0.66666667  0.33333333  0.29861200  1
  C  C46  1  0.00000000  0.00000000  0.10421800  1
  C  C47  1  0.66666667  0.33333333  0.71532800  1
  C  C48  1  0.00000000  0.00000000  0.90972800  1
  C  C49  1  0.66666667  0.33333333  0.79866200  1
  C  C50  1  0.00000000  0.00000000  0.52080900  1
  C  C51  1  0.66666667  0.33333333  0.88199600  1
  C  C52  1  0.66666667  0.33333333  0.07637000  1
  C  C53  1  0.33333333  0.66666667  0.99302300  1
  C  C54  1  0.66666667  0.33333333  0.24303000  1
  C  C55  1  0.00000000  0.00000000  0.18754600  1
  C  C56  1  0.66666667  0.33333333  0.63198700  1
  C  C57  1  0.33333333  0.66666667  0.04861900  1
  C  C58  1  0.00000000  0.00000000  0.85414200  1
  C  C59  1  0.33333333  0.66666667  0.60414400  1
  C  C60  1  0.00000000  0.00000000  0.35421400  1
  C  C61  1  0.33333333  0.66666667  0.15969300  1
  C  C62  1  0.33333333  0.66666667  0.49306400  1
  C  C63  1  0.33333333  0.66666667  0.65972100  1
  C  C64  1  0.33333333  0.66666667  0.93747400  1
  C  C65  1  0.33333333  0.66666667  0.77080900  1
  C  C66  1  0.33333333  0.66666667  0.32636600  1
  C  C67  1  0.66666667  0.33333333  0.54866800  1
  C  C68  1  0.33333333  0.66666667  0.21527900  1
  C  C69  1  0.00000000  0.00000000  0.02088900  1
  C  C70  1  0.66666667  0.33333333  0.96532900  1
  C  C71  1  0.00000000  0.00000000  0.68746800  1
