# generated using pymatgen
data_LiMg10AlH24
_symmetry_space_group_name_H-M   'P 1'
_cell_length_a   4.47679400
_cell_length_b   8.98010400
_cell_length_c   8.96724453
_cell_angle_alpha   90.00000000
_cell_angle_beta   90.33199140
_cell_angle_gamma   90.00000000
_symmetry_Int_Tables_number   1
_chemical_formula_structural   LiMg10AlH24
_chemical_formula_sum   'Li1 Mg10 Al1 H24'
_cell_volume   360.49579186
_cell_formula_units_Z   1
loop_
 _symmetry_equiv_pos_site_id
 _symmetry_equiv_pos_as_xyz
  1  'x, y, z'
loop_
 _atom_site_type_symbol
 _atom_site_label
 _atom_site_symmetry_multiplicity
 _atom_site_fract_x
 _atom_site_fract_y
 _atom_site_fract_z
 _atom_site_occupancy
  Li  Li0  1  0.50000000  0.49682100  0.00000000  1
  Mg  Mg1  1  0.50000000  0.50101700  0.50000000  1
  Mg  Mg2  1  0.99440400  0.66562400  0.24561400  1
  Mg  Mg3  1  0.50000000  0.83362800  0.50000000  1
  Mg  Mg4  1  0.50000000  0.17247900  0.00000000  1
  Mg  Mg5  1  0.99904300  0.33702900  0.24201000  1
  Mg  Mg6  1  0.50000000  0.16828000  0.50000000  1
  Mg  Mg7  1  0.00559600  0.66562400  0.75438600  1
  Mg  Mg8  1  0.00281600  0.00068200  0.74829200  1
  Mg  Mg9  1  0.99718400  0.00068200  0.25170800  1
  Mg  Mg10  1  0.00095700  0.33702900  0.75799000  1
  Al  Al11  1  0.50000000  0.83205600  0.00000000  1
  H  H12  1  0.30112600  0.33319500  0.59971800  1
  H  H13  1  0.30514300  0.67066600  0.59912700  1
  H  H14  1  0.19488600  0.50571300  0.85126100  1
  H  H15  1  0.69671600  0.32851600  0.90119500  1
  H  H16  1  0.69887400  0.33319500  0.40028200  1
  H  H17  1  0.80468200  0.16523500  0.65395300  1
  H  H18  1  0.81369300  0.83370600  0.65568400  1
  H  H19  1  0.18630700  0.83370600  0.34431600  1
  H  H20  1  0.30714900  0.99906600  0.59805000  1
  H  H21  1  0.77971300  0.83814300  0.14241000  1
  H  H22  1  0.30898900  0.69552100  0.09310600  1
  H  H23  1  0.22028700  0.83814300  0.85759000  1
  H  H24  1  0.19888900  0.50376700  0.34720500  1
  H  H25  1  0.80111100  0.50376700  0.65279500  1
  H  H26  1  0.80511400  0.50571300  0.14873900  1
  H  H27  1  0.80540700  0.15899000  0.14901500  1
  H  H28  1  0.69485700  0.67066600  0.40087300  1
  H  H29  1  0.69101100  0.69552100  0.90689400  1
  H  H30  1  0.68578400  0.98200600  0.90819200  1
  H  H31  1  0.30328400  0.32851600  0.09880500  1
  H  H32  1  0.19531800  0.16523500  0.34604700  1
  H  H33  1  0.69285100  0.99906600  0.40195000  1
  H  H34  1  0.19459300  0.15899000  0.85098500  1
  H  H35  1  0.31421600  0.98200600  0.09180800  1
