# generated using pymatgen
data_PC2N3Cl4
_symmetry_space_group_name_H-M   'P 1'
_cell_length_a   7.57686800
_cell_length_b   13.18692000
_cell_length_c   9.07872500
_cell_angle_alpha   90.00000000
_cell_angle_beta   90.00000000
_cell_angle_gamma   90.00000000
_symmetry_Int_Tables_number   1
_chemical_formula_structural   PC2N3Cl4
_chemical_formula_sum   'P4 C8 N12 Cl16'
_cell_volume   907.10582134
_cell_formula_units_Z   4
loop_
 _symmetry_equiv_pos_site_id
 _symmetry_equiv_pos_as_xyz
  1  'x, y, z'
loop_
 _atom_site_type_symbol
 _atom_site_label
 _atom_site_symmetry_multiplicity
 _atom_site_fract_x
 _atom_site_fract_y
 _atom_site_fract_z
 _atom_site_occupancy
  P  P0  1  0.50000000  0.44214100  0.75000000  1
  P  P1  1  0.00000000  0.05785900  0.25000000  1
  P  P2  1  0.00000000  0.94214100  0.75000000  1
  P  P3  1  0.50000000  0.55785900  0.25000000  1
  C  C4  1  0.00000000  0.22536500  0.12452200  1
  C  C5  1  0.50000000  0.27463500  0.62452200  1
  C  C6  1  0.50000000  0.27463500  0.87547800  1
  C  C7  1  0.00000000  0.22536500  0.37547800  1
  C  C8  1  0.50000000  0.72536500  0.12452200  1
  C  C9  1  0.00000000  0.77463500  0.62452200  1
  C  C10  1  0.00000000  0.77463500  0.87547800  1
  C  C11  1  0.50000000  0.72536500  0.37547800  1
  N  N12  1  0.00000000  0.27908600  0.25000000  1
  N  N13  1  0.00000000  0.12653200  0.10138400  1
  N  N14  1  0.00000000  0.12653200  0.39861600  1
  N  N15  1  0.50000000  0.37346800  0.89861600  1
  N  N16  1  0.50000000  0.22091400  0.75000000  1
  N  N17  1  0.50000000  0.37346800  0.60138400  1
  N  N18  1  0.50000000  0.77908600  0.25000000  1
  N  N19  1  0.50000000  0.62653200  0.10138400  1
  N  N20  1  0.50000000  0.62653200  0.39861600  1
  N  N21  1  0.00000000  0.87346800  0.89861600  1
  N  N22  1  0.00000000  0.72091400  0.75000000  1
  N  N23  1  0.00000000  0.87346800  0.60138400  1
  Cl  Cl24  1  0.00000000  0.30009900  0.53353200  1
  Cl  Cl25  1  0.50000000  0.19990100  0.03353200  1
  Cl  Cl26  1  0.79279150  0.03469750  0.75000000  1
  Cl  Cl27  1  0.50000000  0.19990100  0.46646800  1
  Cl  Cl28  1  0.00000000  0.30009900  0.96646800  1
  Cl  Cl29  1  0.70720850  0.46530250  0.25000000  1
  Cl  Cl30  1  0.20720850  0.03469750  0.75000000  1
  Cl  Cl31  1  0.29279150  0.46530250  0.25000000  1
  Cl  Cl32  1  0.50000000  0.80009900  0.53353200  1
  Cl  Cl33  1  0.00000000  0.69990100  0.03353200  1
  Cl  Cl34  1  0.29279150  0.53469750  0.75000000  1
  Cl  Cl35  1  0.00000000  0.69990100  0.46646800  1
  Cl  Cl36  1  0.50000000  0.80009900  0.96646800  1
  Cl  Cl37  1  0.20720850  0.96530250  0.25000000  1
  Cl  Cl38  1  0.70720850  0.53469750  0.75000000  1
  Cl  Cl39  1  0.79279150  0.96530250  0.25000000  1
