# generated using pymatgen
data_LiEr(PO3)4
_symmetry_space_group_name_H-M   'P 1'
_cell_length_a   16.53149800
_cell_length_b   7.19417200
_cell_length_c   9.72554007
_cell_angle_alpha   90.00000000
_cell_angle_beta   125.55322791
_cell_angle_gamma   90.00000000
_symmetry_Int_Tables_number   1
_chemical_formula_structural   LiEr(PO3)4
_chemical_formula_sum   'Li4 Er4 P16 O48'
_cell_volume   941.03270631
_cell_formula_units_Z   4
loop_
 _symmetry_equiv_pos_site_id
 _symmetry_equiv_pos_as_xyz
  1  'x, y, z'
loop_
 _atom_site_type_symbol
 _atom_site_label
 _atom_site_symmetry_multiplicity
 _atom_site_fract_x
 _atom_site_fract_y
 _atom_site_fract_z
 _atom_site_occupancy
  Li  Li0  1  0.00000000  0.00000000  0.00000000  1
  Li  Li1  1  0.00000000  0.00000000  0.50000000  1
  Li  Li2  1  0.50000000  0.50000000  0.00000000  1
  Li  Li3  1  0.50000000  0.50000000  0.50000000  1
  Er  Er4  1  0.00000000  0.76470700  0.25000000  1
  Er  Er5  1  0.00000000  0.23529300  0.75000000  1
  Er  Er6  1  0.50000000  0.26470700  0.25000000  1
  Er  Er7  1  0.50000000  0.73529300  0.75000000  1
  P  P8  1  0.13457150  0.54803950  0.65633000  1
  P  P9  1  0.64933700  0.34134700  0.09139900  1
  P  P10  1  0.85066300  0.84134700  0.40860100  1
  P  P11  1  0.36542850  0.04803950  0.84367000  1
  P  P12  1  0.14933700  0.15865300  0.59139900  1
  P  P13  1  0.86542850  0.45196050  0.34367000  1
  P  P14  1  0.63457150  0.95196050  0.15633000  1
  P  P15  1  0.35066300  0.65865300  0.90860100  1
  P  P16  1  0.63457150  0.04803950  0.65633000  1
  P  P17  1  0.14933700  0.84134700  0.09139900  1
  P  P18  1  0.35066300  0.34134700  0.40860100  1
  P  P19  1  0.86542850  0.54803950  0.84367000  1
  P  P20  1  0.64933700  0.65865300  0.59139900  1
  P  P21  1  0.36542850  0.95196050  0.34367000  1
  P  P22  1  0.13457150  0.45196050  0.15633000  1
  P  P23  1  0.85066300  0.15865300  0.90860100  1
  O  O24  1  0.11573800  0.12302200  0.70534200  1
  O  O25  1  0.91979600  0.92798900  0.57970600  1
  O  O26  1  0.91979600  0.07201100  0.07970600  1
  O  O27  1  0.60416000  0.79005600  0.03733100  1
  O  O28  1  0.74089000  0.91157800  0.33114800  1
  O  O29  1  0.66050500  0.12142500  0.07815200  1
  O  O30  1  0.93142800  0.48691300  0.79400400  1
  O  O31  1  0.08020400  0.92798900  0.92029400  1
  O  O32  1  0.39584000  0.20994400  0.96266900  1
  O  O33  1  0.88426200  0.87697800  0.29465800  1
  O  O34  1  0.25911000  0.08842200  0.66885200  1
  O  O35  1  0.89584000  0.29005600  0.46266900  1
  O  O36  1  0.06857200  0.51308700  0.20599600  1
  O  O37  1  0.10416000  0.70994400  0.53733100  1
  O  O38  1  0.38426200  0.62302200  0.79465800  1
  O  O39  1  0.33949500  0.87857500  0.92184800  1
  O  O40  1  0.93142800  0.51308700  0.29400400  1
  O  O41  1  0.24089000  0.58842200  0.83114800  1
  O  O42  1  0.06857200  0.48691300  0.70599600  1
  O  O43  1  0.08020400  0.07201100  0.42029400  1
  O  O44  1  0.83949500  0.62142500  0.42184800  1
  O  O45  1  0.16050500  0.37857500  0.57815200  1
  O  O46  1  0.75911000  0.41157800  0.16885200  1
  O  O47  1  0.61573800  0.37697800  0.20534200  1
  O  O48  1  0.61573800  0.62302200  0.70534200  1
  O  O49  1  0.41979600  0.42798900  0.57970600  1
  O  O50  1  0.41979600  0.57201100  0.07970600  1
  O  O51  1  0.10416000  0.29005600  0.03733100  1
  O  O52  1  0.24089000  0.41157800  0.33114800  1
  O  O53  1  0.16050500  0.62142500  0.07815200  1
  O  O54  1  0.43142800  0.98691300  0.79400400  1
  O  O55  1  0.58020400  0.42798900  0.92029400  1
  O  O56  1  0.89584000  0.70994400  0.96266900  1
  O  O57  1  0.38426200  0.37697800  0.29465800  1
  O  O58  1  0.75911000  0.58842200  0.66885200  1
  O  O59  1  0.39584000  0.79005600  0.46266900  1
  O  O60  1  0.56857200  0.01308700  0.20599600  1
  O  O61  1  0.60416000  0.20994400  0.53733100  1
  O  O62  1  0.88426200  0.12302200  0.79465800  1
  O  O63  1  0.83949500  0.37857500  0.92184800  1
  O  O64  1  0.43142800  0.01308700  0.29400400  1
  O  O65  1  0.74089000  0.08842200  0.83114800  1
  O  O66  1  0.56857200  0.98691300  0.70599600  1
  O  O67  1  0.58020400  0.57201100  0.42029400  1
  O  O68  1  0.33949500  0.12142500  0.42184800  1
  O  O69  1  0.66050500  0.87857500  0.57815200  1
  O  O70  1  0.25911000  0.91157800  0.16885200  1
  O  O71  1  0.11573800  0.87697800  0.20534200  1
