# generated using pymatgen
data_MgH8C2S2(NO2)2
_symmetry_space_group_name_H-M   'P 1'
_cell_length_a   7.59296600
_cell_length_b   9.09245300
_cell_length_c   7.97918075
_cell_angle_alpha   90.00000000
_cell_angle_beta   115.30937539
_cell_angle_gamma   90.00000000
_symmetry_Int_Tables_number   1
_chemical_formula_structural   MgH8C2S2(NO2)2
_chemical_formula_sum   'Mg2 H16 C4 S4 N4 O8'
_cell_volume   497.99537645
_cell_formula_units_Z   2
loop_
 _symmetry_equiv_pos_site_id
 _symmetry_equiv_pos_as_xyz
  1  'x, y, z'
loop_
 _atom_site_type_symbol
 _atom_site_label
 _atom_site_symmetry_multiplicity
 _atom_site_fract_x
 _atom_site_fract_y
 _atom_site_fract_z
 _atom_site_occupancy
  Mg  Mg0  1  0.00000000  0.00000000  0.00000000  1
  Mg  Mg1  1  0.50000000  0.50000000  0.00000000  1
  H  H2  1  0.84456700  0.05756100  0.24616700  1
  H  H3  1  0.65543300  0.55756100  0.75383300  1
  H  H4  1  0.89250400  0.46247100  0.20852500  1
  H  H5  1  0.60749600  0.96247100  0.79147500  1
  H  H6  1  0.15543300  0.94243900  0.75383300  1
  H  H7  1  0.94512400  0.87946700  0.67477200  1
  H  H8  1  0.67997200  0.80581000  0.87590300  1
  H  H9  1  0.44512400  0.62053300  0.67477200  1
  H  H10  1  0.17997200  0.69419000  0.87590300  1
  H  H11  1  0.10749600  0.53752900  0.79147500  1
  H  H12  1  0.82002800  0.30581000  0.12409700  1
  H  H13  1  0.55487600  0.37946700  0.32522800  1
  H  H14  1  0.39250400  0.03752900  0.20852500  1
  H  H15  1  0.32002800  0.19419000  0.12409700  1
  H  H16  1  0.05487600  0.12053300  0.32522800  1
  H  H17  1  0.34456700  0.44243900  0.24616700  1
  C  C18  1  0.85922700  0.29079900  0.73096700  1
  C  C19  1  0.14077300  0.70920100  0.26903300  1
  C  C20  1  0.64077300  0.79079900  0.26903300  1
  C  C21  1  0.35922700  0.20920100  0.73096700  1
  S  S22  1  0.81083100  0.43943300  0.60350300  1
  S  S23  1  0.18916900  0.56056700  0.39649700  1
  S  S24  1  0.68916900  0.93943300  0.39649700  1
  S  S25  1  0.31083100  0.06056700  0.60350300  1
  N  N26  1  0.89719500  0.18388800  0.82354800  1
  N  N27  1  0.39719500  0.31611200  0.82354800  1
  N  N28  1  0.10280500  0.81611200  0.17645200  1
  N  N29  1  0.60280500  0.68388800  0.17645200  1
  O  O30  1  0.43411700  0.38620800  0.20822700  1
  O  O31  1  0.77960300  0.40962900  0.11524400  1
  O  O32  1  0.06588300  0.88620800  0.79177300  1
  O  O33  1  0.72039700  0.90962900  0.88475600  1
  O  O34  1  0.27960300  0.09037100  0.11524400  1
  O  O35  1  0.22039700  0.59037100  0.88475600  1
  O  O36  1  0.56588300  0.61379200  0.79177300  1
  O  O37  1  0.93411700  0.11379200  0.20822700  1
