# generated using pymatgen
data_Na2YC(OF)3
_symmetry_space_group_name_H-M   'P 1'
_cell_length_a   6.54049000
_cell_length_b   10.79300200
_cell_length_c   14.25097600
_cell_angle_alpha   90.00000000
_cell_angle_beta   90.00000000
_cell_angle_gamma   90.00000000
_symmetry_Int_Tables_number   1
_chemical_formula_structural   Na2YC(OF)3
_chemical_formula_sum   'Na16 Y8 C8 O24 F24'
_cell_volume   1005.99808085
_cell_formula_units_Z   8
loop_
 _symmetry_equiv_pos_site_id
 _symmetry_equiv_pos_as_xyz
  1  'x, y, z'
loop_
 _atom_site_type_symbol
 _atom_site_label
 _atom_site_symmetry_multiplicity
 _atom_site_fract_x
 _atom_site_fract_y
 _atom_site_fract_z
 _atom_site_occupancy
  Na  Na0  1  0.05254300  0.99330400  0.60709200  1
  Na  Na1  1  0.23564200  0.27829200  0.25610400  1
  Na  Na2  1  0.55254300  0.50669600  0.39290800  1
  Na  Na3  1  0.05254300  0.50669600  0.10709200  1
  Na  Na4  1  0.76435800  0.77829200  0.24389600  1
  Na  Na5  1  0.23564200  0.22170800  0.75610400  1
  Na  Na6  1  0.26435800  0.77829200  0.25610400  1
  Na  Na7  1  0.26435800  0.72170800  0.75610400  1
  Na  Na8  1  0.94745700  0.49330400  0.89290800  1
  Na  Na9  1  0.44745700  0.00669600  0.10709200  1
  Na  Na10  1  0.73564200  0.27829200  0.24389600  1
  Na  Na11  1  0.76435800  0.72170800  0.74389600  1
  Na  Na12  1  0.55254300  0.99330400  0.89290800  1
  Na  Na13  1  0.44745700  0.49330400  0.60709200  1
  Na  Na14  1  0.73564200  0.22170800  0.74389600  1
  Na  Na15  1  0.94745700  0.00669600  0.39290800  1
  Y  Y16  1  0.99437700  0.31610000  0.51420700  1
  Y  Y17  1  0.00562300  0.68390000  0.48579300  1
  Y  Y18  1  0.99437700  0.18390000  0.01420700  1
  Y  Y19  1  0.00562300  0.81610000  0.98579300  1
  Y  Y20  1  0.50562300  0.81610000  0.51420700  1
  Y  Y21  1  0.50562300  0.68390000  0.01420700  1
  Y  Y22  1  0.49437700  0.31610000  0.98579300  1
  Y  Y23  1  0.49437700  0.18390000  0.48579300  1
  C  C24  1  0.99694900  0.51756100  0.32533400  1
  C  C25  1  0.50305100  0.01756100  0.32533400  1
  C  C26  1  0.00305100  0.48243900  0.67466600  1
  C  C27  1  0.99694900  0.98243900  0.82533400  1
  C  C28  1  0.50305100  0.48243900  0.82533400  1
  C  C29  1  0.49694900  0.98243900  0.67466600  1
  C  C30  1  0.49694900  0.51756100  0.17466600  1
  C  C31  1  0.00305100  0.01756100  0.17466600  1
  O  O32  1  0.43199700  0.48745000  0.08945000  1
  O  O33  1  0.99872400  0.43853600  0.25900100  1
  O  O34  1  0.93199700  0.01255000  0.91055000  1
  O  O35  1  0.00127600  0.93853600  0.24099900  1
  O  O36  1  0.55193800  0.86764400  0.68433000  1
  O  O37  1  0.05193800  0.63235600  0.31567000  1
  O  O38  1  0.05193800  0.86764400  0.81567000  1
  O  O39  1  0.94806200  0.13235600  0.18433000  1
  O  O40  1  0.06800300  0.51255000  0.58945000  1
  O  O41  1  0.43199700  0.01255000  0.58945000  1
  O  O42  1  0.50127600  0.93853600  0.25900100  1
  O  O43  1  0.00127600  0.56146400  0.74099900  1
  O  O44  1  0.55193800  0.63235600  0.18433000  1
  O  O45  1  0.44806200  0.13235600  0.31567000  1
  O  O46  1  0.56800300  0.51255000  0.91055000  1
  O  O47  1  0.49872400  0.43853600  0.24099900  1
  O  O48  1  0.56800300  0.98745000  0.41055000  1
  O  O49  1  0.50127600  0.56146400  0.75900100  1
  O  O50  1  0.99872400  0.06146400  0.75900100  1
  O  O51  1  0.44806200  0.36764400  0.81567000  1
  O  O52  1  0.93199700  0.48745000  0.41055000  1
  O  O53  1  0.06800300  0.98745000  0.08945000  1
  O  O54  1  0.94806200  0.36764400  0.68433000  1
  O  O55  1  0.49872400  0.06146400  0.74099900  1
  F  F56  1  0.84919500  0.62583200  0.02056800  1
  F  F57  1  0.70893400  0.66165600  0.57938800  1
  F  F58  1  0.15080500  0.37416800  0.97943200  1
  F  F59  1  0.34919500  0.87416800  0.97943200  1
  F  F60  1  0.19791700  0.77932100  0.60166800  1
  F  F61  1  0.80208300  0.27932100  0.89833200  1
  F  F62  1  0.19791700  0.72067900  0.10166800  1
  F  F63  1  0.30208300  0.27932100  0.60166800  1
  F  F64  1  0.79106600  0.33834400  0.07938800  1
  F  F65  1  0.69791700  0.72067900  0.39833200  1
  F  F66  1  0.29106600  0.33834400  0.42061200  1
  F  F67  1  0.20893400  0.83834400  0.42061200  1
  F  F68  1  0.80208300  0.22067900  0.39833200  1
  F  F69  1  0.84919500  0.87416800  0.52056800  1
  F  F70  1  0.65080500  0.37416800  0.52056800  1
  F  F71  1  0.30208300  0.22067900  0.10166800  1
  F  F72  1  0.15080500  0.12583200  0.47943200  1
  F  F73  1  0.29106600  0.16165600  0.92061200  1
  F  F74  1  0.69791700  0.77932100  0.89833200  1
  F  F75  1  0.20893400  0.66165600  0.92061200  1
  F  F76  1  0.34919500  0.62583200  0.47943200  1
  F  F77  1  0.79106600  0.16165600  0.57938800  1
  F  F78  1  0.70893400  0.83834400  0.07938800  1
  F  F79  1  0.65080500  0.12583200  0.02056800  1
