# generated using pymatgen
data_Cs2As2OF10
_symmetry_space_group_name_H-M   'P 1'
_cell_length_a   5.70519700
_cell_length_b   10.92705000
_cell_length_c   9.39125755
_cell_angle_alpha   90.00000000
_cell_angle_beta   105.28714280
_cell_angle_gamma   90.00000000
_symmetry_Int_Tables_number   1
_chemical_formula_structural   Cs2As2OF10
_chemical_formula_sum   'Cs4 As4 O2 F20'
_cell_volume   564.74456669
_cell_formula_units_Z   2
loop_
 _symmetry_equiv_pos_site_id
 _symmetry_equiv_pos_as_xyz
  1  'x, y, z'
loop_
 _atom_site_type_symbol
 _atom_site_label
 _atom_site_symmetry_multiplicity
 _atom_site_fract_x
 _atom_site_fract_y
 _atom_site_fract_z
 _atom_site_occupancy
  Cs  Cs0  1  0.17593300  0.01566200  0.75269800  1
  Cs  Cs1  1  0.82406700  0.98433800  0.24730200  1
  Cs  Cs2  1  0.82406700  0.51566200  0.24730200  1
  Cs  Cs3  1  0.17593300  0.48433800  0.75269800  1
  As  As4  1  0.50561600  0.75000000  0.52260100  1
  As  As5  1  0.72508200  0.75000000  0.88639300  1
  As  As6  1  0.27491800  0.25000000  0.11360700  1
  As  As7  1  0.49438400  0.25000000  0.47739900  1
  O  O8  1  0.49272300  0.75000000  0.71355200  1
  O  O9  1  0.50727700  0.25000000  0.28644800  1
  F  F10  1  0.73171700  0.86683900  0.54856000  1
  F  F11  1  0.26721400  0.08486900  0.10636100  1
  F  F12  1  0.27291800  0.63569200  0.48338000  1
  F  F13  1  0.73278600  0.91513100  0.89363900  1
  F  F14  1  0.97870200  0.75000000  0.81031200  1
  F  F15  1  0.51190900  0.25000000  0.02322400  1
  F  F16  1  0.02129800  0.25000000  0.18968800  1
  F  F17  1  0.72708200  0.13569200  0.51662000  1
  F  F18  1  0.06474100  0.25000000  0.93368700  1
  F  F19  1  0.93525900  0.75000000  0.06631300  1
  F  F20  1  0.26828300  0.36683900  0.45144000  1
  F  F21  1  0.49890700  0.75000000  0.33092400  1
  F  F22  1  0.48809100  0.75000000  0.97677600  1
  F  F23  1  0.27291800  0.86430800  0.48338000  1
  F  F24  1  0.26828300  0.13316100  0.45144000  1
  F  F25  1  0.73278600  0.58486900  0.89363900  1
  F  F26  1  0.72708200  0.36430800  0.51662000  1
  F  F27  1  0.73171700  0.63316100  0.54856000  1
  F  F28  1  0.50109300  0.25000000  0.66907600  1
  F  F29  1  0.26721400  0.41513100  0.10636100  1
