# generated using pymatgen
data_GeClO2F5
_symmetry_space_group_name_H-M   'P 1'
_cell_length_a   7.59144400
_cell_length_b   15.28114800
_cell_length_c   9.04218800
_cell_angle_alpha   90.00000000
_cell_angle_beta   90.00000000
_cell_angle_gamma   90.00000000
_symmetry_Int_Tables_number   1
_chemical_formula_structural   GeClO2F5
_chemical_formula_sum   'Ge8 Cl8 O16 F40'
_cell_volume   1048.94787393
_cell_formula_units_Z   8
loop_
 _symmetry_equiv_pos_site_id
 _symmetry_equiv_pos_as_xyz
  1  'x, y, z'
loop_
 _atom_site_type_symbol
 _atom_site_label
 _atom_site_symmetry_multiplicity
 _atom_site_fract_x
 _atom_site_fract_y
 _atom_site_fract_z
 _atom_site_occupancy
  Ge  Ge0  1  0.38237050  0.38631350  0.43276100  1
  Ge  Ge1  1  0.11762950  0.11368650  0.93276100  1
  Ge  Ge2  1  0.88237050  0.11368650  0.56723900  1
  Ge  Ge3  1  0.61762950  0.38631350  0.06723900  1
  Ge  Ge4  1  0.88237050  0.88631350  0.43276100  1
  Ge  Ge5  1  0.61762950  0.61368650  0.93276100  1
  Ge  Ge6  1  0.38237050  0.61368650  0.56723900  1
  Ge  Ge7  1  0.11762950  0.88631350  0.06723900  1
  Cl  Cl8  1  0.50000000  0.11275300  0.25000000  1
  Cl  Cl9  1  0.50000000  0.22567300  0.75000000  1
  Cl  Cl10  1  0.00000000  0.38724700  0.75000000  1
  Cl  Cl11  1  0.00000000  0.27432700  0.25000000  1
  Cl  Cl12  1  0.00000000  0.61275300  0.25000000  1
  Cl  Cl13  1  0.00000000  0.72567300  0.75000000  1
  Cl  Cl14  1  0.50000000  0.88724700  0.75000000  1
  Cl  Cl15  1  0.50000000  0.77432700  0.25000000  1
  O  O16  1  0.09142050  0.43408550  0.86231700  1
  O  O17  1  0.40857950  0.06591450  0.36231700  1
  O  O18  1  0.43242900  0.17866700  0.62661500  1
  O  O19  1  0.90857950  0.43408550  0.63768300  1
  O  O20  1  0.56757100  0.17866700  0.87338500  1
  O  O21  1  0.93242900  0.32133300  0.37338500  1
  O  O22  1  0.06757100  0.32133300  0.12661500  1
  O  O23  1  0.59142050  0.06591450  0.13768300  1
  O  O24  1  0.59142050  0.93408550  0.86231700  1
  O  O25  1  0.90857950  0.56591450  0.36231700  1
  O  O26  1  0.93242900  0.67866700  0.62661500  1
  O  O27  1  0.40857950  0.93408550  0.63768300  1
  O  O28  1  0.06757100  0.67866700  0.87338500  1
  O  O29  1  0.43242900  0.82133300  0.37338500  1
  O  O30  1  0.56757100  0.82133300  0.12661500  1
  O  O31  1  0.09142050  0.56591450  0.13768300  1
  F  F32  1  0.08316100  0.15657700  0.50097500  1
  F  F33  1  0.68402800  0.28284800  0.15013800  1
  F  F34  1  0.03235300  0.00000000  0.00000000  1
  F  F35  1  0.41683900  0.34342300  0.00097500  1
  F  F36  1  0.80597550  0.44075350  0.13495500  1
  F  F37  1  0.18402800  0.21715200  0.84986200  1
  F  F38  1  0.81597200  0.21715200  0.65013800  1
  F  F39  1  0.69402450  0.05924650  0.63495500  1
  F  F40  1  0.27620350  0.36241350  0.61164900  1
  F  F41  1  0.31597200  0.28284800  0.34986200  1
  F  F42  1  0.96764700  0.00000000  0.50000000  1
  F  F43  1  0.50000000  0.41962400  0.25000000  1
  F  F44  1  0.30597550  0.05924650  0.86504500  1
  F  F45  1  0.19402450  0.44075350  0.36504500  1
  F  F46  1  0.91683900  0.15657700  0.99902500  1
  F  F47  1  0.77620350  0.13758650  0.38835100  1
  F  F48  1  0.22379650  0.13758650  0.11164900  1
  F  F49  1  0.72379650  0.36241350  0.88835100  1
  F  F50  1  0.58316100  0.34342300  0.49902500  1
  F  F51  1  0.00000000  0.08037600  0.75000000  1
  F  F52  1  0.58316100  0.65657700  0.50097500  1
  F  F53  1  0.18402800  0.78284800  0.15013800  1
  F  F54  1  0.53235300  0.50000000  0.00000000  1
  F  F55  1  0.91683900  0.84342300  0.00097500  1
  F  F56  1  0.30597550  0.94075350  0.13495500  1
  F  F57  1  0.68402800  0.71715200  0.84986200  1
  F  F58  1  0.31597200  0.71715200  0.65013800  1
  F  F59  1  0.19402450  0.55924650  0.63495500  1
  F  F60  1  0.77620350  0.86241350  0.61164900  1
  F  F61  1  0.81597200  0.78284800  0.34986200  1
  F  F62  1  0.46764700  0.50000000  0.50000000  1
  F  F63  1  0.00000000  0.91962400  0.25000000  1
  F  F64  1  0.80597550  0.55924650  0.86504500  1
  F  F65  1  0.69402450  0.94075350  0.36504500  1
  F  F66  1  0.41683900  0.65657700  0.99902500  1
  F  F67  1  0.27620350  0.63758650  0.38835100  1
  F  F68  1  0.72379650  0.63758650  0.11164900  1
  F  F69  1  0.22379650  0.86241350  0.88835100  1
  F  F70  1  0.08316100  0.84342300  0.49902500  1
  F  F71  1  0.50000000  0.58037600  0.75000000  1
