# generated using pymatgen
data_Na2(ReS2)3
_symmetry_space_group_name_H-M   'P 1'
_cell_length_a   16.06458000
_cell_length_b   9.73549600
_cell_length_c   11.65418939
_cell_angle_alpha   90.00000000
_cell_angle_beta   92.70716862
_cell_angle_gamma   90.00000000
_symmetry_Int_Tables_number   1
_chemical_formula_structural   Na2(ReS2)3
_chemical_formula_sum   'Na16 Re24 S48'
_cell_volume   1820.64207366
_cell_formula_units_Z   8
loop_
 _symmetry_equiv_pos_site_id
 _symmetry_equiv_pos_as_xyz
  1  'x, y, z'
loop_
 _atom_site_type_symbol
 _atom_site_label
 _atom_site_symmetry_multiplicity
 _atom_site_fract_x
 _atom_site_fract_y
 _atom_site_fract_z
 _atom_site_occupancy
  Na  Na0  1  0.50000000  0.92721400  0.25000000  1
  Na  Na1  1  0.50000000  0.07278600  0.75000000  1
  Na  Na2  1  0.50000000  0.28887100  0.25000000  1
  Na  Na3  1  0.50000000  0.71112900  0.75000000  1
  Na  Na4  1  0.37418500  0.27092300  0.99201800  1
  Na  Na5  1  0.62581500  0.27092300  0.50798200  1
  Na  Na6  1  0.62581500  0.72907700  0.00798200  1
  Na  Na7  1  0.37418500  0.72907700  0.49201800  1
  Na  Na8  1  0.00000000  0.42721400  0.25000000  1
  Na  Na9  1  0.00000000  0.57278600  0.75000000  1
  Na  Na10  1  0.00000000  0.78887100  0.25000000  1
  Na  Na11  1  0.00000000  0.21112900  0.75000000  1
  Na  Na12  1  0.87418500  0.77092300  0.99201800  1
  Na  Na13  1  0.12581500  0.77092300  0.50798200  1
  Na  Na14  1  0.12581500  0.22907700  0.00798200  1
  Na  Na15  1  0.87418500  0.22907700  0.49201800  1
  Re  Re16  1  0.29753150  0.10418750  0.58537800  1
  Re  Re17  1  0.70246850  0.10418750  0.91462200  1
  Re  Re18  1  0.70246850  0.89581250  0.41462200  1
  Re  Re19  1  0.29753150  0.89581250  0.08537800  1
  Re  Re20  1  0.29712500  0.18216200  0.36731800  1
  Re  Re21  1  0.70287500  0.18216200  0.13268200  1
  Re  Re22  1  0.70287500  0.81783800  0.63268200  1
  Re  Re23  1  0.29712500  0.81783800  0.86731800  1
  Re  Re24  1  0.15578850  0.14490250  0.46785700  1
  Re  Re25  1  0.84421150  0.14490250  0.03214300  1
  Re  Re26  1  0.84421150  0.85509750  0.53214300  1
  Re  Re27  1  0.15578850  0.85509750  0.96785700  1
  Re  Re28  1  0.79753150  0.60418750  0.58537800  1
  Re  Re29  1  0.20246850  0.60418750  0.91462200  1
  Re  Re30  1  0.20246850  0.39581250  0.41462200  1
  Re  Re31  1  0.79753150  0.39581250  0.08537800  1
  Re  Re32  1  0.79712500  0.68216200  0.36731800  1
  Re  Re33  1  0.20287500  0.68216200  0.13268200  1
  Re  Re34  1  0.20287500  0.31783800  0.63268200  1
  Re  Re35  1  0.79712500  0.31783800  0.86731800  1
  Re  Re36  1  0.65578850  0.64490250  0.46785700  1
  Re  Re37  1  0.34421150  0.64490250  0.03214300  1
  Re  Re38  1  0.34421150  0.35509750  0.53214300  1
  Re  Re39  1  0.65578850  0.35509750  0.96785700  1
  S  S40  1  0.16339000  0.08331000  0.66796200  1
  S  S41  1  0.83661000  0.08331000  0.83203800  1
  S  S42  1  0.83661000  0.91669000  0.33203800  1
  S  S43  1  0.16339000  0.91669000  0.16796200  1
  S  S44  1  0.57438450  0.84664950  0.51337300  1
  S  S45  1  0.42561550  0.84664950  0.98662700  1
  S  S46  1  0.42561550  0.15335050  0.48662700  1
  S  S47  1  0.57438450  0.15335050  0.01337300  1
  S  S48  1  0.66180350  0.72572550  0.27113100  1
  S  S49  1  0.33819650  0.72572550  0.22886900  1
  S  S50  1  0.33819650  0.27427450  0.72886900  1
  S  S51  1  0.66180350  0.27427450  0.77113100  1
  S  S52  1  0.25110000  0.95773800  0.42681500  1
  S  S53  1  0.74890000  0.95773800  0.07318500  1
  S  S54  1  0.74890000  0.04226200  0.57318500  1
  S  S55  1  0.25110000  0.04226200  0.92681500  1
  S  S56  1  0.36357750  0.90451350  0.69218500  1
  S  S57  1  0.63642250  0.90451350  0.80781500  1
  S  S58  1  0.63642250  0.09548650  0.30781500  1
  S  S59  1  0.36357750  0.09548650  0.19218500  1
  S  S60  1  0.03167500  0.00682700  0.42275300  1
  S  S61  1  0.96832500  0.00682700  0.07724700  1
  S  S62  1  0.96832500  0.99317300  0.57724700  1
  S  S63  1  0.03167500  0.99317300  0.92275300  1
  S  S64  1  0.66339000  0.58331000  0.66796200  1
  S  S65  1  0.33661000  0.58331000  0.83203800  1
  S  S66  1  0.33661000  0.41669000  0.33203800  1
  S  S67  1  0.66339000  0.41669000  0.16796200  1
  S  S68  1  0.07438450  0.34664950  0.51337300  1
  S  S69  1  0.92561550  0.34664950  0.98662700  1
  S  S70  1  0.92561550  0.65335050  0.48662700  1
  S  S71  1  0.07438450  0.65335050  0.01337300  1
  S  S72  1  0.16180350  0.22572550  0.27113100  1
  S  S73  1  0.83819650  0.22572550  0.22886900  1
  S  S74  1  0.83819650  0.77427450  0.72886900  1
  S  S75  1  0.16180350  0.77427450  0.77113100  1
  S  S76  1  0.75110000  0.45773800  0.42681500  1
  S  S77  1  0.24890000  0.45773800  0.07318500  1
  S  S78  1  0.24890000  0.54226200  0.57318500  1
  S  S79  1  0.75110000  0.54226200  0.92681500  1
  S  S80  1  0.86357750  0.40451350  0.69218500  1
  S  S81  1  0.13642250  0.40451350  0.80781500  1
  S  S82  1  0.13642250  0.59548650  0.30781500  1
  S  S83  1  0.86357750  0.59548650  0.19218500  1
  S  S84  1  0.53167500  0.50682700  0.42275300  1
  S  S85  1  0.46832500  0.50682700  0.07724700  1
  S  S86  1  0.46832500  0.49317300  0.57724700  1
  S  S87  1  0.53167500  0.49317300  0.92275300  1
