# generated using pymatgen
data_Cs4Ba(PO3)6
_symmetry_space_group_name_H-M   'P 1'
_cell_length_a   11.74606862
_cell_length_b   11.74606862
_cell_length_c   9.26490800
_cell_angle_alpha   90.00000000
_cell_angle_beta   90.00000000
_cell_angle_gamma   120.00000000
_symmetry_Int_Tables_number   1
_chemical_formula_structural   Cs4Ba(PO3)6
_chemical_formula_sum   'Cs8 Ba2 P12 O36'
_cell_volume   1107.02342357
_cell_formula_units_Z   2
loop_
 _symmetry_equiv_pos_site_id
 _symmetry_equiv_pos_as_xyz
  1  'x, y, z'
loop_
 _atom_site_type_symbol
 _atom_site_label
 _atom_site_symmetry_multiplicity
 _atom_site_fract_x
 _atom_site_fract_y
 _atom_site_fract_z
 _atom_site_occupancy
  Cs  Cs0  1  0.00758533  0.23693367  0.00917800  1
  Cs  Cs1  1  0.23693367  0.00758533  0.50917800  1
  Cs  Cs2  1  0.99241467  0.22934833  0.50917800  1
  Cs  Cs3  1  0.76306633  0.77065167  0.00917800  1
  Cs  Cs4  1  0.77065167  0.76306633  0.50917800  1
  Cs  Cs5  1  0.22934833  0.99241467  0.00917800  1
  Cs  Cs6  1  0.66666667  0.33333333  0.74983200  1
  Cs  Cs7  1  0.33333333  0.66666667  0.24983200  1
  Ba  Ba8  1  0.33333333  0.66666667  0.75936600  1
  Ba  Ba9  1  0.66666667  0.33333333  0.25936600  1
  P  P10  1  0.54496233  0.99660967  0.49434900  1
  P  P11  1  0.28571933  0.30879267  0.74625600  1
  P  P12  1  0.45503767  0.45164733  0.99434900  1
  P  P13  1  0.30879267  0.28571933  0.24625600  1
  P  P14  1  0.99660967  0.54496233  0.99434900  1
  P  P15  1  0.69120733  0.97692667  0.74625600  1
  P  P16  1  0.71428067  0.02307333  0.24625600  1
  P  P17  1  0.00339033  0.54835267  0.49434900  1
  P  P18  1  0.02307333  0.71428067  0.74625600  1
  P  P19  1  0.45164733  0.45503767  0.49434900  1
  P  P20  1  0.54835267  0.00339033  0.99434900  1
  P  P21  1  0.97692667  0.69120733  0.24625600  1
  O  O22  1  0.67582433  0.02289667  0.58481600  1
  O  O23  1  0.02289667  0.67582433  0.08481600  1
  O  O24  1  0.95246733  0.57690967  0.83919400  1
  O  O25  1  0.37555767  0.42309033  0.33919400  1
  O  O26  1  0.34707233  0.32417567  0.58481600  1
  O  O27  1  0.32417567  0.34707233  0.08481600  1
  O  O28  1  0.57690967  0.95246733  0.33919400  1
  O  O29  1  0.57677933  0.45500067  0.04912800  1
  O  O30  1  0.42322067  0.87822133  0.54912800  1
  O  O31  1  0.95372833  0.78977867  0.77456200  1
  O  O32  1  0.97710333  0.65292767  0.58481600  1
  O  O33  1  0.12593233  0.54890167  0.98073100  1
  O  O34  1  0.12177867  0.54499933  0.54912800  1
  O  O35  1  0.78977867  0.95372833  0.27456200  1
  O  O36  1  0.16394967  0.21022133  0.27456200  1
  O  O37  1  0.87406767  0.42296933  0.48073100  1
  O  O38  1  0.38898933  0.21941667  0.26198700  1
  O  O39  1  0.65292767  0.97710333  0.08481600  1
  O  O40  1  0.45109833  0.57703067  0.98073100  1
  O  O41  1  0.87822133  0.42322067  0.04912800  1
  O  O42  1  0.57703067  0.45109833  0.48073100  1
  O  O43  1  0.45500067  0.57677933  0.54912800  1
  O  O44  1  0.21022133  0.16394967  0.77456200  1
  O  O45  1  0.04753267  0.62444233  0.33919400  1
  O  O46  1  0.61101067  0.83042733  0.76198700  1
  O  O47  1  0.54890167  0.12593233  0.48073100  1
  O  O48  1  0.54499933  0.12177867  0.04912800  1
  O  O49  1  0.78058333  0.16957267  0.26198700  1
  O  O50  1  0.16957267  0.78058333  0.76198700  1
  O  O51  1  0.62444233  0.04753267  0.83919400  1
  O  O52  1  0.83042733  0.61101067  0.26198700  1
  O  O53  1  0.42296933  0.87406767  0.98073100  1
  O  O54  1  0.42309033  0.37555767  0.83919400  1
  O  O55  1  0.21941667  0.38898933  0.76198700  1
  O  O56  1  0.04627167  0.83605033  0.27456200  1
  O  O57  1  0.83605033  0.04627167  0.77456200  1
