# generated using pymatgen
data_YZr5Si5PO24
_symmetry_space_group_name_H-M   'P 1'
_cell_length_a   6.02131800
_cell_length_b   9.56181000
_cell_length_c   28.77259200
_cell_angle_alpha   90.00000000
_cell_angle_beta   90.00000000
_cell_angle_gamma   90.00000000
_symmetry_Int_Tables_number   1
_chemical_formula_structural   YZr5Si5PO24
_chemical_formula_sum   'Y4 Zr20 Si20 P4 O96'
_cell_volume   1656.57331423
_cell_formula_units_Z   4
loop_
 _symmetry_equiv_pos_site_id
 _symmetry_equiv_pos_as_xyz
  1  'x, y, z'
loop_
 _atom_site_type_symbol
 _atom_site_label
 _atom_site_symmetry_multiplicity
 _atom_site_fract_x
 _atom_site_fract_y
 _atom_site_fract_z
 _atom_site_occupancy
  Y  Y0  1  0.25000000  0.25000000  0.58589300  1
  Y  Y1  1  0.25000000  0.75000000  0.41410700  1
  Y  Y2  1  0.75000000  0.75000000  0.58589300  1
  Y  Y3  1  0.75000000  0.25000000  0.41410700  1
  Zr  Zr4  1  0.50000000  0.00000000  0.50000000  1
  Zr  Zr5  1  0.00000000  0.00000000  0.32855700  1
  Zr  Zr6  1  0.50000000  0.00000000  0.16468600  1
  Zr  Zr7  1  0.00000000  0.00000000  0.00000000  1
  Zr  Zr8  1  0.50000000  0.00000000  0.83531400  1
  Zr  Zr9  1  0.00000000  0.00000000  0.67144300  1
  Zr  Zr10  1  0.25000000  0.25000000  0.24660100  1
  Zr  Zr11  1  0.25000000  0.75000000  0.08232700  1
  Zr  Zr12  1  0.25000000  0.25000000  0.91767300  1
  Zr  Zr13  1  0.25000000  0.75000000  0.75339900  1
  Zr  Zr14  1  0.00000000  0.50000000  0.50000000  1
  Zr  Zr15  1  0.50000000  0.50000000  0.32855700  1
  Zr  Zr16  1  0.00000000  0.50000000  0.16468600  1
  Zr  Zr17  1  0.50000000  0.50000000  0.00000000  1
  Zr  Zr18  1  0.00000000  0.50000000  0.83531400  1
  Zr  Zr19  1  0.50000000  0.50000000  0.67144300  1
  Zr  Zr20  1  0.75000000  0.75000000  0.24660100  1
  Zr  Zr21  1  0.75000000  0.25000000  0.08232700  1
  Zr  Zr22  1  0.75000000  0.75000000  0.91767300  1
  Zr  Zr23  1  0.75000000  0.25000000  0.75339900  1
  Si  Si24  1  0.00000000  0.00000000  0.50000000  1
  Si  Si25  1  0.25000000  0.75000000  0.24726200  1
  Si  Si26  1  0.50000000  0.00000000  0.32846500  1
  Si  Si27  1  0.25000000  0.25000000  0.08243900  1
  Si  Si28  1  0.00000000  0.00000000  0.16452200  1
  Si  Si29  1  0.25000000  0.75000000  0.91756100  1
  Si  Si30  1  0.50000000  0.00000000  0.00000000  1
  Si  Si31  1  0.25000000  0.25000000  0.75273800  1
  Si  Si32  1  0.00000000  0.00000000  0.83547800  1
  Si  Si33  1  0.50000000  0.00000000  0.67153500  1
  Si  Si34  1  0.50000000  0.50000000  0.50000000  1
  Si  Si35  1  0.75000000  0.25000000  0.24726200  1
  Si  Si36  1  0.00000000  0.50000000  0.32846500  1
  Si  Si37  1  0.75000000  0.75000000  0.08243900  1
  Si  Si38  1  0.50000000  0.50000000  0.16452200  1
  Si  Si39  1  0.75000000  0.25000000  0.91756100  1
  Si  Si40  1  0.00000000  0.50000000  0.00000000  1
  Si  Si41  1  0.75000000  0.75000000  0.75273800  1
  Si  Si42  1  0.50000000  0.50000000  0.83547800  1
  Si  Si43  1  0.00000000  0.50000000  0.67153500  1
  P  P44  1  0.25000000  0.75000000  0.58507200  1
  P  P45  1  0.25000000  0.25000000  0.41492800  1
  P  P46  1  0.75000000  0.25000000  0.58507200  1
  P  P47  1  0.75000000  0.75000000  0.41492800  1
  O  O48  1  0.59168300  0.33992800  0.61525800  1
  O  O49  1  0.40965100  0.83994100  0.55497100  1
  O  O50  1  0.59034900  0.16005900  0.55497100  1
  O  O51  1  0.59034900  0.83994100  0.44502900  1
  O  O52  1  0.40831700  0.66007200  0.61525800  1
  O  O53  1  0.40831700  0.33992800  0.38474200  1
  O  O54  1  0.81372100  0.08896400  0.47028500  1
  O  O55  1  0.59168300  0.66007200  0.38474200  1
  O  O56  1  0.56943550  0.34172750  0.27742100  1
  O  O57  1  0.18627900  0.08896400  0.52971500  1
  O  O58  1  0.40965100  0.16005900  0.44502900  1
  O  O59  1  0.81372100  0.91103600  0.52971500  1
  O  O60  1  0.42937700  0.84119600  0.21697600  1
  O  O61  1  0.32060900  0.09340100  0.29830700  1
  O  O62  1  0.57062300  0.15880400  0.21697600  1
  O  O63  1  0.56977700  0.84119700  0.11264700  1
  O  O64  1  0.18627900  0.91103600  0.47028500  1
  O  O65  1  0.68671450  0.08679750  0.35806100  1
  O  O66  1  0.43056450  0.65827250  0.27742100  1
  O  O67  1  0.31328550  0.91320250  0.35806100  1
  O  O68  1  0.43019400  0.34129700  0.05225000  1
  O  O69  1  0.81953800  0.09131200  0.13447900  1
  O  O70  1  0.56980600  0.65870300  0.05225000  1
  O  O71  1  0.56980600  0.34129700  0.94775000  1
  O  O72  1  0.67939100  0.90659900  0.29830700  1
  O  O73  1  0.17995850  0.09114550  0.19474700  1
  O  O74  1  0.43022300  0.15880300  0.11264700  1
  O  O75  1  0.82004150  0.90885450  0.19474700  1
  O  O76  1  0.43022300  0.84119700  0.88735300  1
  O  O77  1  0.31974950  0.09125750  0.96982000  1
  O  O78  1  0.56977700  0.15880300  0.88735300  1
  O  O79  1  0.57062300  0.84119600  0.78302400  1
  O  O80  1  0.18046200  0.90868800  0.13447900  1
  O  O81  1  0.68025050  0.09125750  0.03018000  1
  O  O82  1  0.43019400  0.65870300  0.94775000  1
  O  O83  1  0.31974950  0.90874250  0.03018000  1
  O  O84  1  0.43056450  0.34172750  0.72257900  1
  O  O85  1  0.82004150  0.09114550  0.80525300  1
  O  O86  1  0.56943550  0.65827250  0.72257900  1
  O  O87  1  0.68025050  0.90874250  0.96982000  1
  O  O88  1  0.18046200  0.09131200  0.86552100  1
  O  O89  1  0.42937700  0.15880400  0.78302400  1
  O  O90  1  0.81953800  0.90868800  0.86552100  1
  O  O91  1  0.31328550  0.08679750  0.64193900  1
  O  O92  1  0.17995850  0.90885450  0.80525300  1
  O  O93  1  0.67939100  0.09340100  0.70169300  1
  O  O94  1  0.32060900  0.90659900  0.70169300  1
  O  O95  1  0.68671450  0.91320250  0.64193900  1
  O  O96  1  0.09168300  0.83992800  0.61525800  1
  O  O97  1  0.90965100  0.33994100  0.55497100  1
  O  O98  1  0.09034900  0.66005900  0.55497100  1
  O  O99  1  0.09034900  0.33994100  0.44502900  1
  O  O100  1  0.90831700  0.16007200  0.61525800  1
  O  O101  1  0.90831700  0.83992800  0.38474200  1
  O  O102  1  0.31372100  0.58896400  0.47028500  1
  O  O103  1  0.09168300  0.16007200  0.38474200  1
  O  O104  1  0.06943550  0.84172750  0.27742100  1
  O  O105  1  0.68627900  0.58896400  0.52971500  1
  O  O106  1  0.90965100  0.66005900  0.44502900  1
  O  O107  1  0.31372100  0.41103600  0.52971500  1
  O  O108  1  0.92937700  0.34119600  0.21697600  1
  O  O109  1  0.82060900  0.59340100  0.29830700  1
  O  O110  1  0.07062300  0.65880400  0.21697600  1
  O  O111  1  0.06977700  0.34119700  0.11264700  1
  O  O112  1  0.68627900  0.41103600  0.47028500  1
  O  O113  1  0.18671450  0.58679750  0.35806100  1
  O  O114  1  0.93056450  0.15827250  0.27742100  1
  O  O115  1  0.81328550  0.41320250  0.35806100  1
  O  O116  1  0.93019400  0.84129700  0.05225000  1
  O  O117  1  0.31953800  0.59131200  0.13447900  1
  O  O118  1  0.06980600  0.15870300  0.05225000  1
  O  O119  1  0.06980600  0.84129700  0.94775000  1
  O  O120  1  0.17939100  0.40659900  0.29830700  1
  O  O121  1  0.67995850  0.59114550  0.19474700  1
  O  O122  1  0.93022300  0.65880300  0.11264700  1
  O  O123  1  0.32004150  0.40885450  0.19474700  1
  O  O124  1  0.93022300  0.34119700  0.88735300  1
  O  O125  1  0.81974950  0.59125750  0.96982000  1
  O  O126  1  0.06977700  0.65880300  0.88735300  1
  O  O127  1  0.07062300  0.34119600  0.78302400  1
  O  O128  1  0.68046200  0.40868800  0.13447900  1
  O  O129  1  0.18025050  0.59125750  0.03018000  1
  O  O130  1  0.93019400  0.15870300  0.94775000  1
  O  O131  1  0.81974950  0.40874250  0.03018000  1
  O  O132  1  0.93056450  0.84172750  0.72257900  1
  O  O133  1  0.32004150  0.59114550  0.80525300  1
  O  O134  1  0.06943550  0.15827250  0.72257900  1
  O  O135  1  0.18025050  0.40874250  0.96982000  1
  O  O136  1  0.68046200  0.59131200  0.86552100  1
  O  O137  1  0.92937700  0.65880400  0.78302400  1
  O  O138  1  0.31953800  0.40868800  0.86552100  1
  O  O139  1  0.81328550  0.58679750  0.64193900  1
  O  O140  1  0.67995850  0.40885450  0.80525300  1
  O  O141  1  0.17939100  0.59340100  0.70169300  1
  O  O142  1  0.82060900  0.40659900  0.70169300  1
  O  O143  1  0.18671450  0.41320250  0.64193900  1
