# generated using pymatgen
data_KBiF4
_symmetry_space_group_name_H-M   'P 1'
_cell_length_a   11.84509200
_cell_length_b   11.84509200
_cell_length_c   11.84509200
_cell_angle_alpha   90.00000000
_cell_angle_beta   90.00000000
_cell_angle_gamma   90.00000000
_symmetry_Int_Tables_number   1
_chemical_formula_structural   KBiF4
_chemical_formula_sum   'K16 Bi16 F64'
_cell_volume   1661.93990034
_cell_formula_units_Z   16
loop_
 _symmetry_equiv_pos_site_id
 _symmetry_equiv_pos_as_xyz
  1  'x, y, z'
loop_
 _atom_site_type_symbol
 _atom_site_label
 _atom_site_symmetry_multiplicity
 _atom_site_fract_x
 _atom_site_fract_y
 _atom_site_fract_z
 _atom_site_occupancy
  K  K0  1  0.12500000  0.12500000  0.12500000  1
  K  K1  1  0.37500000  0.12500000  0.37500000  1
  K  K2  1  0.62500000  0.87500000  0.37500000  1
  K  K3  1  0.87500000  0.87500000  0.12500000  1
  K  K4  1  0.12500000  0.62500000  0.62500000  1
  K  K5  1  0.37500000  0.62500000  0.87500000  1
  K  K6  1  0.62500000  0.37500000  0.87500000  1
  K  K7  1  0.87500000  0.37500000  0.62500000  1
  K  K8  1  0.62500000  0.12500000  0.62500000  1
  K  K9  1  0.87500000  0.12500000  0.87500000  1
  K  K10  1  0.12500000  0.87500000  0.87500000  1
  K  K11  1  0.37500000  0.87500000  0.62500000  1
  K  K12  1  0.62500000  0.62500000  0.12500000  1
  K  K13  1  0.87500000  0.62500000  0.37500000  1
  K  K14  1  0.12500000  0.37500000  0.37500000  1
  K  K15  1  0.37500000  0.37500000  0.12500000  1
  Bi  Bi16  1  0.12500000  0.62500000  0.12500000  1
  Bi  Bi17  1  0.12500000  0.87500000  0.37500000  1
  Bi  Bi18  1  0.37500000  0.62500000  0.37500000  1
  Bi  Bi19  1  0.37500000  0.87500000  0.12500000  1
  Bi  Bi20  1  0.12500000  0.12500000  0.62500000  1
  Bi  Bi21  1  0.12500000  0.37500000  0.87500000  1
  Bi  Bi22  1  0.37500000  0.12500000  0.87500000  1
  Bi  Bi23  1  0.37500000  0.37500000  0.62500000  1
  Bi  Bi24  1  0.62500000  0.62500000  0.62500000  1
  Bi  Bi25  1  0.62500000  0.87500000  0.87500000  1
  Bi  Bi26  1  0.87500000  0.62500000  0.87500000  1
  Bi  Bi27  1  0.87500000  0.87500000  0.62500000  1
  Bi  Bi28  1  0.62500000  0.12500000  0.12500000  1
  Bi  Bi29  1  0.62500000  0.37500000  0.37500000  1
  Bi  Bi30  1  0.87500000  0.12500000  0.37500000  1
  Bi  Bi31  1  0.87500000  0.37500000  0.12500000  1
  F  F32  1  0.50000000  0.00000000  0.50000000  1
  F  F33  1  0.21820300  0.00000000  0.50000000  1
  F  F34  1  0.25000000  0.96820300  0.25000000  1
  F  F35  1  0.03179700  0.75000000  0.25000000  1
  F  F36  1  0.25000000  0.75000000  0.46820300  1
  F  F37  1  0.25000000  0.75000000  0.25000000  1
  F  F38  1  0.50000000  0.28179700  0.50000000  1
  F  F39  1  0.25000000  0.25000000  0.25000000  1
  F  F40  1  0.50000000  0.00000000  0.21820300  1
  F  F41  1  0.46820300  0.75000000  0.25000000  1
  F  F42  1  0.50000000  0.71820300  0.50000000  1
  F  F43  1  0.00000000  0.00000000  0.28179700  1
  F  F44  1  0.25000000  0.53179700  0.25000000  1
  F  F45  1  0.00000000  0.00000000  0.50000000  1
  F  F46  1  0.78179700  0.00000000  0.50000000  1
  F  F47  1  0.25000000  0.75000000  0.03179700  1
  F  F48  1  0.50000000  0.50000000  0.00000000  1
  F  F49  1  0.21820300  0.50000000  0.00000000  1
  F  F50  1  0.25000000  0.46820300  0.75000000  1
  F  F51  1  0.03179700  0.25000000  0.75000000  1
  F  F52  1  0.25000000  0.25000000  0.96820300  1
  F  F53  1  0.25000000  0.25000000  0.75000000  1
  F  F54  1  0.50000000  0.78179700  0.00000000  1
  F  F55  1  0.25000000  0.75000000  0.75000000  1
  F  F56  1  0.50000000  0.50000000  0.71820300  1
  F  F57  1  0.46820300  0.25000000  0.75000000  1
  F  F58  1  0.50000000  0.21820300  0.00000000  1
  F  F59  1  0.00000000  0.50000000  0.78179700  1
  F  F60  1  0.25000000  0.03179700  0.75000000  1
  F  F61  1  0.00000000  0.50000000  0.00000000  1
  F  F62  1  0.78179700  0.50000000  0.00000000  1
  F  F63  1  0.25000000  0.25000000  0.53179700  1
  F  F64  1  0.00000000  0.00000000  0.00000000  1
  F  F65  1  0.71820300  0.00000000  0.00000000  1
  F  F66  1  0.75000000  0.96820300  0.75000000  1
  F  F67  1  0.53179700  0.75000000  0.75000000  1
  F  F68  1  0.75000000  0.75000000  0.96820300  1
  F  F69  1  0.75000000  0.75000000  0.75000000  1
  F  F70  1  0.00000000  0.28179700  0.00000000  1
  F  F71  1  0.75000000  0.25000000  0.75000000  1
  F  F72  1  0.00000000  0.00000000  0.71820300  1
  F  F73  1  0.96820300  0.75000000  0.75000000  1
  F  F74  1  0.00000000  0.71820300  0.00000000  1
  F  F75  1  0.50000000  0.00000000  0.78179700  1
  F  F76  1  0.75000000  0.53179700  0.75000000  1
  F  F77  1  0.50000000  0.00000000  0.00000000  1
  F  F78  1  0.28179700  0.00000000  0.00000000  1
  F  F79  1  0.75000000  0.75000000  0.53179700  1
  F  F80  1  0.00000000  0.50000000  0.50000000  1
  F  F81  1  0.71820300  0.50000000  0.50000000  1
  F  F82  1  0.75000000  0.46820300  0.25000000  1
  F  F83  1  0.53179700  0.25000000  0.25000000  1
  F  F84  1  0.75000000  0.25000000  0.46820300  1
  F  F85  1  0.75000000  0.25000000  0.25000000  1
  F  F86  1  0.00000000  0.78179700  0.50000000  1
  F  F87  1  0.75000000  0.75000000  0.25000000  1
  F  F88  1  0.00000000  0.50000000  0.21820300  1
  F  F89  1  0.96820300  0.25000000  0.25000000  1
  F  F90  1  0.00000000  0.21820300  0.50000000  1
  F  F91  1  0.50000000  0.50000000  0.28179700  1
  F  F92  1  0.75000000  0.03179700  0.25000000  1
  F  F93  1  0.50000000  0.50000000  0.50000000  1
  F  F94  1  0.28179700  0.50000000  0.50000000  1
  F  F95  1  0.75000000  0.25000000  0.03179700  1
