# generated using pymatgen
data_Eu3(BO3)2
_symmetry_space_group_name_H-M   'P 1'
_cell_length_a   9.05759880
_cell_length_b   9.05759880
_cell_length_c   12.75849786
_cell_angle_alpha   90.00000000
_cell_angle_beta   90.00000000
_cell_angle_gamma   120.00000000
_symmetry_Int_Tables_number   1
_chemical_formula_structural   Eu3(BO3)2
_chemical_formula_sum   'Eu18 B12 O36'
_cell_volume   906.47605661
_cell_formula_units_Z   6
loop_
 _symmetry_equiv_pos_site_id
 _symmetry_equiv_pos_as_xyz
  1  'x, y, z'
loop_
 _atom_site_type_symbol
 _atom_site_label
 _atom_site_symmetry_multiplicity
 _atom_site_fract_x
 _atom_site_fract_y
 _atom_site_fract_z
 _atom_site_occupancy
  Eu  Eu0  1  0.01586267  0.68252933  0.08333333  1
  Eu  Eu1  1  0.66666667  0.98413733  0.08333333  1
  Eu  Eu2  1  0.31747067  0.33333333  0.08333333  1
  Eu  Eu3  1  0.65080400  0.65080400  0.25000000  1
  Eu  Eu4  1  0.00000000  0.34919600  0.25000000  1
  Eu  Eu5  1  0.34919600  0.00000000  0.25000000  1
  Eu  Eu6  1  0.68252933  0.01586267  0.41666667  1
  Eu  Eu7  1  0.33333333  0.31747067  0.41666667  1
  Eu  Eu8  1  0.98413733  0.66666667  0.41666667  1
  Eu  Eu9  1  0.31747067  0.98413733  0.58333333  1
  Eu  Eu10  1  0.66666667  0.68252933  0.58333333  1
  Eu  Eu11  1  0.01586267  0.33333333  0.58333333  1
  Eu  Eu12  1  0.34919600  0.34919600  0.75000000  1
  Eu  Eu13  1  0.00000000  0.65080400  0.75000000  1
  Eu  Eu14  1  0.65080400  0.00000000  0.75000000  1
  Eu  Eu15  1  0.98413733  0.31747067  0.91666667  1
  Eu  Eu16  1  0.33333333  0.01586267  0.91666667  1
  Eu  Eu17  1  0.68252933  0.66666667  0.91666667  1
  B  B18  1  0.33333333  0.66666667  0.55083067  1
  B  B19  1  0.33333333  0.66666667  0.28250267  1
  B  B20  1  0.33333333  0.66666667  0.78250267  1
  B  B21  1  0.33333333  0.66666667  0.05083067  1
  B  B22  1  0.00000000  0.00000000  0.88416400  1
  B  B23  1  1.00000000  0.00000000  0.61583600  1
  B  B24  1  0.00000000  0.00000000  0.11583600  1
  B  B25  1  0.00000000  0.00000000  0.38416400  1
  B  B26  1  0.66666667  0.33333333  0.21749733  1
  B  B27  1  0.66666667  0.33333333  0.94916933  1
  B  B28  1  0.66666667  0.33333333  0.44916933  1
  B  B29  1  0.66666667  0.33333333  0.71749733  1
  O  O30  1  0.81758133  0.49051467  0.21909667  1
  O  O31  1  0.67293333  0.18241867  0.21909667  1
  O  O32  1  0.50948533  0.32706667  0.21909667  1
  O  O33  1  0.49051467  0.81758133  0.28090333  1
  O  O34  1  0.32706667  0.50948533  0.28090333  1
  O  O35  1  0.18241867  0.67293333  0.28090333  1
  O  O36  1  0.84908533  0.84281867  0.11423667  1
  O  O37  1  0.99373333  0.15091467  0.11423667  1
  O  O38  1  0.15718133  0.00626667  0.11423667  1
  O  O39  1  0.17615200  0.51575200  0.05243000  1
  O  O40  1  0.33960000  0.82384800  0.05243000  1
  O  O41  1  0.48424800  0.66040000  0.05243000  1
  O  O42  1  0.48424800  0.82384800  0.55243000  1
  O  O43  1  0.33960000  0.51575200  0.55243000  1
  O  O44  1  0.17615200  0.66040000  0.55243000  1
  O  O45  1  0.15718133  0.15091467  0.61423667  1
  O  O46  1  0.99373333  0.84281867  0.61423667  1
  O  O47  1  0.84908533  0.00626667  0.61423667  1
  O  O48  1  0.51575200  0.17615200  0.44757000  1
  O  O49  1  0.66040000  0.48424800  0.44757000  1
  O  O50  1  0.82384800  0.33960000  0.44757000  1
  O  O51  1  0.84281867  0.84908533  0.38576333  1
  O  O52  1  0.00626667  0.15718133  0.38576333  1
  O  O53  1  0.15091467  0.99373333  0.38576333  1
  O  O54  1  0.15091467  0.15718133  0.88576333  1
  O  O55  1  0.00626667  0.84908533  0.88576333  1
  O  O56  1  0.84281867  0.99373333  0.88576333  1
  O  O57  1  0.82384800  0.48424800  0.94757000  1
  O  O58  1  0.66040000  0.17615200  0.94757000  1
  O  O59  1  0.51575200  0.33960000  0.94757000  1
  O  O60  1  0.18241867  0.50948533  0.78090333  1
  O  O61  1  0.32706667  0.81758133  0.78090333  1
  O  O62  1  0.49051467  0.67293333  0.78090333  1
  O  O63  1  0.50948533  0.18241867  0.71909667  1
  O  O64  1  0.67293333  0.49051467  0.71909667  1
  O  O65  1  0.81758133  0.32706667  0.71909667  1
