# generated using pymatgen
data_Cd3Se3O10
_symmetry_space_group_name_H-M   'P 1'
_cell_length_a   8.57696800
_cell_length_b   5.45225900
_cell_length_c   10.98533562
_cell_angle_alpha   90.00000000
_cell_angle_beta   108.41863688
_cell_angle_gamma   90.00000000
_symmetry_Int_Tables_number   1
_chemical_formula_structural   Cd3Se3O10
_chemical_formula_sum   'Cd6 Se6 O20'
_cell_volume   487.40058578
_cell_formula_units_Z   2
loop_
 _symmetry_equiv_pos_site_id
 _symmetry_equiv_pos_as_xyz
  1  'x, y, z'
loop_
 _atom_site_type_symbol
 _atom_site_label
 _atom_site_symmetry_multiplicity
 _atom_site_fract_x
 _atom_site_fract_y
 _atom_site_fract_z
 _atom_site_occupancy
  Cd  Cd0  1  0.00891500  0.25085100  0.87493900  1
  Cd  Cd1  1  0.99108500  0.75085100  0.12506100  1
  Cd  Cd2  1  0.02449000  0.26073000  0.38382600  1
  Cd  Cd3  1  0.97551000  0.76073000  0.61617400  1
  Cd  Cd4  1  0.63298200  0.73544200  0.79614300  1
  Cd  Cd5  1  0.36701800  0.23544200  0.20385700  1
  Se  Se6  1  0.74835900  0.22431000  0.04455500  1
  Se  Se7  1  0.25164100  0.72431000  0.95544500  1
  Se  Se8  1  0.73543600  0.28581000  0.57460300  1
  Se  Se9  1  0.26456400  0.78581000  0.42539700  1
  Se  Se10  1  0.34960900  0.24691100  0.71653900  1
  Se  Se11  1  0.65039100  0.74691100  0.28346100  1
  O  O12  1  0.90605600  0.12873500  0.17816500  1
  O  O13  1  0.09394400  0.62873500  0.82183500  1
  O  O14  1  0.88599800  0.39486000  0.51299900  1
  O  O15  1  0.11400200  0.89486000  0.48700100  1
  O  O16  1  0.84788700  0.07342000  0.68930300  1
  O  O17  1  0.15211300  0.57342000  0.31069700  1
  O  O18  1  0.84525500  0.45378100  0.98118700  1
  O  O19  1  0.15474500  0.95378100  0.01881300  1
  O  O20  1  0.77758500  0.98458600  0.94916200  1
  O  O21  1  0.22241500  0.48458600  0.05083800  1
  O  O22  1  0.75025600  0.53806200  0.67319100  1
  O  O23  1  0.24974400  0.03806200  0.32680900  1
  O  O24  1  0.47387600  0.04325100  0.67663900  1
  O  O25  1  0.52612400  0.54325100  0.32336100  1
  O  O26  1  0.46616000  0.43914800  0.83162900  1
  O  O27  1  0.53384000  0.93914800  0.16837100  1
  O  O28  1  0.25064700  0.41124000  0.58766300  1
  O  O29  1  0.74935300  0.91124000  0.41233700  1
  O  O30  1  0.22277500  0.09696400  0.77921100  1
  O  O31  1  0.77722500  0.59696400  0.22078900  1
