# generated using pymatgen
data_Pr3Si2S8Br
_symmetry_space_group_name_H-M   'P 1'
_cell_length_a   15.88821200
_cell_length_b   7.80797600
_cell_length_c   11.00527378
_cell_angle_alpha   90.00000000
_cell_angle_beta   97.59788969
_cell_angle_gamma   90.00000000
_symmetry_Int_Tables_number   1
_chemical_formula_structural   Pr3Si2S8Br
_chemical_formula_sum   'Pr12 Si8 S32 Br4'
_cell_volume   1353.27040191
_cell_formula_units_Z   4
loop_
 _symmetry_equiv_pos_site_id
 _symmetry_equiv_pos_as_xyz
  1  'x, y, z'
loop_
 _atom_site_type_symbol
 _atom_site_label
 _atom_site_symmetry_multiplicity
 _atom_site_fract_x
 _atom_site_fract_y
 _atom_site_fract_z
 _atom_site_occupancy
  Pr  Pr0  1  0.69617900  0.37806000  0.68392100  1
  Pr  Pr1  1  0.80382100  0.87806000  0.81607900  1
  Pr  Pr2  1  0.00000000  0.38977400  0.75000000  1
  Pr  Pr3  1  0.69617900  0.62194000  0.18392100  1
  Pr  Pr4  1  0.80382100  0.12194000  0.31607900  1
  Pr  Pr5  1  0.00000000  0.61022600  0.25000000  1
  Pr  Pr6  1  0.19617900  0.87806000  0.68392100  1
  Pr  Pr7  1  0.30382100  0.37806000  0.81607900  1
  Pr  Pr8  1  0.50000000  0.88977400  0.75000000  1
  Pr  Pr9  1  0.19617900  0.12194000  0.18392100  1
  Pr  Pr10  1  0.30382100  0.62194000  0.31607900  1
  Pr  Pr11  1  0.50000000  0.11022600  0.25000000  1
  Si  Si12  1  0.84018000  0.53430600  0.47030200  1
  Si  Si13  1  0.65982000  0.96569400  0.52969800  1
  Si  Si14  1  0.84018000  0.46569400  0.97030200  1
  Si  Si15  1  0.65982000  0.03430600  0.02969800  1
  Si  Si16  1  0.34018000  0.03430600  0.47030200  1
  Si  Si17  1  0.15982000  0.46569400  0.52969800  1
  Si  Si18  1  0.34018000  0.96569400  0.97030200  1
  Si  Si19  1  0.15982000  0.53430600  0.02969800  1
  S  S20  1  0.56667400  0.84438600  0.04729900  1
  S  S21  1  0.78303000  0.07144800  0.58529300  1
  S  S22  1  0.85434150  0.74765350  0.35519200  1
  S  S23  1  0.64842800  0.09397300  0.83968600  1
  S  S24  1  0.64565850  0.75234650  0.64480800  1
  S  S25  1  0.93332600  0.34438600  0.45270100  1
  S  S26  1  0.85157200  0.40602700  0.16031400  1
  S  S27  1  0.56667400  0.15561400  0.54729900  1
  S  S28  1  0.64565850  0.24765350  0.14480800  1
  S  S29  1  0.93332600  0.65561400  0.95270100  1
  S  S30  1  0.85157200  0.59397300  0.66031400  1
  S  S31  1  0.71697000  0.57144800  0.91470700  1
  S  S32  1  0.85434150  0.25234650  0.85519200  1
  S  S33  1  0.64842800  0.90602700  0.33968600  1
  S  S34  1  0.71697000  0.42855200  0.41470700  1
  S  S35  1  0.78303000  0.92855200  0.08529300  1
  S  S36  1  0.06667400  0.34438600  0.04729900  1
  S  S37  1  0.28303000  0.57144800  0.58529300  1
  S  S38  1  0.35434150  0.24765350  0.35519200  1
  S  S39  1  0.14842800  0.59397300  0.83968600  1
  S  S40  1  0.14565850  0.25234650  0.64480800  1
  S  S41  1  0.43332600  0.84438600  0.45270100  1
  S  S42  1  0.35157200  0.90602700  0.16031400  1
  S  S43  1  0.06667400  0.65561400  0.54729900  1
  S  S44  1  0.14565850  0.74765350  0.14480800  1
  S  S45  1  0.43332600  0.15561400  0.95270100  1
  S  S46  1  0.35157200  0.09397300  0.66031400  1
  S  S47  1  0.21697000  0.07144800  0.91470700  1
  S  S48  1  0.35434150  0.75234650  0.85519200  1
  S  S49  1  0.14842800  0.40602700  0.33968600  1
  S  S50  1  0.21697000  0.92855200  0.41470700  1
  S  S51  1  0.28303000  0.42855200  0.08529300  1
  Br  Br52  1  0.00000000  0.99542300  0.75000000  1
  Br  Br53  1  0.00000000  0.00457700  0.25000000  1
  Br  Br54  1  0.50000000  0.49542300  0.75000000  1
  Br  Br55  1  0.50000000  0.50457700  0.25000000  1
