# generated using pymatgen
data_RbAu(SeO4)2
_symmetry_space_group_name_H-M   'P 1'
_cell_length_a   11.31845600
_cell_length_b   5.36893200
_cell_length_c   7.74295498
_cell_angle_alpha   90.00000000
_cell_angle_beta   118.03745008
_cell_angle_gamma   90.00000000
_symmetry_Int_Tables_number   1
_chemical_formula_structural   RbAu(SeO4)2
_chemical_formula_sum   'Rb2 Au2 Se4 O16'
_cell_volume   415.30360177
_cell_formula_units_Z   2
loop_
 _symmetry_equiv_pos_site_id
 _symmetry_equiv_pos_as_xyz
  1  'x, y, z'
loop_
 _atom_site_type_symbol
 _atom_site_label
 _atom_site_symmetry_multiplicity
 _atom_site_fract_x
 _atom_site_fract_y
 _atom_site_fract_z
 _atom_site_occupancy
  Rb  Rb0  1  0.00000000  0.50000000  0.50000000  1
  Rb  Rb1  1  0.50000000  0.00000000  0.50000000  1
  Au  Au2  1  0.00000000  0.00000000  0.00000000  1
  Au  Au3  1  0.50000000  0.50000000  0.00000000  1
  Se  Se4  1  0.69647200  0.00000000  0.15424900  1
  Se  Se5  1  0.30352800  0.00000000  0.84575100  1
  Se  Se6  1  0.19647200  0.50000000  0.15424900  1
  Se  Se7  1  0.80352800  0.50000000  0.84575100  1
  O  O8  1  0.14968700  0.00000000  0.66717200  1
  O  O9  1  0.82894200  0.50000000  0.07186500  1
  O  O10  1  0.85031300  0.00000000  0.33282800  1
  O  O11  1  0.17105800  0.50000000  0.92813500  1
  O  O12  1  0.61797150  0.75031750  0.20536300  1
  O  O13  1  0.38202850  0.24968250  0.79463700  1
  O  O14  1  0.61797150  0.24968250  0.20536300  1
  O  O15  1  0.38202850  0.75031750  0.79463700  1
  O  O16  1  0.64968700  0.50000000  0.66717200  1
  O  O17  1  0.32894200  0.00000000  0.07186500  1
  O  O18  1  0.35031300  0.50000000  0.33282800  1
  O  O19  1  0.67105800  0.00000000  0.92813500  1
  O  O20  1  0.11797150  0.25031750  0.20536300  1
  O  O21  1  0.88202850  0.74968250  0.79463700  1
  O  O22  1  0.11797150  0.74968250  0.20536300  1
  O  O23  1  0.88202850  0.25031750  0.79463700  1
