# generated using pymatgen
data_Tb2H16S3O20
_symmetry_space_group_name_H-M   'P 1'
_cell_length_a   13.52333800
_cell_length_b   6.76570200
_cell_length_c   18.39173739
_cell_angle_alpha   90.00000000
_cell_angle_beta   102.52415480
_cell_angle_gamma   90.00000000
_symmetry_Int_Tables_number   1
_chemical_formula_structural   Tb2H16S3O20
_chemical_formula_sum   'Tb8 H64 S12 O80'
_cell_volume   1642.70813440
_cell_formula_units_Z   4
loop_
 _symmetry_equiv_pos_site_id
 _symmetry_equiv_pos_as_xyz
  1  'x, y, z'
loop_
 _atom_site_type_symbol
 _atom_site_label
 _atom_site_symmetry_multiplicity
 _atom_site_fract_x
 _atom_site_fract_y
 _atom_site_fract_z
 _atom_site_occupancy
  Tb  Tb0  1  0.83250350  0.02098350  0.60746400  1
  Tb  Tb1  1  0.66749650  0.52098350  0.89253600  1
  Tb  Tb2  1  0.66749650  0.47901650  0.39253600  1
  Tb  Tb3  1  0.83250350  0.97901650  0.10746400  1
  Tb  Tb4  1  0.33250350  0.52098350  0.60746400  1
  Tb  Tb5  1  0.16749650  0.02098350  0.89253600  1
  Tb  Tb6  1  0.16749650  0.97901650  0.39253600  1
  Tb  Tb7  1  0.33250350  0.47901650  0.10746400  1
  H  H8  1  0.99387800  0.70463400  0.66091500  1
  H  H9  1  0.50612200  0.20463400  0.83908500  1
  H  H10  1  0.50612200  0.79536600  0.33908500  1
  H  H11  1  0.99387800  0.29536600  0.16091500  1
  H  H12  1  0.55412850  0.40290050  0.64973400  1
  H  H13  1  0.94587150  0.90290050  0.85026600  1
  H  H14  1  0.94587150  0.09709950  0.35026600  1
  H  H15  1  0.55412850  0.59709950  0.14973400  1
  H  H16  1  0.67151350  0.95350550  0.69746000  1
  H  H17  1  0.82848650  0.45350550  0.80254000  1
  H  H18  1  0.82848650  0.54649450  0.30254000  1
  H  H19  1  0.67151350  0.04649450  0.19746000  1
  H  H20  1  0.77392700  0.01291800  0.75515600  1
  H  H21  1  0.72607300  0.51291800  0.74484400  1
  H  H22  1  0.72607300  0.48708200  0.24484400  1
  H  H23  1  0.77392700  0.98708200  0.25515600  1
  H  H24  1  0.62302800  0.08628300  0.50845000  1
  H  H25  1  0.87697200  0.58628300  0.99155000  1
  H  H26  1  0.87697200  0.41371700  0.49155000  1
  H  H27  1  0.62302800  0.91371700  0.00845000  1
  H  H28  1  0.64341200  0.85521100  0.51722900  1
  H  H29  1  0.85658800  0.35521100  0.98277100  1
  H  H30  1  0.85658800  0.64478900  0.48277100  1
  H  H31  1  0.64341200  0.14478900  0.01722900  1
  H  H32  1  0.99200850  0.32616050  0.60638300  1
  H  H33  1  0.50799150  0.82616050  0.89361700  1
  H  H34  1  0.50799150  0.17383950  0.39361700  1
  H  H35  1  0.99200850  0.67383950  0.10638300  1
  H  H36  1  0.51279350  0.67562550  0.54563500  1
  H  H37  1  0.98720650  0.17562550  0.95436500  1
  H  H38  1  0.98720650  0.82437450  0.45436500  1
  H  H39  1  0.51279350  0.32437450  0.04563500  1
  H  H40  1  0.49387800  0.20463400  0.66091500  1
  H  H41  1  0.00612200  0.70463400  0.83908500  1
  H  H42  1  0.00612200  0.29536600  0.33908500  1
  H  H43  1  0.49387800  0.79536600  0.16091500  1
  H  H44  1  0.05412850  0.90290050  0.64973400  1
  H  H45  1  0.44587150  0.40290050  0.85026600  1
  H  H46  1  0.44587150  0.59709950  0.35026600  1
  H  H47  1  0.05412850  0.09709950  0.14973400  1
  H  H48  1  0.17151350  0.45350550  0.69746000  1
  H  H49  1  0.32848650  0.95350550  0.80254000  1
  H  H50  1  0.32848650  0.04649450  0.30254000  1
  H  H51  1  0.17151350  0.54649450  0.19746000  1
  H  H52  1  0.27392700  0.51291800  0.75515600  1
  H  H53  1  0.22607300  0.01291800  0.74484400  1
  H  H54  1  0.22607300  0.98708200  0.24484400  1
  H  H55  1  0.27392700  0.48708200  0.25515600  1
  H  H56  1  0.12302800  0.58628300  0.50845000  1
  H  H57  1  0.37697200  0.08628300  0.99155000  1
  H  H58  1  0.37697200  0.91371700  0.49155000  1
  H  H59  1  0.12302800  0.41371700  0.00845000  1
  H  H60  1  0.14341200  0.35521100  0.51722900  1
  H  H61  1  0.35658800  0.85521100  0.98277100  1
  H  H62  1  0.35658800  0.14478900  0.48277100  1
  H  H63  1  0.14341200  0.64478900  0.01722900  1
  H  H64  1  0.49200850  0.82616050  0.60638300  1
  H  H65  1  0.00799150  0.32616050  0.89361700  1
  H  H66  1  0.00799150  0.67383950  0.39361700  1
  H  H67  1  0.49200850  0.17383950  0.10638300  1
  H  H68  1  0.01279350  0.17562550  0.54563500  1
  H  H69  1  0.48720650  0.67562550  0.95436500  1
  H  H70  1  0.48720650  0.32437450  0.45436500  1
  H  H71  1  0.01279350  0.82437450  0.04563500  1
  S  S72  1  0.00000000  0.32569500  0.75000000  1
  S  S73  1  0.00000000  0.67430500  0.25000000  1
  S  S74  1  0.78240350  0.97172350  0.40972200  1
  S  S75  1  0.71759650  0.47172350  0.09027800  1
  S  S76  1  0.71759650  0.52827650  0.59027800  1
  S  S77  1  0.78240350  0.02827650  0.90972200  1
  S  S78  1  0.50000000  0.82569500  0.75000000  1
  S  S79  1  0.50000000  0.17430500  0.25000000  1
  S  S80  1  0.28240350  0.47172350  0.40972200  1
  S  S81  1  0.21759650  0.97172350  0.09027800  1
  S  S82  1  0.21759650  0.02827650  0.59027800  1
  S  S83  1  0.28240350  0.52827650  0.90972200  1
  O  O84  1  0.98564400  0.84207600  0.64249400  1
  O  O85  1  0.51435600  0.34207600  0.85750600  1
  O  O86  1  0.51435600  0.65792400  0.35750600  1
  O  O87  1  0.98564400  0.15792400  0.14249400  1
  O  O88  1  0.74381300  0.98531600  0.70200700  1
  O  O89  1  0.75618700  0.48531600  0.79799300  1
  O  O90  1  0.75618700  0.51468400  0.29799300  1
  O  O91  1  0.74381300  0.01468400  0.20200700  1
  O  O92  1  0.65774350  0.98342250  0.54281000  1
  O  O93  1  0.84225650  0.48342250  0.95719000  1
  O  O94  1  0.84225650  0.51657750  0.45719000  1
  O  O95  1  0.65774350  0.01657750  0.04281000  1
  O  O96  1  0.95792250  0.24068950  0.56406500  1
  O  O97  1  0.54207750  0.74068950  0.93593500  1
  O  O98  1  0.54207750  0.25931050  0.43593500  1
  O  O99  1  0.95792250  0.75931050  0.06406500  1
  O  O100  1  0.91455400  0.19877400  0.71263000  1
  O  O101  1  0.58544600  0.69877400  0.78737000  1
  O  O102  1  0.58544600  0.30122600  0.28737000  1
  O  O103  1  0.91455400  0.80122600  0.21263000  1
  O  O104  1  0.53383350  0.95136350  0.69294700  1
  O  O105  1  0.96616650  0.45136350  0.80705300  1
  O  O106  1  0.96616650  0.54863650  0.30705300  1
  O  O107  1  0.53383350  0.04863650  0.19294700  1
  O  O108  1  0.85624950  0.92194650  0.48225500  1
  O  O109  1  0.64375050  0.42194650  0.01774500  1
  O  O110  1  0.64375050  0.57805350  0.51774500  1
  O  O111  1  0.85624950  0.07805350  0.98225500  1
  O  O112  1  0.74048100  0.16993400  0.41828700  1
  O  O113  1  0.75951900  0.66993400  0.08171300  1
  O  O114  1  0.75951900  0.33006600  0.58171300  1
  O  O115  1  0.74048100  0.83006600  0.91828700  1
  O  O116  1  0.69963650  0.82348450  0.39684300  1
  O  O117  1  0.80036350  0.32348450  0.10315700  1
  O  O118  1  0.80036350  0.67651550  0.60315700  1
  O  O119  1  0.69963650  0.17651550  0.89684300  1
  O  O120  1  0.83752250  0.96747350  0.34858500  1
  O  O121  1  0.66247750  0.46747350  0.15141500  1
  O  O122  1  0.66247750  0.53252650  0.65141500  1
  O  O123  1  0.83752250  0.03252650  0.84858500  1
  O  O124  1  0.48564400  0.34207600  0.64249400  1
  O  O125  1  0.01435600  0.84207600  0.85750600  1
  O  O126  1  0.01435600  0.15792400  0.35750600  1
  O  O127  1  0.48564400  0.65792400  0.14249400  1
  O  O128  1  0.24381300  0.48531600  0.70200700  1
  O  O129  1  0.25618700  0.98531600  0.79799300  1
  O  O130  1  0.25618700  0.01468400  0.29799300  1
  O  O131  1  0.24381300  0.51468400  0.20200700  1
  O  O132  1  0.15774350  0.48342250  0.54281000  1
  O  O133  1  0.34225650  0.98342250  0.95719000  1
  O  O134  1  0.34225650  0.01657750  0.45719000  1
  O  O135  1  0.15774350  0.51657750  0.04281000  1
  O  O136  1  0.45792250  0.74068950  0.56406500  1
  O  O137  1  0.04207750  0.24068950  0.93593500  1
  O  O138  1  0.04207750  0.75931050  0.43593500  1
  O  O139  1  0.45792250  0.25931050  0.06406500  1
  O  O140  1  0.41455400  0.69877400  0.71263000  1
  O  O141  1  0.08544600  0.19877400  0.78737000  1
  O  O142  1  0.08544600  0.80122600  0.28737000  1
  O  O143  1  0.41455400  0.30122600  0.21263000  1
  O  O144  1  0.03383350  0.45136350  0.69294700  1
  O  O145  1  0.46616650  0.95136350  0.80705300  1
  O  O146  1  0.46616650  0.04863650  0.30705300  1
  O  O147  1  0.03383350  0.54863650  0.19294700  1
  O  O148  1  0.35624950  0.42194650  0.48225500  1
  O  O149  1  0.14375050  0.92194650  0.01774500  1
  O  O150  1  0.14375050  0.07805350  0.51774500  1
  O  O151  1  0.35624950  0.57805350  0.98225500  1
  O  O152  1  0.24048100  0.66993400  0.41828700  1
  O  O153  1  0.25951900  0.16993400  0.08171300  1
  O  O154  1  0.25951900  0.83006600  0.58171300  1
  O  O155  1  0.24048100  0.33006600  0.91828700  1
  O  O156  1  0.19963650  0.32348450  0.39684300  1
  O  O157  1  0.30036350  0.82348450  0.10315700  1
  O  O158  1  0.30036350  0.17651550  0.60315700  1
  O  O159  1  0.19963650  0.67651550  0.89684300  1
  O  O160  1  0.33752250  0.46747350  0.34858500  1
  O  O161  1  0.16247750  0.96747350  0.15141500  1
  O  O162  1  0.16247750  0.03252650  0.65141500  1
  O  O163  1  0.33752250  0.53252650  0.84858500  1
