# generated using pymatgen
data_BaY6Si3B6(O12F)2
_symmetry_space_group_name_H-M   'P 1'
_cell_length_a   10.73728785
_cell_length_b   10.73728785
_cell_length_c   4.74986800
_cell_angle_alpha   90.00000000
_cell_angle_beta   90.00000000
_cell_angle_gamma   120.00000000
_symmetry_Int_Tables_number   1
_chemical_formula_structural   BaY6Si3B6(O12F)2
_chemical_formula_sum   'Ba1 Y6 Si3 B6 O24 F2'
_cell_volume   474.24347496
_cell_formula_units_Z   1
loop_
 _symmetry_equiv_pos_site_id
 _symmetry_equiv_pos_as_xyz
  1  'x, y, z'
loop_
 _atom_site_type_symbol
 _atom_site_label
 _atom_site_symmetry_multiplicity
 _atom_site_fract_x
 _atom_site_fract_y
 _atom_site_fract_z
 _atom_site_occupancy
  Ba  Ba0  1  0.00000000  0.00000000  0.00480500  1
  Y  Y1  1  0.56997700  0.78498850  0.95508800  1
  Y  Y2  1  0.21501150  0.78498850  0.95508800  1
  Y  Y3  1  0.21501150  0.43002300  0.95508800  1
  Y  Y4  1  0.78439400  0.21560600  0.00091500  1
  Y  Y5  1  0.78439400  0.56878800  0.00091500  1
  Y  Y6  1  0.43121200  0.21560600  0.00091500  1
  Si  Si7  1  0.49299100  0.50700900  0.40073300  1
  Si  Si8  1  0.01401800  0.50700900  0.40073300  1
  Si  Si9  1  0.49299100  0.98598200  0.40073300  1
  B  B10  1  0.74935800  0.74921700  0.48256600  1
  B  B11  1  0.99985900  0.25064200  0.48256600  1
  B  B12  1  0.25078300  0.25064200  0.48256600  1
  B  B13  1  0.74935800  0.00014100  0.48256600  1
  B  B14  1  0.25078300  0.00014100  0.48256600  1
  B  B15  1  0.99985900  0.74921700  0.48256600  1
  O  O16  1  0.42609950  0.85219900  0.18249500  1
  O  O17  1  0.02538700  0.63341500  0.62287300  1
  O  O18  1  0.28674400  0.14337200  0.59823100  1
  O  O19  1  0.56942400  0.13884800  0.23026800  1
  O  O20  1  0.11151000  0.88849000  0.60445100  1
  O  O21  1  0.73712100  0.99810400  0.18204200  1
  O  O22  1  0.36658500  0.39197200  0.62287300  1
  O  O23  1  0.86115200  0.43057600  0.23026800  1
  O  O24  1  0.42609950  0.57390050  0.18249500  1
  O  O25  1  0.00189600  0.73901700  0.18204200  1
  O  O26  1  0.60802800  0.97461300  0.62287300  1
  O  O27  1  0.02538700  0.39197200  0.62287300  1
  O  O28  1  0.77698000  0.88849000  0.60445100  1
  O  O29  1  0.00189600  0.26287900  0.18204200  1
  O  O30  1  0.36658500  0.97461300  0.62287300  1
  O  O31  1  0.26098300  0.26287900  0.18204200  1
  O  O32  1  0.60802800  0.63341500  0.62287300  1
  O  O33  1  0.85662800  0.71325600  0.59823100  1
  O  O34  1  0.11151000  0.22302000  0.60445100  1
  O  O35  1  0.26098300  0.99810400  0.18204200  1
  O  O36  1  0.73712100  0.73901700  0.18204200  1
  O  O37  1  0.14780100  0.57390050  0.18249500  1
  O  O38  1  0.56942400  0.43057600  0.23026800  1
  O  O39  1  0.85662800  0.14337200  0.59823100  1
  F  F40  1  0.33333333  0.66666667  0.74892400  1
  F  F41  1  0.66666667  0.33333333  0.79798000  1
