# generated using pymatgen
data_NaInAs2O7
_symmetry_space_group_name_H-M   'P 1'
_cell_length_a   10.45065200
_cell_length_b   8.89546000
_cell_length_c   14.20611194
_cell_angle_alpha   90.00000000
_cell_angle_beta   109.86384535
_cell_angle_gamma   90.00000000
_symmetry_Int_Tables_number   1
_chemical_formula_structural   NaInAs2O7
_chemical_formula_sum   'Na8 In8 As16 O56'
_cell_volume   1242.07290588
_cell_formula_units_Z   8
loop_
 _symmetry_equiv_pos_site_id
 _symmetry_equiv_pos_as_xyz
  1  'x, y, z'
loop_
 _atom_site_type_symbol
 _atom_site_label
 _atom_site_symmetry_multiplicity
 _atom_site_fract_x
 _atom_site_fract_y
 _atom_site_fract_z
 _atom_site_occupancy
  Na  Na0  1  0.59676350  0.63868350  0.11925100  1
  Na  Na1  1  0.90323650  0.86131650  0.88074900  1
  Na  Na2  1  0.40323650  0.63868350  0.38074900  1
  Na  Na3  1  0.09676350  0.86131650  0.61925100  1
  Na  Na4  1  0.09676350  0.13868350  0.11925100  1
  Na  Na5  1  0.40323650  0.36131650  0.88074900  1
  Na  Na6  1  0.90323650  0.13868350  0.38074900  1
  Na  Na7  1  0.59676350  0.36131650  0.61925100  1
  In  In8  1  0.86130900  0.26740300  0.85955700  1
  In  In9  1  0.86130900  0.73259700  0.35955700  1
  In  In10  1  0.63869100  0.76740300  0.64044300  1
  In  In11  1  0.63869100  0.23259700  0.14044300  1
  In  In12  1  0.36130900  0.76740300  0.85955700  1
  In  In13  1  0.36130900  0.23259700  0.35955700  1
  In  In14  1  0.13869100  0.26740300  0.64044300  1
  In  In15  1  0.13869100  0.73259700  0.14044300  1
  As  As16  1  0.87623450  0.54276750  0.57565300  1
  As  As17  1  0.37623450  0.95723250  0.07565300  1
  As  As18  1  0.12376550  0.54276750  0.92434700  1
  As  As19  1  0.66874950  0.42141450  0.36549200  1
  As  As20  1  0.83125050  0.07858550  0.63450800  1
  As  As21  1  0.66874950  0.57858550  0.86549200  1
  As  As22  1  0.83125050  0.92141450  0.13450800  1
  As  As23  1  0.62376550  0.95723250  0.42434700  1
  As  As24  1  0.37623450  0.04276750  0.57565300  1
  As  As25  1  0.87623450  0.45723250  0.07565300  1
  As  As26  1  0.62376550  0.04276750  0.92434700  1
  As  As27  1  0.16874950  0.92141450  0.36549200  1
  As  As28  1  0.33125050  0.57858550  0.63450800  1
  As  As29  1  0.16874950  0.07858550  0.86549200  1
  As  As30  1  0.33125050  0.42141450  0.13450800  1
  As  As31  1  0.12376550  0.45723250  0.42434700  1
  O  O32  1  0.02190600  0.90614400  0.39296500  1
  O  O33  1  0.69811500  0.27151500  0.30134500  1
  O  O34  1  0.47809400  0.59385600  0.60703500  1
  O  O35  1  0.40880750  0.79680350  0.02086900  1
  O  O36  1  0.80188500  0.22848500  0.69865500  1
  O  O37  1  0.82510800  0.09532800  0.18343300  1
  O  O38  1  0.74363750  0.93189150  0.36934400  1
  O  O39  1  0.69811500  0.72848500  0.80134500  1
  O  O40  1  0.80610200  0.59963300  0.98134000  1
  O  O41  1  0.09119250  0.70319650  0.97913100  1
  O  O42  1  0.67489200  0.40467200  0.81656700  1
  O  O43  1  0.69389800  0.09963300  0.51866000  1
  O  O44  1  0.69389800  0.90036700  0.01866000  1
  O  O45  1  0.52190600  0.59385600  0.89296500  1
  O  O46  1  0.59119250  0.79680350  0.47913100  1
  O  O47  1  0.25636250  0.93189150  0.13065600  1
  O  O48  1  0.75636250  0.56810850  0.63065600  1
  O  O49  1  0.02273550  0.46366750  0.65003300  1
  O  O50  1  0.52273550  0.03633250  0.15003300  1
  O  O51  1  0.80188500  0.77151500  0.19865500  1
  O  O52  1  0.67489200  0.59532800  0.31656700  1
  O  O53  1  0.82510800  0.90467200  0.68343300  1
  O  O54  1  0.80610200  0.40036700  0.48134000  1
  O  O55  1  0.24363750  0.56810850  0.86934400  1
  O  O56  1  0.97726450  0.46366750  0.84996700  1
  O  O57  1  0.90880750  0.70319650  0.52086900  1
  O  O58  1  0.47726450  0.03633250  0.34996700  1
  O  O59  1  0.97809400  0.90614400  0.10703500  1
  O  O60  1  0.52190600  0.40614400  0.39296500  1
  O  O61  1  0.19811500  0.77151500  0.30134500  1
  O  O62  1  0.97809400  0.09385600  0.60703500  1
  O  O63  1  0.90880750  0.29680350  0.02086900  1
  O  O64  1  0.30188500  0.72848500  0.69865500  1
  O  O65  1  0.32510800  0.59532800  0.18343300  1
  O  O66  1  0.24363750  0.43189150  0.36934400  1
  O  O67  1  0.19811500  0.22848500  0.80134500  1
  O  O68  1  0.30610200  0.09963300  0.98134000  1
  O  O69  1  0.59119250  0.20319650  0.97913100  1
  O  O70  1  0.17489200  0.90467200  0.81656700  1
  O  O71  1  0.19389800  0.59963300  0.51866000  1
  O  O72  1  0.19389800  0.40036700  0.01866000  1
  O  O73  1  0.02190600  0.09385600  0.89296500  1
  O  O74  1  0.09119250  0.29680350  0.47913100  1
  O  O75  1  0.75636250  0.43189150  0.13065600  1
  O  O76  1  0.25636250  0.06810850  0.63065600  1
  O  O77  1  0.52273550  0.96366750  0.65003300  1
  O  O78  1  0.02273550  0.53633250  0.15003300  1
  O  O79  1  0.30188500  0.27151500  0.19865500  1
  O  O80  1  0.17489200  0.09532800  0.31656700  1
  O  O81  1  0.32510800  0.40467200  0.68343300  1
  O  O82  1  0.30610200  0.90036700  0.48134000  1
  O  O83  1  0.74363750  0.06810850  0.86934400  1
  O  O84  1  0.47726450  0.96366750  0.84996700  1
  O  O85  1  0.40880750  0.20319650  0.52086900  1
  O  O86  1  0.97726450  0.53633250  0.34996700  1
  O  O87  1  0.47809400  0.40614400  0.10703500  1
