# generated using pymatgen
data_Cd4Te6Cl6O13
_symmetry_space_group_name_H-M   'P 1'
_cell_length_a   8.01540900
_cell_length_b   10.10584686
_cell_length_c   14.35040904
_cell_angle_alpha   103.91065705
_cell_angle_beta   105.01581042
_cell_angle_gamma   89.88081427
_symmetry_Int_Tables_number   1
_chemical_formula_structural   Cd4Te6Cl6O13
_chemical_formula_sum   'Cd8 Te12 Cl12 O26'
_cell_volume   1087.55036052
_cell_formula_units_Z   2
loop_
 _symmetry_equiv_pos_site_id
 _symmetry_equiv_pos_as_xyz
  1  'x, y, z'
loop_
 _atom_site_type_symbol
 _atom_site_label
 _atom_site_symmetry_multiplicity
 _atom_site_fract_x
 _atom_site_fract_y
 _atom_site_fract_z
 _atom_site_occupancy
  Cd  Cd0  1  0.09201000  0.64712800  0.46514700  1
  Cd  Cd1  1  0.10831900  0.15525800  0.96186200  1
  Cd  Cd2  1  0.90799000  0.35287200  0.53485300  1
  Cd  Cd3  1  0.41201700  0.35521200  0.54076900  1
  Cd  Cd4  1  0.58798300  0.64478800  0.45923100  1
  Cd  Cd5  1  0.39444100  0.84442200  0.03912000  1
  Cd  Cd6  1  0.89168100  0.84474200  0.03813800  1
  Cd  Cd7  1  0.60555900  0.15557800  0.96088000  1
  Te  Te8  1  0.29982700  0.00521200  0.39652500  1
  Te  Te9  1  0.24813900  0.56046900  0.24340300  1
  Te  Te10  1  0.55362400  0.27580900  0.31847800  1
  Te  Te11  1  0.98366400  0.67601200  0.70945900  1
  Te  Te12  1  0.70017300  0.99478800  0.60347500  1
  Te  Te13  1  0.86149500  0.99914400  0.39378100  1
  Te  Te14  1  0.01633600  0.32398800  0.29054100  1
  Te  Te15  1  0.27937500  0.43749800  0.75711800  1
  Te  Te16  1  0.75186100  0.43953100  0.75659700  1
  Te  Te17  1  0.44637600  0.72419100  0.68152200  1
  Te  Te18  1  0.13850500  0.00085600  0.60621900  1
  Te  Te19  1  0.72062500  0.56250200  0.24288200  1
  Cl  Cl20  1  0.32100000  0.96334300  0.88873200  1
  Cl  Cl21  1  0.48096400  0.80156700  0.21500900  1
  Cl  Cl22  1  0.67900000  0.03665700  0.11126800  1
  Cl  Cl23  1  0.96976300  0.78256200  0.20908700  1
  Cl  Cl24  1  0.60856300  0.67984600  0.96621800  1
  Cl  Cl25  1  0.11027700  0.68326800  0.96693200  1
  Cl  Cl26  1  0.51903600  0.19843300  0.78499100  1
  Cl  Cl27  1  0.39143700  0.32015400  0.03378200  1
  Cl  Cl28  1  0.17643500  0.03654300  0.11362500  1
  Cl  Cl29  1  0.88972300  0.31673200  0.03306800  1
  Cl  Cl30  1  0.03023700  0.21743800  0.79091300  1
  Cl  Cl31  1  0.82356500  0.96345700  0.88637500  1
  O  O32  1  0.06280400  0.88779000  0.46811200  1
  O  O33  1  0.23807900  0.81522800  0.62589500  1
  O  O34  1  0.39880400  0.59258800  0.55879400  1
  O  O35  1  0.70680100  0.32904600  0.62551700  1
  O  O36  1  0.60119600  0.40741200  0.44120600  1
  O  O37  1  0.59876500  0.82135600  0.60363100  1
  O  O38  1  0.79823000  0.66396800  0.37619100  1
  O  O39  1  0.92623500  0.91479200  0.62973600  1
  O  O40  1  0.20177000  0.33603200  0.62380900  1
  O  O41  1  0.07376500  0.08520800  0.37026400  1
  O  O42  1  0.25138800  0.37744400  0.27518700  1
  O  O43  1  0.50073900  0.47601000  0.72457400  1
  O  O44  1  0.07847300  0.40195000  0.42959900  1
  O  O45  1  0.35484000  0.05710500  0.53867200  1
  O  O46  1  0.64516000  0.94289500  0.46132800  1
  O  O47  1  0.01003400  0.49314600  0.73904300  1
  O  O48  1  0.49926100  0.52399000  0.27542600  1
  O  O49  1  0.29319900  0.67095400  0.37448300  1
  O  O50  1  0.93719600  0.11221000  0.53188800  1
  O  O51  1  0.92152700  0.59805000  0.57040100  1
  O  O52  1  0.25472400  0.62585900  0.72864900  1
  O  O53  1  0.74861200  0.62255600  0.72481300  1
  O  O54  1  0.76192100  0.18477200  0.37410500  1
  O  O55  1  0.40123500  0.17864400  0.39636900  1
  O  O56  1  0.74527600  0.37414100  0.27135100  1
  O  O57  1  0.98996600  0.50685400  0.26095700  1
