# generated using pymatgen
data_Na17Al5O16
_symmetry_space_group_name_H-M   'P 1'
_cell_length_a   6.02937800
_cell_length_b   33.23798600
_cell_length_c   6.03477395
_cell_angle_alpha   90.00000000
_cell_angle_beta   119.71886651
_cell_angle_gamma   90.00000000
_symmetry_Int_Tables_number   1
_chemical_formula_structural   Na17Al5O16
_chemical_formula_sum   'Na34 Al10 O32'
_cell_volume   1050.32136776
_cell_formula_units_Z   2
loop_
 _symmetry_equiv_pos_site_id
 _symmetry_equiv_pos_as_xyz
  1  'x, y, z'
loop_
 _atom_site_type_symbol
 _atom_site_label
 _atom_site_symmetry_multiplicity
 _atom_site_fract_x
 _atom_site_fract_y
 _atom_site_fract_z
 _atom_site_occupancy
  Na  Na0  1  0.44161800  0.22926400  0.05073500  1
  Na  Na1  1  0.50150800  0.41156600  0.19393500  1
  Na  Na2  1  0.94161800  0.27073600  0.05073500  1
  Na  Na3  1  0.46843850  0.13789550  0.05725800  1
  Na  Na4  1  0.03648650  0.45399650  0.61138000  1
  Na  Na5  1  0.00150800  0.08843400  0.19393500  1
  Na  Na6  1  0.99657850  0.17625250  0.46366600  1
  Na  Na7  1  0.53612550  0.13729150  0.58631000  1
  Na  Na8  1  0.03612550  0.36270850  0.58631000  1
  Na  Na9  1  0.96978300  0.45396500  0.07923800  1
  Na  Na10  1  0.49657850  0.32374750  0.46366600  1
  Na  Na11  1  0.05287550  0.27516650  0.62399500  1
  Na  Na12  1  0.96843850  0.36210450  0.05725800  1
  Na  Na13  1  0.46978300  0.04603500  0.07923800  1
  Na  Na14  1  0.53648650  0.04600350  0.61138000  1
  Na  Na15  1  0.55287550  0.22483350  0.62399500  1
  Na  Na16  1  0.00095700  0.00000000  0.48762900  1
  Na  Na17  1  0.94161800  0.72926400  0.05073500  1
  Na  Na18  1  0.00150800  0.91156600  0.19393500  1
  Na  Na19  1  0.44161800  0.77073600  0.05073500  1
  Na  Na20  1  0.96843850  0.63789550  0.05725800  1
  Na  Na21  1  0.53648650  0.95399650  0.61138000  1
  Na  Na22  1  0.50150800  0.58843400  0.19393500  1
  Na  Na23  1  0.49657850  0.67625250  0.46366600  1
  Na  Na24  1  0.03612550  0.63729150  0.58631000  1
  Na  Na25  1  0.53612550  0.86270850  0.58631000  1
  Na  Na26  1  0.46978300  0.95396500  0.07923800  1
  Na  Na27  1  0.99657850  0.82374750  0.46366600  1
  Na  Na28  1  0.55287550  0.77516650  0.62399500  1
  Na  Na29  1  0.46843850  0.86210450  0.05725800  1
  Na  Na30  1  0.96978300  0.54603500  0.07923800  1
  Na  Na31  1  0.03648650  0.54600350  0.61138000  1
  Na  Na32  1  0.05287550  0.72483350  0.62399500  1
  Na  Na33  1  0.50095700  0.50000000  0.48762900  1
  Al  Al34  1  0.00257100  0.18024000  0.99158700  1
  Al  Al35  1  0.50257100  0.31976000  0.99158700  1
  Al  Al36  1  0.00332650  0.09026450  0.67562500  1
  Al  Al37  1  0.50332650  0.40973550  0.67562500  1
  Al  Al38  1  0.00434200  0.00000000  0.00393000  1
  Al  Al39  1  0.50257100  0.68024000  0.99158700  1
  Al  Al40  1  0.00257100  0.81976000  0.99158700  1
  Al  Al41  1  0.50332650  0.59026450  0.67562500  1
  Al  Al42  1  0.00332650  0.90973550  0.67562500  1
  Al  Al43  1  0.50434200  0.50000000  0.00393000  1
  O  O44  1  0.72184600  0.00000000  0.02281700  1
  O  O45  1  0.99355200  0.21615200  0.76800200  1
  O  O46  1  0.50304300  0.37047300  0.87852600  1
  O  O47  1  0.00274600  0.04327600  0.82479300  1
  O  O48  1  0.22045300  0.40676900  0.37712100  1
  O  O49  1  0.50274600  0.45672400  0.82479300  1
  O  O50  1  0.28986400  0.00000000  0.30078900  1
  O  O51  1  0.78925100  0.31386000  0.28805500  1
  O  O52  1  0.72143550  0.18534550  0.01508000  1
  O  O53  1  0.28925100  0.18614000  0.28805500  1
  O  O54  1  0.72045300  0.09323100  0.37712100  1
  O  O55  1  0.28620450  0.09327050  0.65811200  1
  O  O56  1  0.49355200  0.28384800  0.76800200  1
  O  O57  1  0.78620450  0.40672950  0.65811200  1
  O  O58  1  0.00304300  0.12952700  0.87852600  1
  O  O59  1  0.22143550  0.31465450  0.01508000  1
  O  O60  1  0.22184600  0.50000000  0.02281700  1
  O  O61  1  0.49355200  0.71615200  0.76800200  1
  O  O62  1  0.00304300  0.87047300  0.87852600  1
  O  O63  1  0.50274600  0.54327600  0.82479300  1
  O  O64  1  0.72045300  0.90676900  0.37712100  1
  O  O65  1  0.00274600  0.95672400  0.82479300  1
  O  O66  1  0.78986400  0.50000000  0.30078900  1
  O  O67  1  0.28925100  0.81386000  0.28805500  1
  O  O68  1  0.22143550  0.68534550  0.01508000  1
  O  O69  1  0.78925100  0.68614000  0.28805500  1
  O  O70  1  0.22045300  0.59323100  0.37712100  1
  O  O71  1  0.78620450  0.59327050  0.65811200  1
  O  O72  1  0.99355200  0.78384800  0.76800200  1
  O  O73  1  0.28620450  0.90672950  0.65811200  1
  O  O74  1  0.50304300  0.62952700  0.87852600  1
  O  O75  1  0.72143550  0.81465450  0.01508000  1
