# generated using pymatgen
data_BaTeF6
_symmetry_space_group_name_H-M   'P 1'
_cell_length_a   9.23829200
_cell_length_b   15.37038400
_cell_length_c   15.48221400
_cell_angle_alpha   90.00000000
_cell_angle_beta   90.00000000
_cell_angle_gamma   90.00000000
_symmetry_Int_Tables_number   1
_chemical_formula_structural   BaTeF6
_chemical_formula_sum   'Ba16 Te16 F96'
_cell_volume   2198.41393838
_cell_formula_units_Z   16
loop_
 _symmetry_equiv_pos_site_id
 _symmetry_equiv_pos_as_xyz
  1  'x, y, z'
loop_
 _atom_site_type_symbol
 _atom_site_label
 _atom_site_symmetry_multiplicity
 _atom_site_fract_x
 _atom_site_fract_y
 _atom_site_fract_z
 _atom_site_occupancy
  Ba  Ba0  1  0.32692450  0.92417200  0.61504350  1
  Ba  Ba1  1  0.32692450  0.57582800  0.88495650  1
  Ba  Ba2  1  0.07692450  0.67417200  0.63495650  1
  Ba  Ba3  1  0.07692450  0.82582800  0.86504350  1
  Ba  Ba4  1  0.82692450  0.92417200  0.11504350  1
  Ba  Ba5  1  0.82692450  0.57582800  0.38495650  1
  Ba  Ba6  1  0.57692450  0.67417200  0.13495650  1
  Ba  Ba7  1  0.57692450  0.82582800  0.36504350  1
  Ba  Ba8  1  0.82692450  0.42417200  0.61504350  1
  Ba  Ba9  1  0.82692450  0.07582800  0.88495650  1
  Ba  Ba10  1  0.57692450  0.17417200  0.63495650  1
  Ba  Ba11  1  0.57692450  0.32582800  0.86504350  1
  Ba  Ba12  1  0.32692450  0.42417200  0.11504350  1
  Ba  Ba13  1  0.32692450  0.07582800  0.38495650  1
  Ba  Ba14  1  0.07692450  0.17417200  0.13495650  1
  Ba  Ba15  1  0.07692450  0.32582800  0.36504350  1
  Te  Te16  1  0.01488800  0.14470900  0.60773700  1
  Te  Te17  1  0.26488800  0.10529100  0.85773700  1
  Te  Te18  1  0.51488800  0.85529100  0.89226300  1
  Te  Te19  1  0.76488800  0.89470900  0.64226300  1
  Te  Te20  1  0.51488800  0.14470900  0.10773700  1
  Te  Te21  1  0.76488800  0.10529100  0.35773700  1
  Te  Te22  1  0.01488800  0.85529100  0.39226300  1
  Te  Te23  1  0.26488800  0.89470900  0.14226300  1
  Te  Te24  1  0.51488800  0.64470900  0.60773700  1
  Te  Te25  1  0.76488800  0.60529100  0.85773700  1
  Te  Te26  1  0.01488800  0.35529100  0.89226300  1
  Te  Te27  1  0.26488800  0.39470900  0.64226300  1
  Te  Te28  1  0.01488800  0.64470900  0.10773700  1
  Te  Te29  1  0.26488800  0.60529100  0.35773700  1
  Te  Te30  1  0.51488800  0.35529100  0.39226300  1
  Te  Te31  1  0.76488800  0.39470900  0.14226300  1
  F  F32  1  0.37495000  0.88859200  0.79770800  1
  F  F33  1  0.12351400  0.00462950  0.84280250  1
  F  F34  1  0.11163750  0.33993200  0.70675750  1
  F  F35  1  0.58522550  0.16643600  0.98664950  1
  F  F36  1  0.57998150  0.97921250  0.89123000  1
  F  F37  1  0.86163750  0.08993200  0.54324250  1
  F  F38  1  0.37187850  0.08292350  0.55189600  1
  F  F39  1  0.33522550  0.08356400  0.73664950  1
  F  F40  1  0.08522550  0.83356400  0.51335050  1
  F  F41  1  0.33522550  0.41643600  0.76335050  1
  F  F42  1  0.87495000  0.11140800  0.70229200  1
  F  F43  1  0.37187850  0.41707650  0.94810400  1
  F  F44  1  0.11163750  0.16006800  0.79324250  1
  F  F45  1  0.12187850  0.83292350  0.69810400  1
  F  F46  1  0.36163750  0.91006800  0.95675750  1
  F  F47  1  0.07998150  0.02078750  0.60877000  1
  F  F48  1  0.32998150  0.22921250  0.85877000  1
  F  F49  1  0.32998150  0.27078750  0.64123000  1
  F  F50  1  0.12495000  0.36140800  0.54770800  1
  F  F51  1  0.62187850  0.16707650  0.80189600  1
  F  F52  1  0.12495000  0.13859200  0.95229200  1
  F  F53  1  0.87351400  0.24537050  0.59280250  1
  F  F54  1  0.62351400  0.99537050  0.65719750  1
  F  F55  1  0.37351400  0.75462950  0.90719750  1
  F  F56  1  0.87495000  0.88859200  0.29770800  1
  F  F57  1  0.62351400  0.00462950  0.34280250  1
  F  F58  1  0.61163750  0.33993200  0.20675750  1
  F  F59  1  0.08522550  0.16643600  0.48664950  1
  F  F60  1  0.07998150  0.97921250  0.39123000  1
  F  F61  1  0.36163750  0.08993200  0.04324250  1
  F  F62  1  0.87187850  0.08292350  0.05189600  1
  F  F63  1  0.83522550  0.08356400  0.23664950  1
  F  F64  1  0.58522550  0.83356400  0.01335050  1
  F  F65  1  0.83522550  0.41643600  0.26335050  1
  F  F66  1  0.37495000  0.11140800  0.20229200  1
  F  F67  1  0.87187850  0.41707650  0.44810400  1
  F  F68  1  0.61163750  0.16006800  0.29324250  1
  F  F69  1  0.62187850  0.83292350  0.19810400  1
  F  F70  1  0.86163750  0.91006800  0.45675750  1
  F  F71  1  0.57998150  0.02078750  0.10877000  1
  F  F72  1  0.82998150  0.22921250  0.35877000  1
  F  F73  1  0.82998150  0.27078750  0.14123000  1
  F  F74  1  0.62495000  0.36140800  0.04770800  1
  F  F75  1  0.12187850  0.16707650  0.30189600  1
  F  F76  1  0.62495000  0.13859200  0.45229200  1
  F  F77  1  0.37351400  0.24537050  0.09280250  1
  F  F78  1  0.12351400  0.99537050  0.15719750  1
  F  F79  1  0.87351400  0.75462950  0.40719750  1
  F  F80  1  0.87495000  0.38859200  0.79770800  1
  F  F81  1  0.62351400  0.50462950  0.84280250  1
  F  F82  1  0.61163750  0.83993200  0.70675750  1
  F  F83  1  0.08522550  0.66643600  0.98664950  1
  F  F84  1  0.07998150  0.47921250  0.89123000  1
  F  F85  1  0.36163750  0.58993200  0.54324250  1
  F  F86  1  0.87187850  0.58292350  0.55189600  1
  F  F87  1  0.83522550  0.58356400  0.73664950  1
  F  F88  1  0.58522550  0.33356400  0.51335050  1
  F  F89  1  0.83522550  0.91643600  0.76335050  1
  F  F90  1  0.37495000  0.61140800  0.70229200  1
  F  F91  1  0.87187850  0.91707650  0.94810400  1
  F  F92  1  0.61163750  0.66006800  0.79324250  1
  F  F93  1  0.62187850  0.33292350  0.69810400  1
  F  F94  1  0.86163750  0.41006800  0.95675750  1
  F  F95  1  0.57998150  0.52078750  0.60877000  1
  F  F96  1  0.82998150  0.72921250  0.85877000  1
  F  F97  1  0.82998150  0.77078750  0.64123000  1
  F  F98  1  0.62495000  0.86140800  0.54770800  1
  F  F99  1  0.12187850  0.66707650  0.80189600  1
  F  F100  1  0.62495000  0.63859200  0.95229200  1
  F  F101  1  0.37351400  0.74537050  0.59280250  1
  F  F102  1  0.12351400  0.49537050  0.65719750  1
  F  F103  1  0.87351400  0.25462950  0.90719750  1
  F  F104  1  0.37495000  0.38859200  0.29770800  1
  F  F105  1  0.12351400  0.50462950  0.34280250  1
  F  F106  1  0.11163750  0.83993200  0.20675750  1
  F  F107  1  0.58522550  0.66643600  0.48664950  1
  F  F108  1  0.57998150  0.47921250  0.39123000  1
  F  F109  1  0.86163750  0.58993200  0.04324250  1
  F  F110  1  0.37187850  0.58292350  0.05189600  1
  F  F111  1  0.33522550  0.58356400  0.23664950  1
  F  F112  1  0.08522550  0.33356400  0.01335050  1
  F  F113  1  0.33522550  0.91643600  0.26335050  1
  F  F114  1  0.87495000  0.61140800  0.20229200  1
  F  F115  1  0.37187850  0.91707650  0.44810400  1
  F  F116  1  0.11163750  0.66006800  0.29324250  1
  F  F117  1  0.12187850  0.33292350  0.19810400  1
  F  F118  1  0.36163750  0.41006800  0.45675750  1
  F  F119  1  0.07998150  0.52078750  0.10877000  1
  F  F120  1  0.32998150  0.72921250  0.35877000  1
  F  F121  1  0.32998150  0.77078750  0.14123000  1
  F  F122  1  0.12495000  0.86140800  0.04770800  1
  F  F123  1  0.62187850  0.66707650  0.30189600  1
  F  F124  1  0.12495000  0.63859200  0.45229200  1
  F  F125  1  0.87351400  0.74537050  0.09280250  1
  F  F126  1  0.62351400  0.49537050  0.15719750  1
  F  F127  1  0.37351400  0.25462950  0.40719750  1
