# generated using pymatgen
data_Cu4SnS4
_symmetry_space_group_name_H-M   'P 1'
_cell_length_a   6.43703000
_cell_length_b   7.63607400
_cell_length_c   13.64838800
_cell_angle_alpha   90.00000000
_cell_angle_beta   90.00000000
_cell_angle_gamma   90.00000000
_symmetry_Int_Tables_number   1
_chemical_formula_structural   Cu4SnS4
_chemical_formula_sum   'Cu16 Sn4 S16'
_cell_volume   670.86791512
_cell_formula_units_Z   4
loop_
 _symmetry_equiv_pos_site_id
 _symmetry_equiv_pos_as_xyz
  1  'x, y, z'
loop_
 _atom_site_type_symbol
 _atom_site_label
 _atom_site_symmetry_multiplicity
 _atom_site_fract_x
 _atom_site_fract_y
 _atom_site_fract_z
 _atom_site_occupancy
  Cu  Cu0  1  0.94077400  0.25000000  0.84182900  1
  Cu  Cu1  1  0.62551200  0.48890000  0.16504700  1
  Cu  Cu2  1  0.44077400  0.75000000  0.65817100  1
  Cu  Cu3  1  0.60877600  0.25000000  0.93253500  1
  Cu  Cu4  1  0.12551200  0.51110000  0.33495300  1
  Cu  Cu5  1  0.05922600  0.75000000  0.15817100  1
  Cu  Cu6  1  0.62551200  0.01110000  0.16504700  1
  Cu  Cu7  1  0.87448800  0.48890000  0.66504700  1
  Cu  Cu8  1  0.87448800  0.01110000  0.66504700  1
  Cu  Cu9  1  0.37448800  0.51110000  0.83495300  1
  Cu  Cu10  1  0.12551200  0.98890000  0.33495300  1
  Cu  Cu11  1  0.55922600  0.25000000  0.34182900  1
  Cu  Cu12  1  0.37448800  0.98890000  0.83495300  1
  Cu  Cu13  1  0.10877600  0.75000000  0.56746500  1
  Cu  Cu14  1  0.39122400  0.75000000  0.06746500  1
  Cu  Cu15  1  0.89122400  0.25000000  0.43253500  1
  Sn  Sn16  1  0.87436100  0.75000000  0.91397200  1
  Sn  Sn17  1  0.12563900  0.25000000  0.08602800  1
  Sn  Sn18  1  0.62563900  0.75000000  0.41397200  1
  Sn  Sn19  1  0.37436100  0.25000000  0.58602800  1
  S  S20  1  0.24396400  0.25000000  0.41326700  1
  S  S21  1  0.23676500  0.50731100  0.67719600  1
  S  S22  1  0.26323500  0.99268900  0.17719600  1
  S  S23  1  0.26038600  0.75000000  0.91594900  1
  S  S24  1  0.73961400  0.25000000  0.08405100  1
  S  S25  1  0.25603600  0.25000000  0.91326700  1
  S  S26  1  0.73676500  0.49268900  0.82280400  1
  S  S27  1  0.26323500  0.50731100  0.17719600  1
  S  S28  1  0.74396400  0.75000000  0.08673300  1
  S  S29  1  0.75603600  0.75000000  0.58673300  1
  S  S30  1  0.73676500  0.00731100  0.82280400  1
  S  S31  1  0.76038600  0.25000000  0.58405100  1
  S  S32  1  0.76323500  0.49268900  0.32280400  1
  S  S33  1  0.23676500  0.99268900  0.67719600  1
  S  S34  1  0.76323500  0.00731100  0.32280400  1
  S  S35  1  0.23961400  0.75000000  0.41594900  1
