# generated using pymatgen
data_Na2As4O11
_symmetry_space_group_name_H-M   'P 1'
_cell_length_a   9.24355000
_cell_length_b   8.45492600
_cell_length_c   11.77640487
_cell_angle_alpha   90.00000000
_cell_angle_beta   103.11772616
_cell_angle_gamma   90.00000000
_symmetry_Int_Tables_number   1
_chemical_formula_structural   Na2As4O11
_chemical_formula_sum   'Na8 As16 O44'
_cell_volume   896.35136838
_cell_formula_units_Z   4
loop_
 _symmetry_equiv_pos_site_id
 _symmetry_equiv_pos_as_xyz
  1  'x, y, z'
loop_
 _atom_site_type_symbol
 _atom_site_label
 _atom_site_symmetry_multiplicity
 _atom_site_fract_x
 _atom_site_fract_y
 _atom_site_fract_z
 _atom_site_occupancy
  Na  Na0  1  0.13818200  0.40369800  0.46568400  1
  Na  Na1  1  0.86181800  0.40369800  0.03431600  1
  Na  Na2  1  0.86181800  0.59630200  0.53431600  1
  Na  Na3  1  0.13818200  0.59630200  0.96568400  1
  Na  Na4  1  0.63818200  0.90369800  0.46568400  1
  Na  Na5  1  0.36181800  0.90369800  0.03431600  1
  Na  Na6  1  0.36181800  0.09630200  0.53431600  1
  Na  Na7  1  0.63818200  0.09630200  0.96568400  1
  As  As8  1  0.75443050  0.71161350  0.83388600  1
  As  As9  1  0.24556950  0.71161350  0.66611400  1
  As  As10  1  0.24556950  0.28838650  0.16611400  1
  As  As11  1  0.75443050  0.28838650  0.33388600  1
  As  As12  1  0.54199000  0.54106800  0.61812600  1
  As  As13  1  0.45801000  0.54106800  0.88187400  1
  As  As14  1  0.45801000  0.45893200  0.38187400  1
  As  As15  1  0.54199000  0.45893200  0.11812600  1
  As  As16  1  0.25443050  0.21161350  0.83388600  1
  As  As17  1  0.74556950  0.21161350  0.66611400  1
  As  As18  1  0.74556950  0.78838650  0.16611400  1
  As  As19  1  0.25443050  0.78838650  0.33388600  1
  As  As20  1  0.04199000  0.04106800  0.61812600  1
  As  As21  1  0.95801000  0.04106800  0.88187400  1
  As  As22  1  0.95801000  0.95893200  0.38187400  1
  As  As23  1  0.04199000  0.95893200  0.11812600  1
  O  O24  1  0.88944450  0.58195650  0.88195400  1
  O  O25  1  0.11055550  0.58195650  0.61804600  1
  O  O26  1  0.11055550  0.41804350  0.11804600  1
  O  O27  1  0.88944450  0.41804350  0.38195400  1
  O  O28  1  0.28425800  0.41329600  0.85629500  1
  O  O29  1  0.71574200  0.41329600  0.64370500  1
  O  O30  1  0.71574200  0.58670400  0.14370500  1
  O  O31  1  0.28425800  0.58670400  0.35629500  1
  O  O32  1  0.10410550  0.19846750  0.90092400  1
  O  O33  1  0.89589450  0.19846750  0.59907600  1
  O  O34  1  0.89589450  0.80153250  0.09907600  1
  O  O35  1  0.10410550  0.80153250  0.40092400  1
  O  O36  1  0.17958700  0.20064300  0.68195900  1
  O  O37  1  0.82041300  0.20064300  0.81804100  1
  O  O38  1  0.82041300  0.79935700  0.31804100  1
  O  O39  1  0.17958700  0.79935700  0.18195900  1
  O  O40  1  0.08046000  0.10457900  0.47566600  1
  O  O41  1  0.91954000  0.10457900  0.02433400  1
  O  O42  1  0.91954000  0.89542100  0.52433400  1
  O  O43  1  0.08046000  0.89542100  0.97566600  1
  O  O44  1  0.00000000  0.95695100  0.75000000  1
  O  O45  1  0.00000000  0.04304900  0.25000000  1
  O  O46  1  0.38944450  0.08195650  0.88195400  1
  O  O47  1  0.61055550  0.08195650  0.61804600  1
  O  O48  1  0.61055550  0.91804350  0.11804600  1
  O  O49  1  0.38944450  0.91804350  0.38195400  1
  O  O50  1  0.78425800  0.91329600  0.85629500  1
  O  O51  1  0.21574200  0.91329600  0.64370500  1
  O  O52  1  0.21574200  0.08670400  0.14370500  1
  O  O53  1  0.78425800  0.08670400  0.35629500  1
  O  O54  1  0.60410550  0.69846750  0.90092400  1
  O  O55  1  0.39589450  0.69846750  0.59907600  1
  O  O56  1  0.39589450  0.30153250  0.09907600  1
  O  O57  1  0.60410550  0.30153250  0.40092400  1
  O  O58  1  0.67958700  0.70064300  0.68195900  1
  O  O59  1  0.32041300  0.70064300  0.81804100  1
  O  O60  1  0.32041300  0.29935700  0.31804100  1
  O  O61  1  0.67958700  0.29935700  0.18195900  1
  O  O62  1  0.58046000  0.60457900  0.47566600  1
  O  O63  1  0.41954000  0.60457900  0.02433400  1
  O  O64  1  0.41954000  0.39542100  0.52433400  1
  O  O65  1  0.58046000  0.39542100  0.97566600  1
  O  O66  1  0.50000000  0.45695100  0.75000000  1
  O  O67  1  0.50000000  0.54304900  0.25000000  1
