# generated using pymatgen
data_RbPSe3
_symmetry_space_group_name_H-M   'P 1'
_cell_length_a   7.60059941
_cell_length_b   7.60059941
_cell_length_c   19.60394800
_cell_angle_alpha   90.00000000
_cell_angle_beta   90.00000000
_cell_angle_gamma   120.00000000
_symmetry_Int_Tables_number   1
_chemical_formula_structural   RbPSe3
_chemical_formula_sum   'Rb6 P6 Se18'
_cell_volume   980.77606910
_cell_formula_units_Z   6
loop_
 _symmetry_equiv_pos_site_id
 _symmetry_equiv_pos_as_xyz
  1  'x, y, z'
loop_
 _atom_site_type_symbol
 _atom_site_label
 _atom_site_symmetry_multiplicity
 _atom_site_fract_x
 _atom_site_fract_y
 _atom_site_fract_z
 _atom_site_occupancy
  Rb  Rb0  1  0.58230500  0.26868300  0.24903300  1
  Rb  Rb1  1  0.31362200  0.73131700  0.41763367  1
  Rb  Rb2  1  0.41769500  0.68637800  0.08430033  1
  Rb  Rb3  1  0.73131700  0.31362200  0.58236633  1
  Rb  Rb4  1  0.68637800  0.41769500  0.91569967  1
  Rb  Rb5  1  0.26868300  0.58230500  0.75096700  1
  P  P6  1  0.92445000  0.89760100  0.71923300  1
  P  P7  1  0.10239900  0.02684900  0.05256633  1
  P  P8  1  0.02684900  0.10239900  0.94743367  1
  P  P9  1  0.07555000  0.97315100  0.61410033  1
  P  P10  1  0.89760100  0.92445000  0.28076700  1
  P  P11  1  0.97315100  0.07555000  0.38589967  1
  Se  Se12  1  0.29908800  0.25533600  0.39289900  1
  Se  Se13  1  0.70091200  0.95624800  0.94043433  1
  Se  Se14  1  0.84233300  0.76048100  0.44676700  1
  Se  Se15  1  0.15766700  0.91814800  0.88656633  1
  Se  Se16  1  0.21943100  0.79682500  0.59186300  1
  Se  Se17  1  0.08185200  0.23951900  0.21989967  1
  Se  Se18  1  0.95624800  0.70091200  0.05956567  1
  Se  Se19  1  0.23951900  0.08185200  0.78010033  1
  Se  Se20  1  0.79682500  0.21943100  0.40813700  1
  Se  Se21  1  0.78056900  0.57739400  0.74147033  1
  Se  Se22  1  0.04375200  0.74466400  0.27376767  1
  Se  Se23  1  0.42260600  0.20317500  0.07480367  1
  Se  Se24  1  0.20317500  0.42260600  0.92519633  1
  Se  Se25  1  0.25533600  0.29908800  0.60710100  1
  Se  Se26  1  0.57739400  0.78056900  0.25852967  1
  Se  Se27  1  0.91814800  0.15766700  0.11343367  1
  Se  Se28  1  0.76048100  0.84233300  0.55323300  1
  Se  Se29  1  0.74466400  0.04375200  0.72623233  1
