# generated using pymatgen
data_NaLa(SeO3)2
_symmetry_space_group_name_H-M   'P 1'
_cell_length_a   6.76633400
_cell_length_b   6.85678300
_cell_length_c   13.78954263
_cell_angle_alpha   90.00000000
_cell_angle_beta   107.62484619
_cell_angle_gamma   90.00000000
_symmetry_Int_Tables_number   1
_chemical_formula_structural   NaLa(SeO3)2
_chemical_formula_sum   'Na4 La4 Se8 O24'
_cell_volume   609.73860599
_cell_formula_units_Z   4
loop_
 _symmetry_equiv_pos_site_id
 _symmetry_equiv_pos_as_xyz
  1  'x, y, z'
loop_
 _atom_site_type_symbol
 _atom_site_label
 _atom_site_symmetry_multiplicity
 _atom_site_fract_x
 _atom_site_fract_y
 _atom_site_fract_z
 _atom_site_occupancy
  Na  Na0  1  0.92500700  0.83303300  0.11701500  1
  Na  Na1  1  0.92500700  0.66696700  0.61701500  1
  Na  Na2  1  0.07499300  0.16696700  0.88298500  1
  Na  Na3  1  0.07499300  0.33303300  0.38298500  1
  La  La4  1  0.50854000  0.12158100  0.16432300  1
  La  La5  1  0.49146000  0.62158100  0.33567700  1
  La  La6  1  0.50854000  0.37841900  0.66432300  1
  La  La7  1  0.49146000  0.87841900  0.83567700  1
  Se  Se8  1  0.03443000  0.16503400  0.63886100  1
  Se  Se9  1  0.62209600  0.14817600  0.43143900  1
  Se  Se10  1  0.96557000  0.66503400  0.86113900  1
  Se  Se11  1  0.96557000  0.83496600  0.36113900  1
  Se  Se12  1  0.37790400  0.64817600  0.06856100  1
  Se  Se13  1  0.37790400  0.85182400  0.56856100  1
  Se  Se14  1  0.03443000  0.33496600  0.13886100  1
  Se  Se15  1  0.62209600  0.35182400  0.93143900  1
  O  O16  1  0.30632900  0.78272000  0.16071700  1
  O  O17  1  0.53189700  0.81860800  0.03461200  1
  O  O18  1  0.12318200  0.83597900  0.83031500  1
  O  O19  1  0.54767100  0.01566200  0.64541200  1
  O  O20  1  0.25196100  0.33008000  0.24502900  1
  O  O21  1  0.46810300  0.31860800  0.46538800  1
  O  O22  1  0.45232900  0.98433800  0.35458800  1
  O  O23  1  0.13616900  0.29472500  0.55799200  1
  O  O24  1  0.53189700  0.68139200  0.53461200  1
  O  O25  1  0.87681800  0.33597900  0.66968500  1
  O  O26  1  0.12318200  0.66402100  0.33031500  1
  O  O27  1  0.74803900  0.66992000  0.75497100  1
  O  O28  1  0.86383100  0.79472500  0.94200800  1
  O  O29  1  0.87681800  0.16402100  0.16968500  1
  O  O30  1  0.86383100  0.70527500  0.44200800  1
  O  O31  1  0.69367100  0.21728000  0.83928300  1
  O  O32  1  0.25196100  0.16992000  0.74502900  1
  O  O33  1  0.69367100  0.28272000  0.33928300  1
  O  O34  1  0.13616900  0.20527500  0.05799200  1
  O  O35  1  0.30632900  0.71728000  0.66071700  1
  O  O36  1  0.45232900  0.51566200  0.85458800  1
  O  O37  1  0.74803900  0.83008000  0.25497100  1
  O  O38  1  0.46810300  0.18139200  0.96538800  1
  O  O39  1  0.54767100  0.48433800  0.14541200  1
