# generated using pymatgen
data_Na3Li4Th6F31
_symmetry_space_group_name_H-M   'P 1'
_cell_length_a   9.96199634
_cell_length_b   9.96199634
_cell_length_c   13.46531400
_cell_angle_alpha   90.00000000
_cell_angle_beta   90.00000000
_cell_angle_gamma   120.00000000
_symmetry_Int_Tables_number   1
_chemical_formula_structural   Na3Li4Th6F31
_chemical_formula_sum   'Na6 Li8 Th12 F62'
_cell_volume   1157.28379672
_cell_formula_units_Z   2
loop_
 _symmetry_equiv_pos_site_id
 _symmetry_equiv_pos_as_xyz
  1  'x, y, z'
loop_
 _atom_site_type_symbol
 _atom_site_label
 _atom_site_symmetry_multiplicity
 _atom_site_fract_x
 _atom_site_fract_y
 _atom_site_fract_z
 _atom_site_occupancy
  Na  Na0  1  0.33333333  0.66666667  0.75727700  1
  Na  Na1  1  0.00000000  0.00000000  0.12350900  1
  Na  Na2  1  0.33333333  0.66666667  0.25727700  1
  Na  Na3  1  0.66666667  0.33333333  0.95347500  1
  Na  Na4  1  0.66666667  0.33333333  0.45347500  1
  Na  Na5  1  0.00000000  0.00000000  0.62350900  1
  Li  Li6  1  0.23829733  0.95119367  0.31174000  1
  Li  Li7  1  0.71289633  0.95119367  0.81174000  1
  Li  Li8  1  0.00000000  0.00000000  0.36103200  1
  Li  Li9  1  0.00000000  0.00000000  0.86103200  1
  Li  Li10  1  0.04880633  0.28710367  0.31174000  1
  Li  Li11  1  0.04880633  0.76170267  0.81174000  1
  Li  Li12  1  0.71289633  0.76170267  0.31174000  1
  Li  Li13  1  0.23829733  0.28710367  0.81174000  1
  Th  Th14  1  0.91386133  0.32530067  0.70666900  1
  Th  Th15  1  0.60397333  0.92092367  0.50090900  1
  Th  Th16  1  0.41143933  0.08613867  0.70666900  1
  Th  Th17  1  0.67469933  0.08613867  0.20666900  1
  Th  Th18  1  0.07907633  0.68304967  0.50090900  1
  Th  Th19  1  0.91386133  0.58856067  0.20666900  1
  Th  Th20  1  0.31695033  0.92092367  0.00090900  1
  Th  Th21  1  0.67469933  0.58856067  0.70666900  1
  Th  Th22  1  0.07907633  0.39602667  0.00090900  1
  Th  Th23  1  0.31695033  0.39602667  0.50090900  1
  Th  Th24  1  0.41143933  0.32530067  0.20666900  1
  Th  Th25  1  0.60397333  0.68304967  0.00090900  1
  F  F26  1  0.81084833  0.68978367  0.08371700  1
  F  F27  1  0.16565633  0.65464467  0.95479000  1
  F  F28  1  0.44316433  0.12977567  0.88476900  1
  F  F29  1  0.28503733  0.42516867  0.31096400  1
  F  F30  1  0.89341033  0.08085167  0.26422500  1
  F  F31  1  0.48898833  0.83434367  0.95479000  1
  F  F32  1  0.44316433  0.31338867  0.38476900  1
  F  F33  1  0.14013133  0.42516867  0.81096400  1
  F  F34  1  0.18854433  0.88321167  0.62430400  1
  F  F35  1  0.41560233  0.54601967  0.64690800  1
  F  F36  1  0.28503733  0.85986867  0.81096400  1
  F  F37  1  0.13041733  0.58439767  0.64690800  1
  F  F38  1  0.68661133  0.55683567  0.88476900  1
  F  F39  1  0.69466733  0.81145567  0.62430400  1
  F  F40  1  0.11678833  0.81145567  0.12430400  1
  F  F41  1  0.80050333  0.90621067  0.93311800  1
  F  F42  1  0.89341033  0.81255867  0.76422500  1
  F  F43  1  0.31021633  0.12106467  0.08371700  1
  F  F44  1  0.88409733  0.46476767  0.05187100  1
  F  F45  1  0.58067033  0.11590267  0.05187100  1
  F  F46  1  0.41560233  0.86958267  0.14690800  1
  F  F47  1  0.64813333  0.55413767  0.26264800  1
  F  F48  1  0.11678833  0.30533267  0.62430400  1
  F  F49  1  0.58067033  0.46476767  0.55187100  1
  F  F50  1  0.45398033  0.58439767  0.14690800  1
  F  F51  1  0.80050333  0.89429267  0.43311800  1
  F  F52  1  0.57483133  0.85986867  0.31096400  1
  F  F53  1  0.90600433  0.35186667  0.26264800  1
  F  F54  1  0.10570733  0.90621067  0.43311800  1
  F  F55  1  0.09378933  0.19949667  0.43311800  1
  F  F56  1  0.18854433  0.30533267  0.12430400  1
  F  F57  1  0.31021633  0.18915167  0.58371700  1
  F  F58  1  0.68661133  0.12977567  0.38476900  1
  F  F59  1  0.87893533  0.68978367  0.58371700  1
  F  F60  1  0.09378933  0.89429267  0.93311800  1
  F  F61  1  0.87022433  0.31338867  0.88476900  1
  F  F62  1  0.34535533  0.51101167  0.95479000  1
  F  F63  1  0.64813333  0.09399567  0.76264800  1
  F  F64  1  0.44586233  0.09399567  0.26264800  1
  F  F65  1  0.87893533  0.18915167  0.08371700  1
  F  F66  1  0.81084833  0.12106467  0.58371700  1
  F  F67  1  0.53523233  0.41932967  0.05187100  1
  F  F68  1  0.34535533  0.83434367  0.45479000  1
  F  F69  1  0.14013133  0.71496267  0.31096400  1
  F  F70  1  0.45398033  0.86958267  0.64690800  1
  F  F71  1  0.53523233  0.11590267  0.55187100  1
  F  F72  1  0.10570733  0.19949667  0.93311800  1
  F  F73  1  0.44586233  0.35186667  0.76264800  1
  F  F74  1  0.66666667  0.33333333  0.69401100  1
  F  F75  1  0.88409733  0.41932967  0.55187100  1
  F  F76  1  0.13041733  0.54601967  0.14690800  1
  F  F77  1  0.90600433  0.55413767  0.76264800  1
  F  F78  1  0.57483133  0.71496267  0.81096400  1
  F  F79  1  0.18744133  0.08085167  0.76422500  1
  F  F80  1  0.91914833  0.10658967  0.76422500  1
  F  F81  1  0.91914833  0.81255867  0.26422500  1
  F  F82  1  0.87022433  0.55683567  0.38476900  1
  F  F83  1  0.18744133  0.10658967  0.26422500  1
  F  F84  1  0.66666667  0.33333333  0.19401100  1
  F  F85  1  0.16565633  0.51101167  0.45479000  1
  F  F86  1  0.69466733  0.88321167  0.12430400  1
  F  F87  1  0.48898833  0.65464467  0.45479000  1
