# generated using pymatgen
data_Cu8GeS6
_symmetry_space_group_name_H-M   'P 1'
_cell_length_a   6.96708600
_cell_length_b   7.03711400
_cell_length_c   9.81899500
_cell_angle_alpha   90.00000000
_cell_angle_beta   90.00000000
_cell_angle_gamma   90.00000000
_symmetry_Int_Tables_number   1
_chemical_formula_structural   Cu8GeS6
_chemical_formula_sum   'Cu16 Ge2 S12'
_cell_volume   481.40743886
_cell_formula_units_Z   2
loop_
 _symmetry_equiv_pos_site_id
 _symmetry_equiv_pos_as_xyz
  1  'x, y, z'
loop_
 _atom_site_type_symbol
 _atom_site_label
 _atom_site_symmetry_multiplicity
 _atom_site_fract_x
 _atom_site_fract_y
 _atom_site_fract_z
 _atom_site_occupancy
  Cu  Cu0  1  0.30096000  0.00000000  0.53874200  1
  Cu  Cu1  1  0.69904000  0.50000000  0.03874200  1
  Cu  Cu2  1  0.48078900  0.79794300  0.74311300  1
  Cu  Cu3  1  0.51921100  0.70205700  0.24311300  1
  Cu  Cu4  1  0.51921100  0.29794300  0.24311300  1
  Cu  Cu5  1  0.48078900  0.20205700  0.74311300  1
  Cu  Cu6  1  0.88159300  0.79276600  0.14177900  1
  Cu  Cu7  1  0.11840700  0.70723400  0.64177900  1
  Cu  Cu8  1  0.11840700  0.29276600  0.64177900  1
  Cu  Cu9  1  0.88159300  0.20723400  0.14177900  1
  Cu  Cu10  1  0.83420200  0.76772500  0.86349500  1
  Cu  Cu11  1  0.16579800  0.73227500  0.36349500  1
  Cu  Cu12  1  0.16579800  0.26772500  0.36349500  1
  Cu  Cu13  1  0.83420200  0.23227500  0.86349500  1
  Cu  Cu14  1  0.39048700  0.00000000  0.97188100  1
  Cu  Cu15  1  0.60951300  0.50000000  0.47188100  1
  Ge  Ge16  1  0.24874400  0.50000000  0.98985000  1
  Ge  Ge17  1  0.75125600  0.00000000  0.48985000  1
  S  S18  1  0.27728500  0.50000000  0.49363600  1
  S  S19  1  0.72271500  0.00000000  0.99363600  1
  S  S20  1  0.24253200  0.76218000  0.11290000  1
  S  S21  1  0.75746800  0.73782000  0.61290000  1
  S  S22  1  0.75746800  0.26218000  0.61290000  1
  S  S23  1  0.24253200  0.23782000  0.11290000  1
  S  S24  1  0.99021700  0.00000000  0.33788200  1
  S  S25  1  0.00978300  0.50000000  0.83788200  1
  S  S26  1  0.49508000  0.00000000  0.35574000  1
  S  S27  1  0.50492000  0.50000000  0.85574000  1
  S  S28  1  0.21770000  0.00000000  0.75769400  1
  S  S29  1  0.78230000  0.50000000  0.25769400  1
