# generated using pymatgen
data_Rb2Cu(BrCl)2
_symmetry_space_group_name_H-M   'P 1'
_cell_length_a   7.31412400
_cell_length_b   16.56457200
_cell_length_c   7.31605700
_cell_angle_alpha   90.00000000
_cell_angle_beta   90.00000000
_cell_angle_gamma   90.00000000
_symmetry_Int_Tables_number   1
_chemical_formula_structural   Rb2Cu(BrCl)2
_chemical_formula_sum   'Rb8 Cu4 Br8 Cl8'
_cell_volume   886.37932658
_cell_formula_units_Z   4
loop_
 _symmetry_equiv_pos_site_id
 _symmetry_equiv_pos_as_xyz
  1  'x, y, z'
loop_
 _atom_site_type_symbol
 _atom_site_label
 _atom_site_symmetry_multiplicity
 _atom_site_fract_x
 _atom_site_fract_y
 _atom_site_fract_z
 _atom_site_occupancy
  Rb  Rb0  1  0.50000000  0.63316800  0.50000000  1
  Rb  Rb1  1  0.00000000  0.63316800  0.00000000  1
  Rb  Rb2  1  0.00000000  0.86683200  0.50000000  1
  Rb  Rb3  1  0.50000000  0.86683200  0.00000000  1
  Rb  Rb4  1  0.00000000  0.13316800  0.50000000  1
  Rb  Rb5  1  0.50000000  0.13316800  0.00000000  1
  Rb  Rb6  1  0.50000000  0.36683200  0.50000000  1
  Rb  Rb7  1  0.00000000  0.36683200  0.00000000  1
  Cu  Cu8  1  0.00000000  0.00000000  0.00000000  1
  Cu  Cu9  1  0.50000000  0.00000000  0.50000000  1
  Cu  Cu10  1  0.50000000  0.50000000  0.00000000  1
  Cu  Cu11  1  0.00000000  0.50000000  0.50000000  1
  Br  Br12  1  0.50000000  0.65455800  0.00000000  1
  Br  Br13  1  0.00000000  0.84544200  0.00000000  1
  Br  Br14  1  0.00000000  0.65455800  0.50000000  1
  Br  Br15  1  0.50000000  0.84544200  0.50000000  1
  Br  Br16  1  0.00000000  0.15455800  0.00000000  1
  Br  Br17  1  0.50000000  0.34544200  0.00000000  1
  Br  Br18  1  0.50000000  0.15455800  0.50000000  1
  Br  Br19  1  0.00000000  0.34544200  0.50000000  1
  Cl  Cl20  1  0.78140100  0.00000000  0.78142000  1
  Cl  Cl21  1  0.21859900  0.00000000  0.21858000  1
  Cl  Cl22  1  0.28140100  0.00000000  0.71858000  1
  Cl  Cl23  1  0.71859900  0.00000000  0.28142000  1
  Cl  Cl24  1  0.28140100  0.50000000  0.78142000  1
  Cl  Cl25  1  0.71859900  0.50000000  0.21858000  1
  Cl  Cl26  1  0.78140100  0.50000000  0.71858000  1
  Cl  Cl27  1  0.21859900  0.50000000  0.28142000  1
