# generated using pymatgen
data_Ba4NaAuO8
_symmetry_space_group_name_H-M   'P 1'
_cell_length_a   5.84148800
_cell_length_b   5.84148800
_cell_length_c   14.81780200
_cell_angle_alpha   90.00000000
_cell_angle_beta   90.00000000
_cell_angle_gamma   90.00000000
_symmetry_Int_Tables_number   1
_chemical_formula_structural   Ba4NaAuO8
_chemical_formula_sum   'Ba8 Na2 Au2 O16'
_cell_volume   505.62759173
_cell_formula_units_Z   2
loop_
 _symmetry_equiv_pos_site_id
 _symmetry_equiv_pos_as_xyz
  1  'x, y, z'
loop_
 _atom_site_type_symbol
 _atom_site_label
 _atom_site_symmetry_multiplicity
 _atom_site_fract_x
 _atom_site_fract_y
 _atom_site_fract_z
 _atom_site_occupancy
  Ba  Ba0  1  0.00000000  0.50000000  0.37385100  1
  Ba  Ba1  1  0.50000000  0.00000000  0.37385100  1
  Ba  Ba2  1  0.00000000  0.50000000  0.12614900  1
  Ba  Ba3  1  0.50000000  0.00000000  0.12614900  1
  Ba  Ba4  1  0.50000000  0.00000000  0.87385100  1
  Ba  Ba5  1  0.00000000  0.50000000  0.87385100  1
  Ba  Ba6  1  0.50000000  0.00000000  0.62614900  1
  Ba  Ba7  1  0.00000000  0.50000000  0.62614900  1
  Na  Na8  1  0.50000000  0.50000000  0.00000000  1
  Na  Na9  1  0.00000000  0.00000000  0.50000000  1
  Au  Au10  1  0.00000000  0.00000000  0.00000000  1
  Au  Au11  1  0.50000000  0.50000000  0.50000000  1
  O  O12  1  0.00000000  0.00000000  0.22323900  1
  O  O13  1  0.00000000  0.00000000  0.32722800  1
  O  O14  1  0.50000000  0.50000000  0.17277200  1
  O  O15  1  0.75903600  0.75903600  0.00000000  1
  O  O16  1  0.50000000  0.50000000  0.27676100  1
  O  O17  1  0.24096400  0.24096400  0.00000000  1
  O  O18  1  0.24096400  0.75903600  0.00000000  1
  O  O19  1  0.75903600  0.24096400  0.00000000  1
  O  O20  1  0.50000000  0.50000000  0.72323900  1
  O  O21  1  0.50000000  0.50000000  0.82722800  1
  O  O22  1  0.00000000  0.00000000  0.67277200  1
  O  O23  1  0.25903600  0.25903600  0.50000000  1
  O  O24  1  0.00000000  0.00000000  0.77676100  1
  O  O25  1  0.74096400  0.74096400  0.50000000  1
  O  O26  1  0.74096400  0.25903600  0.50000000  1
  O  O27  1  0.25903600  0.74096400  0.50000000  1
