# generated using pymatgen
data_KSbO3
_symmetry_space_group_name_H-M   'P 1'
_cell_length_a   5.47517023
_cell_length_b   5.47517023
_cell_length_c   18.63725881
_cell_angle_alpha   90.00000000
_cell_angle_beta   90.00000000
_cell_angle_gamma   120.00000000
_symmetry_Int_Tables_number   1
_chemical_formula_structural   KSbO3
_chemical_formula_sum   'K6 Sb6 O18'
_cell_volume   483.84685400
_cell_formula_units_Z   6
loop_
 _symmetry_equiv_pos_site_id
 _symmetry_equiv_pos_as_xyz
  1  'x, y, z'
loop_
 _atom_site_type_symbol
 _atom_site_label
 _atom_site_symmetry_multiplicity
 _atom_site_fract_x
 _atom_site_fract_y
 _atom_site_fract_z
 _atom_site_occupancy
  K  K0  1  0.33333333  0.66666667  0.02775067  1
  K  K1  1  0.33333333  0.66666667  0.30558267  1
  K  K2  1  0.00000000  0.00000000  0.36108400  1
  K  K3  1  0.00000000  0.00000000  0.63891600  1
  K  K4  1  0.66666667  0.33333333  0.69441733  1
  K  K5  1  0.66666667  0.33333333  0.97224933  1
  Sb  Sb6  1  0.00000000  0.00000000  0.16424300  1
  Sb  Sb7  1  0.66666667  0.33333333  0.16909033  1
  Sb  Sb8  1  0.66666667  0.33333333  0.49757633  1
  Sb  Sb9  1  0.33333333  0.66666667  0.50242367  1
  Sb  Sb10  1  0.33333333  0.66666667  0.83090967  1
  Sb  Sb11  1  0.00000000  0.00000000  0.83575700  1
  O  O12  1  0.32839200  0.06450400  0.22896000  1
  O  O13  1  0.73611200  0.67160800  0.22896000  1
  O  O14  1  0.93549600  0.26388800  0.22896000  1
  O  O15  1  0.33827467  0.26882933  0.10437333  1
  O  O16  1  0.93055467  0.66172533  0.10437333  1
  O  O17  1  0.73117067  0.06944533  0.10437333  1
  O  O18  1  0.99505867  0.39783733  0.56229333  1
  O  O19  1  0.40277867  0.00494133  0.56229333  1
  O  O20  1  0.60216267  0.59722133  0.56229333  1
  O  O21  1  0.00494133  0.60216267  0.43770667  1
  O  O22  1  0.59722133  0.99505867  0.43770667  1
  O  O23  1  0.39783733  0.40277867  0.43770667  1
  O  O24  1  0.66172533  0.73117067  0.89562667  1
  O  O25  1  0.06944533  0.33827467  0.89562667  1
  O  O26  1  0.26882933  0.93055467  0.89562667  1
  O  O27  1  0.67160800  0.93549600  0.77104000  1
  O  O28  1  0.26388800  0.32839200  0.77104000  1
  O  O29  1  0.06450400  0.73611200  0.77104000  1
