# generated using pymatgen
data_KCaAl2F9
_symmetry_space_group_name_H-M   'P 1'
_cell_length_a   7.26836400
_cell_length_b   12.54035600
_cell_length_c   23.00917700
_cell_angle_alpha   90.00000000
_cell_angle_beta   90.00000000
_cell_angle_gamma   90.00000000
_symmetry_Int_Tables_number   1
_chemical_formula_structural   KCaAl2F9
_chemical_formula_sum   'K12 Ca12 Al24 F108'
_cell_volume   2097.23752227
_cell_formula_units_Z   12
loop_
 _symmetry_equiv_pos_site_id
 _symmetry_equiv_pos_as_xyz
  1  'x, y, z'
loop_
 _atom_site_type_symbol
 _atom_site_label
 _atom_site_symmetry_multiplicity
 _atom_site_fract_x
 _atom_site_fract_y
 _atom_site_fract_z
 _atom_site_occupancy
  K  K0  1  0.50000000  0.48954100  0.25000000  1
  K  K1  1  0.48560700  0.52143700  0.08348200  1
  K  K2  1  0.50000000  0.51045900  0.75000000  1
  K  K3  1  0.48560700  0.47856300  0.91651800  1
  K  K4  1  0.51439300  0.52143700  0.41651800  1
  K  K5  1  0.51439300  0.47856300  0.58348200  1
  K  K6  1  0.00000000  0.98954100  0.25000000  1
  K  K7  1  0.98560700  0.02143700  0.08348200  1
  K  K8  1  0.00000000  0.01045900  0.75000000  1
  K  K9  1  0.98560700  0.97856300  0.91651800  1
  K  K10  1  0.01439300  0.02143700  0.41651800  1
  K  K11  1  0.01439300  0.97856300  0.58348200  1
  Ca  Ca12  1  0.74455500  0.24372000  0.83347600  1
  Ca  Ca13  1  0.51532400  0.00000000  0.50000000  1
  Ca  Ca14  1  0.74455500  0.75628000  0.16652400  1
  Ca  Ca15  1  0.48467600  0.00000000  0.00000000  1
  Ca  Ca16  1  0.25544500  0.24372000  0.66652400  1
  Ca  Ca17  1  0.25544500  0.75628000  0.33347600  1
  Ca  Ca18  1  0.24455500  0.74372000  0.83347600  1
  Ca  Ca19  1  0.01532400  0.50000000  0.50000000  1
  Ca  Ca20  1  0.24455500  0.25628000  0.16652400  1
  Ca  Ca21  1  0.98467600  0.50000000  0.00000000  1
  Ca  Ca22  1  0.75544500  0.74372000  0.66652400  1
  Ca  Ca23  1  0.75544500  0.25628000  0.33347600  1
  Al  Al24  1  0.24309900  0.24142000  0.83626900  1
  Al  Al25  1  0.26910700  0.74848900  0.50322600  1
  Al  Al26  1  0.73089300  0.74848900  0.99677400  1
  Al  Al27  1  0.24309900  0.75858000  0.16373100  1
  Al  Al28  1  0.50470800  0.00785100  0.33011300  1
  Al  Al29  1  0.75690100  0.75858000  0.33626900  1
  Al  Al30  1  0.73089300  0.25151100  0.00322600  1
  Al  Al31  1  0.26910700  0.25151100  0.49677400  1
  Al  Al32  1  0.49529200  0.00785100  0.16988700  1
  Al  Al33  1  0.50470800  0.99214900  0.66988700  1
  Al  Al34  1  0.49529200  0.99214900  0.83011300  1
  Al  Al35  1  0.75690100  0.24142000  0.66373100  1
  Al  Al36  1  0.74309900  0.74142000  0.83626900  1
  Al  Al37  1  0.76910700  0.24848900  0.50322600  1
  Al  Al38  1  0.23089300  0.24848900  0.99677400  1
  Al  Al39  1  0.74309900  0.25858000  0.16373100  1
  Al  Al40  1  0.00470800  0.50785100  0.33011300  1
  Al  Al41  1  0.25690100  0.25858000  0.33626900  1
  Al  Al42  1  0.23089300  0.75151100  0.00322600  1
  Al  Al43  1  0.76910700  0.75151100  0.49677400  1
  Al  Al44  1  0.99529200  0.50785100  0.16988700  1
  Al  Al45  1  0.00470800  0.49214900  0.66988700  1
  Al  Al46  1  0.99529200  0.49214900  0.83011300  1
  Al  Al47  1  0.25690100  0.74142000  0.66373100  1
  F  F48  1  0.49031000  0.03053900  0.09319800  1
  F  F49  1  0.28069900  0.05417500  0.66544700  1
  F  F50  1  0.72884500  0.93126600  0.67792200  1
  F  F51  1  0.49031000  0.96946100  0.90680200  1
  F  F52  1  0.48038850  0.23265650  0.01135500  1
  F  F53  1  0.69065750  0.27565750  0.92684200  1
  F  F54  1  0.50000000  0.01407200  0.75000000  1
  F  F55  1  0.77922400  0.89289200  0.48260000  1
  F  F56  1  0.50969000  0.03053900  0.40680200  1
  F  F57  1  0.27115500  0.06873400  0.17792200  1
  F  F58  1  0.46314400  0.66756400  0.64701000  1
  F  F59  1  0.50969000  0.96946100  0.59319800  1
  F  F60  1  0.51961150  0.76734350  0.51135500  1
  F  F61  1  0.75029050  0.10920650  0.99280000  1
  F  F62  1  0.39528950  0.12521050  0.84421700  1
  F  F63  1  0.23311150  0.22760650  0.41647400  1
  F  F64  1  0.60471050  0.87478950  0.34421700  1
  F  F65  1  0.30934250  0.72434250  0.42684200  1
  F  F66  1  0.55314400  0.32035200  0.67620700  1
  F  F67  1  0.50000000  0.98592800  0.25000000  1
  F  F68  1  0.39528950  0.87478950  0.15578300  1
  F  F69  1  0.77922400  0.10710800  0.51740000  1
  F  F70  1  0.44685600  0.32035200  0.82379300  1
  F  F71  1  0.78096050  0.79256950  0.26028400  1
  F  F72  1  0.59626300  0.85839200  0.82171600  1
  F  F73  1  0.53685600  0.66756400  0.85299000  1
  F  F74  1  0.60471050  0.12521050  0.65578300  1
  F  F75  1  0.72884500  0.06873400  0.32207800  1
  F  F76  1  0.71930100  0.94582500  0.16544700  1
  F  F77  1  0.55314400  0.67964800  0.32379300  1
  F  F78  1  0.40373700  0.85839200  0.67828400  1
  F  F79  1  0.51961150  0.23265650  0.48864500  1
  F  F80  1  0.48038850  0.76734350  0.98864500  1
  F  F81  1  0.46314400  0.33243600  0.35299000  1
  F  F82  1  0.69065750  0.72434250  0.07315800  1
  F  F83  1  0.76688850  0.77239350  0.91647400  1
  F  F84  1  0.22077600  0.89289200  0.01740000  1
  F  F85  1  0.23311150  0.77239350  0.58352600  1
  F  F86  1  0.30934250  0.27565750  0.57315800  1
  F  F87  1  0.21903950  0.20743050  0.76028400  1
  F  F88  1  0.44685600  0.67964800  0.17620700  1
  F  F89  1  0.71930100  0.05417500  0.83455300  1
  F  F90  1  0.24970950  0.89079350  0.49280000  1
  F  F91  1  0.28069900  0.94582500  0.33455300  1
  F  F92  1  0.75029050  0.89079350  0.00720000  1
  F  F93  1  0.59626300  0.14160800  0.17828400  1
  F  F94  1  0.27115500  0.93126600  0.82207800  1
  F  F95  1  0.22077600  0.10710800  0.98260000  1
  F  F96  1  0.24970950  0.10920650  0.50720000  1
  F  F97  1  0.53685600  0.33243600  0.14701000  1
  F  F98  1  0.21903950  0.79256950  0.23971600  1
  F  F99  1  0.78096050  0.20743050  0.73971600  1
  F  F100  1  0.76688850  0.22760650  0.08352600  1
  F  F101  1  0.40373700  0.14160800  0.32171600  1
  F  F102  1  0.99031000  0.53053900  0.09319800  1
  F  F103  1  0.78069900  0.55417500  0.66544700  1
  F  F104  1  0.22884500  0.43126600  0.67792200  1
  F  F105  1  0.99031000  0.46946100  0.90680200  1
  F  F106  1  0.98038850  0.73265650  0.01135500  1
  F  F107  1  0.19065750  0.77565750  0.92684200  1
  F  F108  1  0.00000000  0.51407200  0.75000000  1
  F  F109  1  0.27922400  0.39289200  0.48260000  1
  F  F110  1  0.00969000  0.53053900  0.40680200  1
  F  F111  1  0.77115500  0.56873400  0.17792200  1
  F  F112  1  0.96314400  0.16756400  0.64701000  1
  F  F113  1  0.00969000  0.46946100  0.59319800  1
  F  F114  1  0.01961150  0.26734350  0.51135500  1
  F  F115  1  0.25029050  0.60920650  0.99280000  1
  F  F116  1  0.89528950  0.62521050  0.84421700  1
  F  F117  1  0.73311150  0.72760650  0.41647400  1
  F  F118  1  0.10471050  0.37478950  0.34421700  1
  F  F119  1  0.80934250  0.22434250  0.42684200  1
  F  F120  1  0.05314400  0.82035200  0.67620700  1
  F  F121  1  0.00000000  0.48592800  0.25000000  1
  F  F122  1  0.89528950  0.37478950  0.15578300  1
  F  F123  1  0.27922400  0.60710800  0.51740000  1
  F  F124  1  0.94685600  0.82035200  0.82379300  1
  F  F125  1  0.28096050  0.29256950  0.26028400  1
  F  F126  1  0.09626300  0.35839200  0.82171600  1
  F  F127  1  0.03685600  0.16756400  0.85299000  1
  F  F128  1  0.10471050  0.62521050  0.65578300  1
  F  F129  1  0.22884500  0.56873400  0.32207800  1
  F  F130  1  0.21930100  0.44582500  0.16544700  1
  F  F131  1  0.05314400  0.17964800  0.32379300  1
  F  F132  1  0.90373700  0.35839200  0.67828400  1
  F  F133  1  0.01961150  0.73265650  0.48864500  1
  F  F134  1  0.98038850  0.26734350  0.98864500  1
  F  F135  1  0.96314400  0.83243600  0.35299000  1
  F  F136  1  0.19065750  0.22434250  0.07315800  1
  F  F137  1  0.26688850  0.27239350  0.91647400  1
  F  F138  1  0.72077600  0.39289200  0.01740000  1
  F  F139  1  0.73311150  0.27239350  0.58352600  1
  F  F140  1  0.80934250  0.77565750  0.57315800  1
  F  F141  1  0.71903950  0.70743050  0.76028400  1
  F  F142  1  0.94685600  0.17964800  0.17620700  1
  F  F143  1  0.21930100  0.55417500  0.83455300  1
  F  F144  1  0.74970950  0.39079350  0.49280000  1
  F  F145  1  0.78069900  0.44582500  0.33455300  1
  F  F146  1  0.25029050  0.39079350  0.00720000  1
  F  F147  1  0.09626300  0.64160800  0.17828400  1
  F  F148  1  0.77115500  0.43126600  0.82207800  1
  F  F149  1  0.72077600  0.60710800  0.98260000  1
  F  F150  1  0.74970950  0.60920650  0.50720000  1
  F  F151  1  0.03685600  0.83243600  0.14701000  1
  F  F152  1  0.71903950  0.29256950  0.23971600  1
  F  F153  1  0.28096050  0.70743050  0.73971600  1
  F  F154  1  0.26688850  0.72760650  0.08352600  1
  F  F155  1  0.90373700  0.64160800  0.32171600  1
