# generated using pymatgen
data_KLiZnO2
_symmetry_space_group_name_H-M   'P 1'
_cell_length_a   10.96476400
_cell_length_b   3.38706800
_cell_length_c   8.33498711
_cell_angle_alpha   90.00000000
_cell_angle_beta   120.07173739
_cell_angle_gamma   90.00000000
_symmetry_Int_Tables_number   1
_chemical_formula_structural   KLiZnO2
_chemical_formula_sum   'K4 Li4 Zn4 O8'
_cell_volume   267.88251942
_cell_formula_units_Z   4
loop_
 _symmetry_equiv_pos_site_id
 _symmetry_equiv_pos_as_xyz
  1  'x, y, z'
loop_
 _atom_site_type_symbol
 _atom_site_label
 _atom_site_symmetry_multiplicity
 _atom_site_fract_x
 _atom_site_fract_y
 _atom_site_fract_z
 _atom_site_occupancy
  K  K0  1  0.16348500  0.00000000  0.62993200  1
  K  K1  1  0.83651500  0.00000000  0.37006800  1
  K  K2  1  0.66348500  0.50000000  0.62993200  1
  K  K3  1  0.33651500  0.50000000  0.37006800  1
  Li  Li4  1  0.15888000  0.50000000  0.94500700  1
  Li  Li5  1  0.84112000  0.50000000  0.05499300  1
  Li  Li6  1  0.65888000  0.00000000  0.94500700  1
  Li  Li7  1  0.34112000  0.00000000  0.05499300  1
  Zn  Zn8  1  0.95588300  0.00000000  0.81754100  1
  Zn  Zn9  1  0.04411700  0.00000000  0.18245900  1
  Zn  Zn10  1  0.45588300  0.50000000  0.81754100  1
  Zn  Zn11  1  0.54411700  0.50000000  0.18245900  1
  O  O12  1  0.03856300  0.50000000  0.30664500  1
  O  O13  1  0.96143700  0.50000000  0.69335500  1
  O  O14  1  0.66200700  0.50000000  0.06214900  1
  O  O15  1  0.33799300  0.50000000  0.93785100  1
  O  O16  1  0.53856300  0.00000000  0.30664500  1
  O  O17  1  0.46143700  0.00000000  0.69335500  1
  O  O18  1  0.16200700  0.00000000  0.06214900  1
  O  O19  1  0.83799300  0.00000000  0.93785100  1
