# generated using pymatgen
data_AlPO4
_symmetry_space_group_name_H-M   'P 1'
_cell_length_a   21.02634622
_cell_length_b   21.02634622
_cell_length_c   5.04806670
_cell_angle_alpha   90.00000000
_cell_angle_beta   90.00000000
_cell_angle_gamma   120.00000000
_symmetry_Int_Tables_number   1
_chemical_formula_structural   AlPO4
_chemical_formula_sum   'Al18 P18 O72'
_cell_volume   1932.78407508
_cell_formula_units_Z   18
loop_
 _symmetry_equiv_pos_site_id
 _symmetry_equiv_pos_as_xyz
  1  'x, y, z'
loop_
 _atom_site_type_symbol
 _atom_site_label
 _atom_site_symmetry_multiplicity
 _atom_site_fract_x
 _atom_site_fract_y
 _atom_site_fract_z
 _atom_site_occupancy
  Al  Al0  1  0.91444467  0.38287233  0.02928033  1
  Al  Al1  1  0.75222200  0.95046100  0.30405300  1
  Al  Al2  1  0.13509433  0.41888867  0.36261367  1
  Al  Al3  1  0.95046100  0.19823900  0.69594700  1
  Al  Al4  1  0.71620567  0.13509433  0.63738633  1
  Al  Al5  1  0.53157233  0.91444467  0.97071967  1
  Al  Al6  1  0.58111133  0.71620567  0.36261367  1
  Al  Al7  1  0.41888867  0.28379433  0.63738633  1
  Al  Al8  1  0.80176100  0.75222200  0.69594700  1
  Al  Al9  1  0.61712767  0.53157233  0.02928033  1
  Al  Al10  1  0.38287233  0.46842767  0.97071967  1
  Al  Al11  1  0.19823900  0.24777800  0.30405300  1
  Al  Al12  1  0.24777800  0.04953900  0.69594700  1
  Al  Al13  1  0.08555533  0.61712767  0.97071967  1
  Al  Al14  1  0.46842767  0.08555533  0.02928033  1
  Al  Al15  1  0.28379433  0.86490567  0.36261367  1
  Al  Al16  1  0.04953900  0.80176100  0.30405300  1
  Al  Al17  1  0.86490567  0.58111133  0.63738633  1
  P  P18  1  0.86148900  0.28274200  0.54299300  1
  P  P19  1  0.80517767  0.05059133  0.79034033  1
  P  P20  1  0.57874700  0.86148900  0.45700700  1
  P  P21  1  0.61607533  0.08791967  0.12367367  1
  P  P22  1  0.05059133  0.24541367  0.20965967  1
  P  P23  1  0.08791967  0.47184433  0.87632633  1
  P  P24  1  0.52815567  0.61607533  0.87632633  1
  P  P25  1  0.47184433  0.38392467  0.12367367  1
  P  P26  1  0.24541367  0.19482233  0.79034033  1
  P  P27  1  0.28274200  0.42125300  0.45700700  1
  P  P28  1  0.71725800  0.57874700  0.54299300  1
  P  P29  1  0.75458633  0.80517767  0.20965967  1
  P  P30  1  0.19482233  0.94940867  0.20965967  1
  P  P31  1  0.13851100  0.71725800  0.45700700  1
  P  P32  1  0.91208033  0.52815567  0.12367367  1
  P  P33  1  0.94940867  0.75458633  0.79034033  1
  P  P34  1  0.38392467  0.91208033  0.87632633  1
  P  P35  1  0.42125300  0.13851100  0.54299300  1
  O  O36  1  0.10977933  0.22296967  0.19527767  1
  O  O37  1  0.02081033  0.24225967  0.92932667  1
  O  O38  1  0.55688733  0.11036367  0.13805567  1
  O  O39  1  0.11036367  0.55347633  0.86194433  1
  O  O40  1  0.08349567  0.32364733  0.32108233  1
  O  O41  1  0.58317100  0.00968600  0.01225100  1
  O  O42  1  0.67890667  0.14134133  0.94087633  1
  O  O43  1  0.77855067  0.02081033  0.07067333  1
  O  O44  1  0.90681833  0.24983767  0.65441567  1
  O  O45  1  0.88811600  0.31252300  0.26266000  1
  O  O46  1  0.52532533  0.87089867  0.27420967  1
  O  O47  1  0.09107367  0.44521733  0.59599333  1
  O  O48  1  0.64585633  0.09107367  0.40400667  1
  O  O49  1  0.98776000  0.19199200  0.39245700  1
  O  O50  1  0.79576800  0.98776000  0.60754300  1
  O  O51  1  0.57559300  0.88811600  0.73734000  1
  O  O52  1  0.55630300  0.77985700  0.47138900  1
  O  O53  1  0.75984833  0.08349567  0.67891767  1
  O  O54  1  0.77985700  0.22355400  0.52861100  1
  O  O55  1  0.00968600  0.42651500  0.98774900  1
  O  O56  1  0.65698067  0.90681833  0.34558433  1
  O  O57  1  0.88680967  0.10977933  0.80472233  1
  O  O58  1  0.14134133  0.46243467  0.05912367  1
  O  O59  1  0.87089867  0.34557333  0.72579033  1
  O  O60  1  0.77644600  0.55630300  0.52861100  1
  O  O61  1  0.68747700  0.57559300  0.26266000  1
  O  O62  1  0.22355400  0.44369700  0.47138900  1
  O  O63  1  0.77703033  0.88680967  0.19527767  1
  O  O64  1  0.75016233  0.65698067  0.65441567  1
  O  O65  1  0.24983767  0.34301933  0.34558433  1
  O  O66  1  0.34557333  0.47467467  0.27420967  1
  O  O67  1  0.44521733  0.35414367  0.40400667  1
  O  O68  1  0.57348500  0.58317100  0.98774900  1
  O  O69  1  0.55478267  0.64585633  0.59599333  1
  O  O70  1  0.19199200  0.20423200  0.60754300  1
  O  O71  1  0.75774033  0.77855067  0.92932667  1
  O  O72  1  0.31252300  0.42440700  0.73734000  1
  O  O73  1  0.65442667  0.52532533  0.72579033  1
  O  O74  1  0.46243467  0.32109333  0.94087633  1
  O  O75  1  0.24225967  0.22144933  0.07067333  1
  O  O76  1  0.22296967  0.11319033  0.80472233  1
  O  O77  1  0.42651500  0.41682900  0.01225100  1
  O  O78  1  0.44652367  0.55688733  0.86194433  1
  O  O79  1  0.67635267  0.75984833  0.32108233  1
  O  O80  1  0.32364733  0.24015167  0.67891767  1
  O  O81  1  0.55347633  0.44311267  0.13805567  1
  O  O82  1  0.80800800  0.79576800  0.39245700  1
  O  O83  1  0.53756533  0.67890667  0.05912367  1
  O  O84  1  0.44311267  0.88963633  0.86194433  1
  O  O85  1  0.35414367  0.90892633  0.59599333  1
  O  O86  1  0.89022067  0.77703033  0.80472233  1
  O  O87  1  0.44369700  0.22014300  0.52861100  1
  O  O88  1  0.41682900  0.99031400  0.98774900  1
  O  O89  1  0.91650433  0.67635267  0.67891767  1
  O  O90  1  0.01224000  0.80800800  0.60754300  1
  O  O91  1  0.11188400  0.68747700  0.73734000  1
  O  O92  1  0.24015167  0.91650433  0.32108233  1
  O  O93  1  0.22144933  0.97918967  0.92932667  1
  O  O94  1  0.85865867  0.53756533  0.94087633  1
  O  O95  1  0.42440700  0.11188400  0.26266000  1
  O  O96  1  0.97918967  0.75774033  0.07067333  1
  O  O97  1  0.32109333  0.85865867  0.05912367  1
  O  O98  1  0.12910133  0.65442667  0.27420967  1
  O  O99  1  0.90892633  0.55478267  0.40400667  1
  O  O100  1  0.88963633  0.44652367  0.13805567  1
  O  O101  1  0.09318167  0.75016233  0.34558433  1
  O  O102  1  0.11319033  0.89022067  0.19527767  1
  O  O103  1  0.34301933  0.09318167  0.65441567  1
  O  O104  1  0.99031400  0.57348500  0.01225100  1
  O  O105  1  0.22014300  0.77644600  0.47138900  1
  O  O106  1  0.47467467  0.12910133  0.72579033  1
  O  O107  1  0.20423200  0.01224000  0.39245700  1
