# generated using pymatgen
data_AlSeS2N2Cl5
_symmetry_space_group_name_H-M   'P 1'
_cell_length_a   9.59414700
_cell_length_b   11.06822100
_cell_length_c   14.88642782
_cell_angle_alpha   90.00000000
_cell_angle_beta   128.09272256
_cell_angle_gamma   90.00000000
_symmetry_Int_Tables_number   1
_chemical_formula_structural   AlSeS2N2Cl5
_chemical_formula_sum   'Al4 Se4 S8 N8 Cl20'
_cell_volume   1244.10434546
_cell_formula_units_Z   4
loop_
 _symmetry_equiv_pos_site_id
 _symmetry_equiv_pos_as_xyz
  1  'x, y, z'
loop_
 _atom_site_type_symbol
 _atom_site_label
 _atom_site_symmetry_multiplicity
 _atom_site_fract_x
 _atom_site_fract_y
 _atom_site_fract_z
 _atom_site_occupancy
  Al  Al0  1  0.28342800  0.36015800  0.80869100  1
  Al  Al1  1  0.71657200  0.86015800  0.69130900  1
  Al  Al2  1  0.28342800  0.13984200  0.30869100  1
  Al  Al3  1  0.71657200  0.63984200  0.19130900  1
  Se  Se4  1  0.17415600  0.71758000  0.61112600  1
  Se  Se5  1  0.82584400  0.21758000  0.88887400  1
  Se  Se6  1  0.17415600  0.78242000  0.11112600  1
  Se  Se7  1  0.82584400  0.28242000  0.38887400  1
  S  S8  1  0.17852300  0.53828800  0.18680600  1
  S  S9  1  0.34804000  0.75156200  0.80909100  1
  S  S10  1  0.65196000  0.24843800  0.19090900  1
  S  S11  1  0.82147700  0.46171200  0.81319400  1
  S  S12  1  0.65196000  0.25156200  0.69090900  1
  S  S13  1  0.34804000  0.74843800  0.30909100  1
  S  S14  1  0.17852300  0.96171200  0.68680600  1
  S  S15  1  0.82147700  0.03828800  0.31319400  1
  N  N16  1  0.12407000  0.87424700  0.58464000  1
  N  N17  1  0.70149000  0.39076700  0.69772000  1
  N  N18  1  0.29851000  0.89076700  0.80228000  1
  N  N19  1  0.12407000  0.62575300  0.08464000  1
  N  N20  1  0.70149000  0.10923300  0.19772000  1
  N  N21  1  0.87593000  0.37424700  0.91536000  1
  N  N22  1  0.29851000  0.60923300  0.30228000  1
  N  N23  1  0.87593000  0.12575300  0.41536000  1
  Cl  Cl24  1  0.06964600  0.36633300  0.42457500  1
  Cl  Cl25  1  0.52973000  0.71307200  0.60269600  1
  Cl  Cl26  1  0.61627400  0.52158000  0.25772900  1
  Cl  Cl27  1  0.97010600  0.71252400  0.33169500  1
  Cl  Cl28  1  0.02989400  0.21252400  0.16830500  1
  Cl  Cl29  1  0.61627400  0.97842000  0.75772900  1
  Cl  Cl30  1  0.38372600  0.02158000  0.24227100  1
  Cl  Cl31  1  0.74532900  0.96088300  0.58066200  1
  Cl  Cl32  1  0.52973000  0.78692800  0.10269600  1
  Cl  Cl33  1  0.93035400  0.86633300  0.07542500  1
  Cl  Cl34  1  0.02989400  0.28747600  0.66830500  1
  Cl  Cl35  1  0.25467100  0.03911700  0.41933800  1
  Cl  Cl36  1  0.06964600  0.13366700  0.92457500  1
  Cl  Cl37  1  0.38372600  0.47842000  0.74227100  1
  Cl  Cl38  1  0.93035400  0.63366700  0.57542500  1
  Cl  Cl39  1  0.25467100  0.46088300  0.91933800  1
  Cl  Cl40  1  0.47027000  0.28692800  0.39730400  1
  Cl  Cl41  1  0.74532900  0.53911700  0.08066200  1
  Cl  Cl42  1  0.97010600  0.78747600  0.83169500  1
  Cl  Cl43  1  0.47027000  0.21307200  0.89730400  1
