# generated using pymatgen
data_Te3MoCl16
_symmetry_space_group_name_H-M   'P 1'
_cell_length_a   13.12032000
_cell_length_b   16.34370800
_cell_length_c   12.59573000
_cell_angle_alpha   90.00000000
_cell_angle_beta   90.00000000
_cell_angle_gamma   90.00000000
_symmetry_Int_Tables_number   1
_chemical_formula_structural   Te3MoCl16
_chemical_formula_sum   'Te12 Mo4 Cl64'
_cell_volume   2700.96131865
_cell_formula_units_Z   4
loop_
 _symmetry_equiv_pos_site_id
 _symmetry_equiv_pos_as_xyz
  1  'x, y, z'
loop_
 _atom_site_type_symbol
 _atom_site_label
 _atom_site_symmetry_multiplicity
 _atom_site_fract_x
 _atom_site_fract_y
 _atom_site_fract_z
 _atom_site_occupancy
  Te  Te0  1  0.40115150  0.13826550  0.99708000  1
  Te  Te1  1  0.59884850  0.86173450  0.49708000  1
  Te  Te2  1  0.59884850  0.13826550  0.49708000  1
  Te  Te3  1  0.40115150  0.86173450  0.99708000  1
  Te  Te4  1  0.13571500  0.00000000  0.73321500  1
  Te  Te5  1  0.86428500  0.00000000  0.23321500  1
  Te  Te6  1  0.90115150  0.63826550  0.99708000  1
  Te  Te7  1  0.09884850  0.36173450  0.49708000  1
  Te  Te8  1  0.09884850  0.63826550  0.49708000  1
  Te  Te9  1  0.90115150  0.36173450  0.99708000  1
  Te  Te10  1  0.63571500  0.50000000  0.73321500  1
  Te  Te11  1  0.36428500  0.50000000  0.23321500  1
  Mo  Mo12  1  0.67019900  0.00000000  0.97738100  1
  Mo  Mo13  1  0.32980100  0.00000000  0.47738100  1
  Mo  Mo14  1  0.17019900  0.50000000  0.97738100  1
  Mo  Mo15  1  0.82980100  0.50000000  0.47738100  1
  Cl  Cl16  1  0.49062700  0.24238200  0.08842700  1
  Cl  Cl17  1  0.50937300  0.75761800  0.58842700  1
  Cl  Cl18  1  0.50937300  0.24238200  0.58842700  1
  Cl  Cl19  1  0.49062700  0.75761800  0.08842700  1
  Cl  Cl20  1  0.33971900  0.22495500  0.86268700  1
  Cl  Cl21  1  0.66028100  0.77504500  0.36268700  1
  Cl  Cl22  1  0.66028100  0.22495500  0.36268700  1
  Cl  Cl23  1  0.33971900  0.77504500  0.86268700  1
  Cl  Cl24  1  0.25624200  0.14786900  0.11020000  1
  Cl  Cl25  1  0.74375800  0.85213100  0.61020000  1
  Cl  Cl26  1  0.74375800  0.14786900  0.61020000  1
  Cl  Cl27  1  0.25624200  0.85213100  0.11020000  1
  Cl  Cl28  1  0.00049300  0.00000000  0.61036700  1
  Cl  Cl29  1  0.99950700  0.00000000  0.11036700  1
  Cl  Cl30  1  0.56526350  0.60939650  0.83306300  1
  Cl  Cl31  1  0.43473650  0.39060350  0.33306300  1
  Cl  Cl32  1  0.43473650  0.60939650  0.33306300  1
  Cl  Cl33  1  0.56526350  0.39060350  0.83306300  1
  Cl  Cl34  1  0.75020850  0.89766050  0.08581900  1
  Cl  Cl35  1  0.24979150  0.10233950  0.58581900  1
  Cl  Cl36  1  0.24979150  0.89766050  0.58581900  1
  Cl  Cl37  1  0.75020850  0.10233950  0.08581900  1
  Cl  Cl38  1  0.79576900  0.00000000  0.85279500  1
  Cl  Cl39  1  0.20423100  0.00000000  0.35279500  1
  Cl  Cl40  1  0.58026400  0.10660400  0.87877100  1
  Cl  Cl41  1  0.41973600  0.89339600  0.37877100  1
  Cl  Cl42  1  0.41973600  0.10660400  0.37877100  1
  Cl  Cl43  1  0.58026400  0.89339600  0.87877100  1
  Cl  Cl44  1  0.52325000  0.00000000  0.10220800  1
  Cl  Cl45  1  0.47675000  0.00000000  0.60220800  1
  Cl  Cl46  1  0.30769500  0.00000000  0.88879000  1
  Cl  Cl47  1  0.69230500  0.00000000  0.38879000  1
  Cl  Cl48  1  0.99062700  0.74238200  0.08842700  1
  Cl  Cl49  1  0.00937300  0.25761800  0.58842700  1
  Cl  Cl50  1  0.00937300  0.74238200  0.58842700  1
  Cl  Cl51  1  0.99062700  0.25761800  0.08842700  1
  Cl  Cl52  1  0.83971900  0.72495500  0.86268700  1
  Cl  Cl53  1  0.16028100  0.27504500  0.36268700  1
  Cl  Cl54  1  0.16028100  0.72495500  0.36268700  1
  Cl  Cl55  1  0.83971900  0.27504500  0.86268700  1
  Cl  Cl56  1  0.75624200  0.64786900  0.11020000  1
  Cl  Cl57  1  0.24375800  0.35213100  0.61020000  1
  Cl  Cl58  1  0.24375800  0.64786900  0.61020000  1
  Cl  Cl59  1  0.75624200  0.35213100  0.11020000  1
  Cl  Cl60  1  0.50049300  0.50000000  0.61036700  1
  Cl  Cl61  1  0.49950700  0.50000000  0.11036700  1
  Cl  Cl62  1  0.06526350  0.10939650  0.83306300  1
  Cl  Cl63  1  0.93473650  0.89060350  0.33306300  1
  Cl  Cl64  1  0.93473650  0.10939650  0.33306300  1
  Cl  Cl65  1  0.06526350  0.89060350  0.83306300  1
  Cl  Cl66  1  0.25020850  0.39766050  0.08581900  1
  Cl  Cl67  1  0.74979150  0.60233950  0.58581900  1
  Cl  Cl68  1  0.74979150  0.39766050  0.58581900  1
  Cl  Cl69  1  0.25020850  0.60233950  0.08581900  1
  Cl  Cl70  1  0.29576900  0.50000000  0.85279500  1
  Cl  Cl71  1  0.70423100  0.50000000  0.35279500  1
  Cl  Cl72  1  0.08026400  0.60660400  0.87877100  1
  Cl  Cl73  1  0.91973600  0.39339600  0.37877100  1
  Cl  Cl74  1  0.91973600  0.60660400  0.37877100  1
  Cl  Cl75  1  0.08026400  0.39339600  0.87877100  1
  Cl  Cl76  1  0.02325000  0.50000000  0.10220800  1
  Cl  Cl77  1  0.97675000  0.50000000  0.60220800  1
  Cl  Cl78  1  0.80769500  0.50000000  0.88879000  1
  Cl  Cl79  1  0.19230500  0.50000000  0.38879000  1
