# generated using pymatgen
data_Tb3Si2Cl5O6
_symmetry_space_group_name_H-M   'P 1'
_cell_length_a   10.69113800
_cell_length_b   10.47209600
_cell_length_c   11.77357766
_cell_angle_alpha   90.00000000
_cell_angle_beta   103.18398170
_cell_angle_gamma   90.00000000
_symmetry_Int_Tables_number   1
_chemical_formula_structural   Tb3Si2Cl5O6
_chemical_formula_sum   'Tb12 Si8 Cl20 O24'
_cell_volume   1283.41058634
_cell_formula_units_Z   4
loop_
 _symmetry_equiv_pos_site_id
 _symmetry_equiv_pos_as_xyz
  1  'x, y, z'
loop_
 _atom_site_type_symbol
 _atom_site_label
 _atom_site_symmetry_multiplicity
 _atom_site_fract_x
 _atom_site_fract_y
 _atom_site_fract_z
 _atom_site_occupancy
  Tb  Tb0  1  0.83289300  0.75106100  0.33040000  1
  Tb  Tb1  1  0.16710700  0.24893900  0.66960000  1
  Tb  Tb2  1  0.25000000  0.75000000  0.00000000  1
  Tb  Tb3  1  0.83289300  0.24893900  0.33040000  1
  Tb  Tb4  1  0.75000000  0.75000000  0.00000000  1
  Tb  Tb5  1  0.16710700  0.75106100  0.66960000  1
  Tb  Tb6  1  0.33289300  0.25106100  0.33040000  1
  Tb  Tb7  1  0.66710700  0.74893900  0.66960000  1
  Tb  Tb8  1  0.75000000  0.25000000  0.00000000  1
  Tb  Tb9  1  0.33289300  0.74893900  0.33040000  1
  Tb  Tb10  1  0.25000000  0.25000000  0.00000000  1
  Tb  Tb11  1  0.66710700  0.25106100  0.66960000  1
  Si  Si12  1  0.96386450  0.85406550  0.85592800  1
  Si  Si13  1  0.03613550  0.14593450  0.14407200  1
  Si  Si14  1  0.96386450  0.14593450  0.85592800  1
  Si  Si15  1  0.03613550  0.85406550  0.14407200  1
  Si  Si16  1  0.46386450  0.35406550  0.85592800  1
  Si  Si17  1  0.53613550  0.64593450  0.14407200  1
  Si  Si18  1  0.46386450  0.64593450  0.85592800  1
  Si  Si19  1  0.53613550  0.35406550  0.14407200  1
  Cl  Cl20  1  0.28065400  0.50000000  0.33872900  1
  Cl  Cl21  1  0.18585900  0.50000000  0.99823500  1
  Cl  Cl22  1  0.71934600  0.50000000  0.66127100  1
  Cl  Cl23  1  0.10556000  0.22186900  0.42085400  1
  Cl  Cl24  1  0.11916200  0.50000000  0.64596600  1
  Cl  Cl25  1  0.89444000  0.77813100  0.57914600  1
  Cl  Cl26  1  0.10556000  0.77813100  0.42085400  1
  Cl  Cl27  1  0.81414100  0.50000000  0.00176500  1
  Cl  Cl28  1  0.88083800  0.50000000  0.35403400  1
  Cl  Cl29  1  0.89444000  0.22186900  0.57914600  1
  Cl  Cl30  1  0.78065400  0.00000000  0.33872900  1
  Cl  Cl31  1  0.68585900  0.00000000  0.99823500  1
  Cl  Cl32  1  0.21934600  0.00000000  0.66127100  1
  Cl  Cl33  1  0.60556000  0.72186900  0.42085400  1
  Cl  Cl34  1  0.61916200  0.00000000  0.64596600  1
  Cl  Cl35  1  0.39444000  0.27813100  0.57914600  1
  Cl  Cl36  1  0.60556000  0.27813100  0.42085400  1
  Cl  Cl37  1  0.31414100  0.00000000  0.00176500  1
  Cl  Cl38  1  0.38083800  0.00000000  0.35403400  1
  Cl  Cl39  1  0.39444000  0.72186900  0.57914600  1
  O  O40  1  0.91218950  0.78095450  0.17192900  1
  O  O41  1  0.08781050  0.21904550  0.82807100  1
  O  O42  1  0.08781050  0.78095450  0.82807100  1
  O  O43  1  0.54762200  0.50000000  0.19340000  1
  O  O44  1  0.82549900  0.21806800  0.82798100  1
  O  O45  1  0.91218950  0.21904550  0.17192900  1
  O  O46  1  0.82549900  0.78193200  0.82798100  1
  O  O47  1  0.00000000  0.85610800  0.00000000  1
  O  O48  1  0.17450100  0.78193200  0.17201900  1
  O  O49  1  0.17450100  0.21806800  0.17201900  1
  O  O50  1  0.45237800  0.50000000  0.80660000  1
  O  O51  1  0.00000000  0.14389200  0.00000000  1
  O  O52  1  0.41218950  0.28095450  0.17192900  1
  O  O53  1  0.58781050  0.71904550  0.82807100  1
  O  O54  1  0.58781050  0.28095450  0.82807100  1
  O  O55  1  0.04762200  0.00000000  0.19340000  1
  O  O56  1  0.32549900  0.71806800  0.82798100  1
  O  O57  1  0.41218950  0.71904550  0.17192900  1
  O  O58  1  0.32549900  0.28193200  0.82798100  1
  O  O59  1  0.50000000  0.35610800  0.00000000  1
  O  O60  1  0.67450100  0.28193200  0.17201900  1
  O  O61  1  0.67450100  0.71806800  0.17201900  1
  O  O62  1  0.95237800  0.00000000  0.80660000  1
  O  O63  1  0.50000000  0.64389200  0.00000000  1
