# generated using pymatgen
data_SiO2
_symmetry_space_group_name_H-M   'P 1'
_cell_length_a   9.08669600
_cell_length_b   10.34344000
_cell_length_c   9.06871300
_cell_angle_alpha   90.00000000
_cell_angle_beta   90.00000000
_cell_angle_gamma   90.00000000
_symmetry_Int_Tables_number   1
_chemical_formula_structural   SiO2
_chemical_formula_sum   'Si16 O32'
_cell_volume   852.34743035
_cell_formula_units_Z   16
loop_
 _symmetry_equiv_pos_site_id
 _symmetry_equiv_pos_as_xyz
  1  'x, y, z'
loop_
 _atom_site_type_symbol
 _atom_site_label
 _atom_site_symmetry_multiplicity
 _atom_site_fract_x
 _atom_site_fract_y
 _atom_site_fract_z
 _atom_site_occupancy
  Si  Si0  1  0.17318000  0.86632200  0.90954400  1
  Si  Si1  1  0.32682000  0.86632200  0.59045600  1
  Si  Si2  1  0.17318000  0.13367800  0.09045600  1
  Si  Si3  1  0.32682000  0.13367800  0.40954400  1
  Si  Si4  1  0.82682000  0.86632200  0.90954400  1
  Si  Si5  1  0.82682000  0.13367800  0.09045600  1
  Si  Si6  1  0.67318000  0.86632200  0.59045600  1
  Si  Si7  1  0.67318000  0.13367800  0.40954400  1
  Si  Si8  1  0.67318000  0.36632200  0.90954400  1
  Si  Si9  1  0.82682000  0.36632200  0.59045600  1
  Si  Si10  1  0.67318000  0.63367800  0.09045600  1
  Si  Si11  1  0.82682000  0.63367800  0.40954400  1
  Si  Si12  1  0.32682000  0.36632200  0.90954400  1
  Si  Si13  1  0.32682000  0.63367800  0.09045600  1
  Si  Si14  1  0.17318000  0.36632200  0.59045600  1
  Si  Si15  1  0.17318000  0.63367800  0.40954400  1
  O  O16  1  0.80692400  0.00000000  0.00000000  1
  O  O17  1  0.75000000  0.11729600  0.25000000  1
  O  O18  1  0.69307600  0.00000000  0.50000000  1
  O  O19  1  0.50000000  0.16696600  0.38672300  1
  O  O20  1  0.25000000  0.11729600  0.25000000  1
  O  O21  1  0.75000000  0.88270400  0.75000000  1
  O  O22  1  0.19307600  0.00000000  0.00000000  1
  O  O23  1  0.25000000  0.88270400  0.75000000  1
  O  O24  1  0.25000000  0.25000000  0.00000000  1
  O  O25  1  0.50000000  0.33303400  0.88672300  1
  O  O26  1  0.50000000  0.83303400  0.61327700  1
  O  O27  1  0.50000000  0.66696600  0.11327700  1
  O  O28  1  0.30692400  0.00000000  0.50000000  1
  O  O29  1  0.25000000  0.75000000  0.00000000  1
  O  O30  1  0.25000000  0.25000000  0.50000000  1
  O  O31  1  0.25000000  0.75000000  0.50000000  1
  O  O32  1  0.30692400  0.50000000  0.00000000  1
  O  O33  1  0.25000000  0.61729600  0.25000000  1
  O  O34  1  0.19307600  0.50000000  0.50000000  1
  O  O35  1  0.00000000  0.66696600  0.38672300  1
  O  O36  1  0.75000000  0.61729600  0.25000000  1
  O  O37  1  0.25000000  0.38270400  0.75000000  1
  O  O38  1  0.69307600  0.50000000  0.00000000  1
  O  O39  1  0.75000000  0.38270400  0.75000000  1
  O  O40  1  0.75000000  0.75000000  0.00000000  1
  O  O41  1  0.00000000  0.83303400  0.88672300  1
  O  O42  1  0.00000000  0.33303400  0.61327700  1
  O  O43  1  0.00000000  0.16696600  0.11327700  1
  O  O44  1  0.80692400  0.50000000  0.50000000  1
  O  O45  1  0.75000000  0.25000000  0.00000000  1
  O  O46  1  0.75000000  0.75000000  0.50000000  1
  O  O47  1  0.75000000  0.25000000  0.50000000  1
