# generated using pymatgen
data_Rb5Tl3O
_symmetry_space_group_name_H-M   'P 1'
_cell_length_a   8.89600000
_cell_length_b   34.58248600
_cell_length_c   9.43854400
_cell_angle_alpha   90.00000000
_cell_angle_beta   90.00000000
_cell_angle_gamma   90.00000000
_symmetry_Int_Tables_number   1
_chemical_formula_structural   Rb5Tl3O
_chemical_formula_sum   'Rb40 Tl24 O8'
_cell_volume   2903.72837683
_cell_formula_units_Z   8
loop_
 _symmetry_equiv_pos_site_id
 _symmetry_equiv_pos_as_xyz
  1  'x, y, z'
loop_
 _atom_site_type_symbol
 _atom_site_label
 _atom_site_symmetry_multiplicity
 _atom_site_fract_x
 _atom_site_fract_y
 _atom_site_fract_z
 _atom_site_occupancy
  Rb  Rb0  1  0.00000000  0.55195800  0.53412600  1
  Rb  Rb1  1  0.77502750  0.73320150  0.25000000  1
  Rb  Rb2  1  0.00000000  0.55195800  0.96587400  1
  Rb  Rb3  1  0.74608000  0.62556300  0.25000000  1
  Rb  Rb4  1  0.72497250  0.76679850  0.75000000  1
  Rb  Rb5  1  0.50000000  0.94804200  0.46587400  1
  Rb  Rb6  1  0.20122450  0.99299650  0.75000000  1
  Rb  Rb7  1  0.24608000  0.87443700  0.75000000  1
  Rb  Rb8  1  0.70122450  0.50700350  0.25000000  1
  Rb  Rb9  1  0.50000000  0.94804200  0.03412600  1
  Rb  Rb10  1  0.00000000  0.67988300  0.53351200  1
  Rb  Rb11  1  0.50000000  0.82011700  0.46648800  1
  Rb  Rb12  1  0.25392000  0.62556300  0.25000000  1
  Rb  Rb13  1  0.50000000  0.82011700  0.03351200  1
  Rb  Rb14  1  0.27502750  0.76679850  0.75000000  1
  Rb  Rb15  1  0.75392000  0.87443700  0.75000000  1
  Rb  Rb16  1  0.79877550  0.99299650  0.75000000  1
  Rb  Rb17  1  0.00000000  0.67988300  0.96648800  1
  Rb  Rb18  1  0.29877550  0.50700350  0.25000000  1
  Rb  Rb19  1  0.22497250  0.73320150  0.25000000  1
  Rb  Rb20  1  0.50000000  0.05195800  0.53412600  1
  Rb  Rb21  1  0.27502750  0.23320150  0.25000000  1
  Rb  Rb22  1  0.50000000  0.05195800  0.96587400  1
  Rb  Rb23  1  0.24608000  0.12556300  0.25000000  1
  Rb  Rb24  1  0.22497250  0.26679850  0.75000000  1
  Rb  Rb25  1  0.00000000  0.44804200  0.46587400  1
  Rb  Rb26  1  0.70122450  0.49299650  0.75000000  1
  Rb  Rb27  1  0.74608000  0.37443700  0.75000000  1
  Rb  Rb28  1  0.20122450  0.00700350  0.25000000  1
  Rb  Rb29  1  0.00000000  0.44804200  0.03412600  1
  Rb  Rb30  1  0.50000000  0.17988300  0.53351200  1
  Rb  Rb31  1  0.00000000  0.32011700  0.46648800  1
  Rb  Rb32  1  0.75392000  0.12556300  0.25000000  1
  Rb  Rb33  1  0.00000000  0.32011700  0.03351200  1
  Rb  Rb34  1  0.77502750  0.26679850  0.75000000  1
  Rb  Rb35  1  0.25392000  0.37443700  0.75000000  1
  Rb  Rb36  1  0.29877550  0.49299650  0.75000000  1
  Rb  Rb37  1  0.50000000  0.17988300  0.96648800  1
  Rb  Rb38  1  0.79877550  0.00700350  0.25000000  1
  Rb  Rb39  1  0.72497250  0.23320150  0.25000000  1
  Tl  Tl40  1  0.70407150  0.62743250  0.75000000  1
  Tl  Tl41  1  0.50000000  0.68377200  0.56260500  1
  Tl  Tl42  1  0.79592850  0.87256750  0.25000000  1
  Tl  Tl43  1  0.00000000  0.92163600  0.45139900  1
  Tl  Tl44  1  0.20407150  0.87256750  0.25000000  1
  Tl  Tl45  1  0.00000000  0.81622800  0.06260500  1
  Tl  Tl46  1  0.00000000  0.81622800  0.43739500  1
  Tl  Tl47  1  0.50000000  0.57836400  0.95139900  1
  Tl  Tl48  1  0.00000000  0.92163600  0.04860100  1
  Tl  Tl49  1  0.50000000  0.57836400  0.54860100  1
  Tl  Tl50  1  0.50000000  0.68377200  0.93739500  1
  Tl  Tl51  1  0.29592850  0.62743250  0.75000000  1
  Tl  Tl52  1  0.20407150  0.12743250  0.75000000  1
  Tl  Tl53  1  0.00000000  0.18377200  0.56260500  1
  Tl  Tl54  1  0.29592850  0.37256750  0.25000000  1
  Tl  Tl55  1  0.50000000  0.42163600  0.45139900  1
  Tl  Tl56  1  0.70407150  0.37256750  0.25000000  1
  Tl  Tl57  1  0.50000000  0.31622800  0.06260500  1
  Tl  Tl58  1  0.50000000  0.31622800  0.43739500  1
  Tl  Tl59  1  0.00000000  0.07836400  0.95139900  1
  Tl  Tl60  1  0.50000000  0.42163600  0.04860100  1
  Tl  Tl61  1  0.00000000  0.07836400  0.54860100  1
  Tl  Tl62  1  0.00000000  0.18377200  0.93739500  1
  Tl  Tl63  1  0.79592850  0.12743250  0.75000000  1
  O  O64  1  0.50000000  0.82603500  0.75000000  1
  O  O65  1  0.00000000  0.51371200  0.25000000  1
  O  O66  1  0.00000000  0.67396500  0.25000000  1
  O  O67  1  0.50000000  0.98628800  0.75000000  1
  O  O68  1  0.00000000  0.32603500  0.75000000  1
  O  O69  1  0.50000000  0.01371200  0.25000000  1
  O  O70  1  0.50000000  0.17396500  0.25000000  1
  O  O71  1  0.00000000  0.48628800  0.75000000  1
