# generated using pymatgen
data_Sr2CuF6
_symmetry_space_group_name_H-M   'P 1'
_cell_length_a   5.81286000
_cell_length_b   5.81286000
_cell_length_c   16.58480300
_cell_angle_alpha   90.00000000
_cell_angle_beta   90.00000000
_cell_angle_gamma   90.00000000
_symmetry_Int_Tables_number   1
_chemical_formula_structural   Sr2CuF6
_chemical_formula_sum   'Sr8 Cu4 F24'
_cell_volume   560.38957028
_cell_formula_units_Z   4
loop_
 _symmetry_equiv_pos_site_id
 _symmetry_equiv_pos_as_xyz
  1  'x, y, z'
loop_
 _atom_site_type_symbol
 _atom_site_label
 _atom_site_symmetry_multiplicity
 _atom_site_fract_x
 _atom_site_fract_y
 _atom_site_fract_z
 _atom_site_occupancy
  Sr  Sr0  1  0.00000000  0.50000000  0.16240000  1
  Sr  Sr1  1  0.50000000  0.00000000  0.83760000  1
  Sr  Sr2  1  0.00000000  0.50000000  0.83760000  1
  Sr  Sr3  1  0.50000000  0.00000000  0.16240000  1
  Sr  Sr4  1  0.00000000  0.00000000  0.33858700  1
  Sr  Sr5  1  0.00000000  0.00000000  0.66141300  1
  Sr  Sr6  1  0.50000000  0.50000000  0.66141300  1
  Sr  Sr7  1  0.50000000  0.50000000  0.33858700  1
  Cu  Cu8  1  0.00000000  0.00000000  0.00000000  1
  Cu  Cu9  1  0.50000000  0.50000000  0.00000000  1
  Cu  Cu10  1  0.00000000  0.50000000  0.50000000  1
  Cu  Cu11  1  0.50000000  0.00000000  0.50000000  1
  F  F12  1  0.32760600  0.32803100  0.08064200  1
  F  F13  1  0.32803100  0.67239400  0.91935800  1
  F  F14  1  0.67196900  0.32760600  0.91935800  1
  F  F15  1  0.67239400  0.67196900  0.08064200  1
  F  F16  1  0.82803100  0.82760600  0.91935800  1
  F  F17  1  0.17196900  0.17239400  0.91935800  1
  F  F18  1  0.17239400  0.82803100  0.08064200  1
  F  F19  1  0.82760600  0.17196900  0.08064200  1
  F  F20  1  0.24220100  0.25085900  0.25050200  1
  F  F21  1  0.25085900  0.75779900  0.74949800  1
  F  F22  1  0.74914100  0.24220100  0.74949800  1
  F  F23  1  0.75779900  0.74914100  0.25050200  1
  F  F24  1  0.75085900  0.74220100  0.74949800  1
  F  F25  1  0.24914100  0.25779900  0.74949800  1
  F  F26  1  0.25779900  0.75085900  0.25050200  1
  F  F27  1  0.74220100  0.24914100  0.25050200  1
  F  F28  1  0.33489400  0.16694300  0.41892500  1
  F  F29  1  0.16694300  0.66510600  0.58107500  1
  F  F30  1  0.83305700  0.33489400  0.58107500  1
  F  F31  1  0.66510600  0.83305700  0.41892500  1
  F  F32  1  0.66694300  0.83489400  0.58107500  1
  F  F33  1  0.33305700  0.16510600  0.58107500  1
  F  F34  1  0.16510600  0.66694300  0.41892500  1
  F  F35  1  0.83489400  0.33305700  0.41892500  1
