# generated using pymatgen
data_PNClF
_symmetry_space_group_name_H-M   'P 1'
_cell_length_a   9.95901000
_cell_length_b   12.91383200
_cell_length_c   7.96907300
_cell_angle_alpha   90.00000000
_cell_angle_beta   90.00000000
_cell_angle_gamma   90.00000000
_symmetry_Int_Tables_number   1
_chemical_formula_structural   PNClF
_chemical_formula_sum   'P12 N12 Cl12 F12'
_cell_volume   1024.89436622
_cell_formula_units_Z   12
loop_
 _symmetry_equiv_pos_site_id
 _symmetry_equiv_pos_as_xyz
  1  'x, y, z'
loop_
 _atom_site_type_symbol
 _atom_site_label
 _atom_site_symmetry_multiplicity
 _atom_site_fract_x
 _atom_site_fract_y
 _atom_site_fract_z
 _atom_site_occupancy
  P  P0  1  0.67186900  0.00000000  0.75928100  1
  P  P1  1  0.19294050  0.10695850  0.01200000  1
  P  P2  1  0.80705950  0.89304150  0.51200000  1
  P  P3  1  0.80705950  0.10695850  0.51200000  1
  P  P4  1  0.19294050  0.89304150  0.01200000  1
  P  P5  1  0.32813100  0.00000000  0.25928100  1
  P  P6  1  0.17186900  0.50000000  0.75928100  1
  P  P7  1  0.69294050  0.60695850  0.01200000  1
  P  P8  1  0.30705950  0.39304150  0.51200000  1
  P  P9  1  0.30705950  0.60695850  0.51200000  1
  P  P10  1  0.69294050  0.39304150  0.01200000  1
  P  P11  1  0.82813100  0.50000000  0.25928100  1
  N  N12  1  0.70868300  0.89414200  0.66905400  1
  N  N13  1  0.29131700  0.10585800  0.16905400  1
  N  N14  1  0.85541000  0.00000000  0.43377500  1
  N  N15  1  0.70868300  0.10585800  0.66905400  1
  N  N16  1  0.29131700  0.89414200  0.16905400  1
  N  N17  1  0.14459000  0.00000000  0.93377500  1
  N  N18  1  0.20868300  0.39414200  0.66905400  1
  N  N19  1  0.79131700  0.60585800  0.16905400  1
  N  N20  1  0.35541000  0.50000000  0.43377500  1
  N  N21  1  0.20868300  0.60585800  0.66905400  1
  N  N22  1  0.79131700  0.39414200  0.16905400  1
  N  N23  1  0.64459000  0.50000000  0.93377500  1
  Cl  Cl24  1  0.73682600  0.00000000  0.99652800  1
  Cl  Cl25  1  0.46420350  0.30129350  0.55632400  1
  Cl  Cl26  1  0.53579650  0.30129350  0.05632400  1
  Cl  Cl27  1  0.53579650  0.69870650  0.05632400  1
  Cl  Cl28  1  0.26317400  0.00000000  0.49652800  1
  Cl  Cl29  1  0.46420350  0.69870650  0.55632400  1
  Cl  Cl30  1  0.23682600  0.50000000  0.99652800  1
  Cl  Cl31  1  0.96420350  0.80129350  0.55632400  1
  Cl  Cl32  1  0.03579650  0.80129350  0.05632400  1
  Cl  Cl33  1  0.03579650  0.19870650  0.05632400  1
  Cl  Cl34  1  0.76317400  0.50000000  0.49652800  1
  Cl  Cl35  1  0.96420350  0.19870650  0.55632400  1
  F  F36  1  0.26368600  0.82951200  0.86931100  1
  F  F37  1  0.73631400  0.17048800  0.36931100  1
  F  F38  1  0.73631400  0.82951200  0.36931100  1
  F  F39  1  0.48366300  0.00000000  0.29123500  1
  F  F40  1  0.51633700  0.00000000  0.79123500  1
  F  F41  1  0.26368600  0.17048800  0.86931100  1
  F  F42  1  0.76368600  0.32951200  0.86931100  1
  F  F43  1  0.23631400  0.67048800  0.36931100  1
  F  F44  1  0.23631400  0.32951200  0.36931100  1
  F  F45  1  0.98366300  0.50000000  0.29123500  1
  F  F46  1  0.01633700  0.50000000  0.79123500  1
  F  F47  1  0.76368600  0.67048800  0.86931100  1
