# generated using pymatgen
data_SiO2
_symmetry_space_group_name_H-M   'P 1'
_cell_length_a   5.12672200
_cell_length_b   12.94689019
_cell_length_c   14.97058507
_cell_angle_alpha   103.37014659
_cell_angle_beta   90.46161794
_cell_angle_gamma   100.75121977
_symmetry_Int_Tables_number   1
_chemical_formula_structural   SiO2
_chemical_formula_sum   'Si16 O32'
_cell_volume   948.40908691
_cell_formula_units_Z   16
loop_
 _symmetry_equiv_pos_site_id
 _symmetry_equiv_pos_as_xyz
  1  'x, y, z'
loop_
 _atom_site_type_symbol
 _atom_site_label
 _atom_site_symmetry_multiplicity
 _atom_site_fract_x
 _atom_site_fract_y
 _atom_site_fract_z
 _atom_site_occupancy
  Si  Si0  1  0.88755500  0.89822000  0.35702800  1
  Si  Si1  1  0.69513800  0.27735900  0.42228200  1
  Si  Si2  1  0.67807100  0.44360700  0.30542400  1
  Si  Si3  1  0.66843000  0.38763500  0.90587200  1
  Si  Si4  1  0.33157000  0.61236500  0.09412800  1
  Si  Si5  1  0.23226600  0.52614100  0.89077600  1
  Si  Si6  1  0.11244500  0.10178000  0.64297200  1
  Si  Si7  1  0.76773400  0.47385900  0.10922400  1
  Si  Si8  1  0.66555000  0.22091400  0.72896400  1
  Si  Si9  1  0.30486200  0.72264100  0.57771800  1
  Si  Si10  1  0.86440600  0.85722500  0.56161800  1
  Si  Si11  1  0.75353700  0.41600400  0.62602200  1
  Si  Si12  1  0.13559400  0.14277500  0.43838200  1
  Si  Si13  1  0.24646300  0.58399600  0.37397800  1
  Si  Si14  1  0.33445000  0.77908600  0.27103600  1
  Si  Si15  1  0.32192900  0.55639300  0.69457600  1
  O  O16  1  0.08352800  0.52719500  0.11996400  1
  O  O17  1  0.34982400  0.73242300  0.16061100  1
  O  O18  1  0.59252400  0.51262800  0.66358500  1
  O  O19  1  0.33700900  0.68200200  0.32318300  1
  O  O20  1  0.69023300  0.41759300  0.19395800  1
  O  O21  1  0.92976200  0.53670600  0.35441800  1
  O  O22  1  0.67664400  0.33057800  0.33490800  1
  O  O23  1  0.65017600  0.26757700  0.83938900  1
  O  O24  1  0.97094100  0.23227200  0.42004500  1
  O  O25  1  0.40747600  0.48737200  0.33641500  1
  O  O26  1  0.07023800  0.46329400  0.64558200  1
  O  O27  1  0.93712900  0.17371700  0.71237100  1
  O  O28  1  0.70248000  0.38125100  0.01290300  1
  O  O29  1  0.98649000  0.97427000  0.62871200  1
  O  O30  1  0.29752000  0.61874900  0.98709700  1
  O  O31  1  0.39566000  0.42956400  0.89007400  1
  O  O32  1  0.69048900  0.37070400  0.51592200  1
  O  O33  1  0.01351000  0.02573000  0.37128800  1
  O  O34  1  0.11644800  0.13638200  0.54529300  1
  O  O35  1  0.32335600  0.66942200  0.66509200  1
  O  O36  1  0.55475300  0.82269600  0.58381100  1
  O  O37  1  0.44524700  0.17730400  0.41618900  1
  O  O38  1  0.91647200  0.47280500  0.88003600  1
  O  O39  1  0.88355200  0.86361800  0.45470700  1
  O  O40  1  0.41247500  0.12417400  0.68880500  1
  O  O41  1  0.60434000  0.57043600  0.10992600  1
  O  O42  1  0.06287100  0.82628300  0.28762900  1
  O  O43  1  0.02905900  0.76772800  0.57995500  1
  O  O44  1  0.30951100  0.62929600  0.48407800  1
  O  O45  1  0.66299100  0.31799800  0.67681700  1
  O  O46  1  0.58752500  0.87582600  0.31119500  1
  O  O47  1  0.30976700  0.58240700  0.80604200  1
