# generated using pymatgen
data_Sr9Zn4(CuO7)2
_symmetry_space_group_name_H-M   'P 1'
_cell_length_a   22.38462200
_cell_length_b   3.64857600
_cell_length_c   11.43249847
_cell_angle_alpha   90.00000000
_cell_angle_beta   98.59446211
_cell_angle_gamma   90.00000000
_symmetry_Int_Tables_number   1
_chemical_formula_structural   Sr9Zn4(CuO7)2
_chemical_formula_sum   'Sr18 Zn8 Cu4 O28'
_cell_volume   923.23010925
_cell_formula_units_Z   2
loop_
 _symmetry_equiv_pos_site_id
 _symmetry_equiv_pos_as_xyz
  1  'x, y, z'
loop_
 _atom_site_type_symbol
 _atom_site_label
 _atom_site_symmetry_multiplicity
 _atom_site_fract_x
 _atom_site_fract_y
 _atom_site_fract_z
 _atom_site_occupancy
  Sr  Sr0  1  0.69355000  0.00000000  0.57019900  1
  Sr  Sr1  1  0.68724900  0.00000000  0.89779500  1
  Sr  Sr2  1  0.68647100  0.00000000  0.22514700  1
  Sr  Sr3  1  0.81352900  0.50000000  0.77485300  1
  Sr  Sr4  1  0.50946700  0.00000000  0.80757700  1
  Sr  Sr5  1  0.00000000  0.50000000  0.50000000  1
  Sr  Sr6  1  0.80645000  0.50000000  0.42980100  1
  Sr  Sr7  1  0.99053300  0.50000000  0.19242300  1
  Sr  Sr8  1  0.81275100  0.50000000  0.10220500  1
  Sr  Sr9  1  0.19355000  0.50000000  0.57019900  1
  Sr  Sr10  1  0.18724900  0.50000000  0.89779500  1
  Sr  Sr11  1  0.18647100  0.50000000  0.22514700  1
  Sr  Sr12  1  0.31352900  0.00000000  0.77485300  1
  Sr  Sr13  1  0.00946700  0.50000000  0.80757700  1
  Sr  Sr14  1  0.50000000  0.00000000  0.50000000  1
  Sr  Sr15  1  0.30645000  0.00000000  0.42980100  1
  Sr  Sr16  1  0.49053300  0.00000000  0.19242300  1
  Sr  Sr17  1  0.31275100  0.00000000  0.10220500  1
  Zn  Zn18  1  0.88966300  0.00000000  0.29731600  1
  Zn  Zn19  1  0.89746800  0.00000000  0.96101800  1
  Zn  Zn20  1  0.60253200  0.50000000  0.03898200  1
  Zn  Zn21  1  0.61033700  0.50000000  0.70268400  1
  Zn  Zn22  1  0.38966300  0.50000000  0.29731600  1
  Zn  Zn23  1  0.39746800  0.50000000  0.96101800  1
  Zn  Zn24  1  0.10253200  0.00000000  0.03898200  1
  Zn  Zn25  1  0.11033700  0.00000000  0.70268400  1
  Cu  Cu26  1  0.60647200  0.50000000  0.37595300  1
  Cu  Cu27  1  0.89352800  0.00000000  0.62404700  1
  Cu  Cu28  1  0.10647200  0.00000000  0.37595300  1
  Cu  Cu29  1  0.39352800  0.50000000  0.62404700  1
  O  O30  1  0.70303300  0.50000000  0.73110400  1
  O  O31  1  0.80282800  0.00000000  0.92991800  1
  O  O32  1  0.97515800  0.00000000  0.64972800  1
  O  O33  1  0.58803200  0.50000000  0.86446200  1
  O  O34  1  0.80954300  0.00000000  0.59851400  1
  O  O35  1  0.59377000  0.00000000  0.64064500  1
  O  O36  1  0.69717200  0.50000000  0.07008200  1
  O  O37  1  0.79696700  0.00000000  0.26889600  1
  O  O38  1  0.91899500  0.50000000  0.90596900  1
  O  O39  1  0.69045700  0.50000000  0.40148600  1
  O  O40  1  0.52484200  0.50000000  0.35027200  1
  O  O41  1  0.58100500  0.00000000  0.09403100  1
  O  O42  1  0.91196800  0.00000000  0.13553800  1
  O  O43  1  0.90623000  0.50000000  0.35935500  1
  O  O44  1  0.20303300  0.00000000  0.73110400  1
  O  O45  1  0.30282800  0.50000000  0.92991800  1
  O  O46  1  0.47515800  0.50000000  0.64972800  1
  O  O47  1  0.08803200  0.00000000  0.86446200  1
  O  O48  1  0.30954300  0.50000000  0.59851400  1
  O  O49  1  0.09377000  0.50000000  0.64064500  1
  O  O50  1  0.19717200  0.00000000  0.07008200  1
  O  O51  1  0.29696700  0.50000000  0.26889600  1
  O  O52  1  0.41899500  0.00000000  0.90596900  1
  O  O53  1  0.19045700  0.00000000  0.40148600  1
  O  O54  1  0.02484200  0.00000000  0.35027200  1
  O  O55  1  0.08100500  0.50000000  0.09403100  1
  O  O56  1  0.41196800  0.50000000  0.13553800  1
  O  O57  1  0.40623000  0.00000000  0.35935500  1
