# generated using pymatgen
data_Th3Sb4
_symmetry_space_group_name_H-M   'P 1'
_cell_length_a   9.45219000
_cell_length_b   9.45219000
_cell_length_c   9.45219000
_cell_angle_alpha   90.00000000
_cell_angle_beta   90.00000000
_cell_angle_gamma   90.00000000
_symmetry_Int_Tables_number   1
_chemical_formula_structural   Th3Sb4
_chemical_formula_sum   'Th12 Sb16'
_cell_volume   844.49547840
_cell_formula_units_Z   4
loop_
 _symmetry_equiv_pos_site_id
 _symmetry_equiv_pos_as_xyz
  1  'x, y, z'
loop_
 _atom_site_type_symbol
 _atom_site_label
 _atom_site_symmetry_multiplicity
 _atom_site_fract_x
 _atom_site_fract_y
 _atom_site_fract_z
 _atom_site_occupancy
  Th  Th0  1  0.00000000  0.75000000  0.12500000  1
  Th  Th1  1  0.25000000  0.37500000  0.00000000  1
  Th  Th2  1  0.75000000  0.12500000  0.00000000  1
  Th  Th3  1  0.12500000  0.00000000  0.75000000  1
  Th  Th4  1  0.37500000  0.00000000  0.25000000  1
  Th  Th5  1  0.00000000  0.25000000  0.37500000  1
  Th  Th6  1  0.50000000  0.25000000  0.62500000  1
  Th  Th7  1  0.75000000  0.87500000  0.50000000  1
  Th  Th8  1  0.25000000  0.62500000  0.50000000  1
  Th  Th9  1  0.62500000  0.50000000  0.25000000  1
  Th  Th10  1  0.87500000  0.50000000  0.75000000  1
  Th  Th11  1  0.50000000  0.75000000  0.87500000  1
  Sb  Sb12  1  0.32990750  0.32990750  0.32990750  1
  Sb  Sb13  1  0.92009250  0.42009250  0.07990750  1
  Sb  Sb14  1  0.42009250  0.07990750  0.92009250  1
  Sb  Sb15  1  0.07990750  0.92009250  0.42009250  1
  Sb  Sb16  1  0.67009250  0.82990750  0.17009250  1
  Sb  Sb17  1  0.82990750  0.17009250  0.67009250  1
  Sb  Sb18  1  0.07990750  0.07990750  0.07990750  1
  Sb  Sb19  1  0.17009250  0.67009250  0.82990750  1
  Sb  Sb20  1  0.82990750  0.82990750  0.82990750  1
  Sb  Sb21  1  0.42009250  0.92009250  0.57990750  1
  Sb  Sb22  1  0.92009250  0.57990750  0.42009250  1
  Sb  Sb23  1  0.57990750  0.42009250  0.92009250  1
  Sb  Sb24  1  0.17009250  0.32990750  0.67009250  1
  Sb  Sb25  1  0.32990750  0.67009250  0.17009250  1
  Sb  Sb26  1  0.57990750  0.57990750  0.57990750  1
  Sb  Sb27  1  0.67009250  0.17009250  0.32990750  1
