# generated using pymatgen
data_SiO2
_symmetry_space_group_name_H-M   'P 1'
_cell_length_a   7.04709200
_cell_length_b   8.27532800
_cell_length_c   6.82387031
_cell_angle_alpha   90.00000000
_cell_angle_beta   116.52979197
_cell_angle_gamma   90.00000000
_symmetry_Int_Tables_number   1
_chemical_formula_structural   SiO2
_chemical_formula_sum   'Si8 O16'
_cell_volume   356.04463248
_cell_formula_units_Z   8
loop_
 _symmetry_equiv_pos_site_id
 _symmetry_equiv_pos_as_xyz
  1  'x, y, z'
loop_
 _atom_site_type_symbol
 _atom_site_label
 _atom_site_symmetry_multiplicity
 _atom_site_fract_x
 _atom_site_fract_y
 _atom_site_fract_z
 _atom_site_occupancy
  Si  Si0  1  0.20469500  0.00139500  0.22043900  1
  Si  Si1  1  0.60767300  0.81761300  0.37093800  1
  Si  Si2  1  0.39232700  0.81761300  0.62906200  1
  Si  Si3  1  0.79530500  0.00139500  0.77956100  1
  Si  Si4  1  0.70469500  0.50139500  0.22043900  1
  Si  Si5  1  0.10767300  0.31761300  0.37093800  1
  Si  Si6  1  0.89232700  0.31761300  0.62906200  1
  Si  Si7  1  0.29530500  0.50139500  0.77956100  1
  O  O8  1  0.30382950  0.69896250  0.75907900  1
  O  O9  1  0.80010050  0.92027150  0.56232100  1
  O  O10  1  0.19989950  0.92027150  0.43767900  1
  O  O11  1  0.50000000  0.44314700  0.00000000  1
  O  O12  1  0.42286150  0.94416050  0.20779900  1
  O  O13  1  0.57713850  0.94416050  0.79220100  1
  O  O14  1  0.50000000  0.71179700  0.50000000  1
  O  O15  1  0.69617050  0.69896250  0.24092100  1
  O  O16  1  0.80382950  0.19896250  0.75907900  1
  O  O17  1  0.30010050  0.42027150  0.56232100  1
  O  O18  1  0.69989950  0.42027150  0.43767900  1
  O  O19  1  0.00000000  0.94314700  0.00000000  1
  O  O20  1  0.92286150  0.44416050  0.20779900  1
  O  O21  1  0.07713850  0.44416050  0.79220100  1
  O  O22  1  0.00000000  0.21179700  0.50000000  1
  O  O23  1  0.19617050  0.19896250  0.24092100  1
