# generated using pymatgen
data_InAg3(PO4)2
_symmetry_space_group_name_H-M   'P 1'
_cell_length_a   8.84059000
_cell_length_b   5.60994600
_cell_length_c   7.45724286
_cell_angle_alpha   90.00000000
_cell_angle_beta   94.19225742
_cell_angle_gamma   90.00000000
_symmetry_Int_Tables_number   1
_chemical_formula_structural   InAg3(PO4)2
_chemical_formula_sum   'In2 Ag6 P4 O16'
_cell_volume   368.85412678
_cell_formula_units_Z   2
loop_
 _symmetry_equiv_pos_site_id
 _symmetry_equiv_pos_as_xyz
  1  'x, y, z'
loop_
 _atom_site_type_symbol
 _atom_site_label
 _atom_site_symmetry_multiplicity
 _atom_site_fract_x
 _atom_site_fract_y
 _atom_site_fract_z
 _atom_site_occupancy
  In  In0  1  0.00000000  0.00000000  0.00000000  1
  In  In1  1  0.50000000  0.50000000  0.00000000  1
  Ag  Ag2  1  0.66833600  0.00000000  0.67930600  1
  Ag  Ag3  1  0.33166400  0.00000000  0.32069400  1
  Ag  Ag4  1  0.00000000  0.00000000  0.50000000  1
  Ag  Ag5  1  0.16833600  0.50000000  0.67930600  1
  Ag  Ag6  1  0.83166400  0.50000000  0.32069400  1
  Ag  Ag7  1  0.50000000  0.50000000  0.50000000  1
  P  P8  1  0.33868600  0.00000000  0.79050300  1
  P  P9  1  0.66131400  0.00000000  0.20949700  1
  P  P10  1  0.83868600  0.50000000  0.79050300  1
  P  P11  1  0.16131400  0.50000000  0.20949700  1
  O  O12  1  0.75594100  0.00000000  0.39291200  1
  O  O13  1  0.23736100  0.00000000  0.94957900  1
  O  O14  1  0.55450950  0.77522650  0.20338100  1
  O  O15  1  0.44549050  0.77522650  0.79661900  1
  O  O16  1  0.76263900  0.00000000  0.05042100  1
  O  O17  1  0.55450950  0.22477350  0.20338100  1
  O  O18  1  0.44549050  0.22477350  0.79661900  1
  O  O19  1  0.24405900  0.00000000  0.60708800  1
  O  O20  1  0.25594100  0.50000000  0.39291200  1
  O  O21  1  0.73736100  0.50000000  0.94957900  1
  O  O22  1  0.05450950  0.27522650  0.20338100  1
  O  O23  1  0.94549050  0.27522650  0.79661900  1
  O  O24  1  0.26263900  0.50000000  0.05042100  1
  O  O25  1  0.05450950  0.72477350  0.20338100  1
  O  O26  1  0.94549050  0.72477350  0.79661900  1
  O  O27  1  0.74405900  0.50000000  0.60708800  1
