# generated using pymatgen
data_RbErSeCl2O3
_symmetry_space_group_name_H-M   'P 1'
_cell_length_a   6.60624600
_cell_length_b   7.01547300
_cell_length_c   17.58629121
_cell_angle_alpha   90.00000000
_cell_angle_beta   105.30003276
_cell_angle_gamma   90.00000000
_symmetry_Int_Tables_number   1
_chemical_formula_structural   RbErSeCl2O3
_chemical_formula_sum   'Rb4 Er4 Se4 Cl8 O12'
_cell_volume   786.16549257
_cell_formula_units_Z   4
loop_
 _symmetry_equiv_pos_site_id
 _symmetry_equiv_pos_as_xyz
  1  'x, y, z'
loop_
 _atom_site_type_symbol
 _atom_site_label
 _atom_site_symmetry_multiplicity
 _atom_site_fract_x
 _atom_site_fract_y
 _atom_site_fract_z
 _atom_site_occupancy
  Rb  Rb0  1  0.76447200  0.30045800  0.44285200  1
  Rb  Rb1  1  0.76447200  0.19954200  0.94285200  1
  Rb  Rb2  1  0.23552800  0.69954200  0.55714800  1
  Rb  Rb3  1  0.23552800  0.80045800  0.05714800  1
  Er  Er4  1  0.86135800  0.84491600  0.24077900  1
  Er  Er5  1  0.13864200  0.34491600  0.25922100  1
  Er  Er6  1  0.13864200  0.15508400  0.75922100  1
  Er  Er7  1  0.86135800  0.65508400  0.74077900  1
  Se  Se8  1  0.37015800  0.65916800  0.79412900  1
  Se  Se9  1  0.37015800  0.84083200  0.29412900  1
  Se  Se10  1  0.62984200  0.15916800  0.70587100  1
  Se  Se11  1  0.62984200  0.34083200  0.20587100  1
  Cl  Cl12  1  0.24249200  0.13915000  0.91500100  1
  Cl  Cl13  1  0.88783200  0.66012600  0.89286200  1
  Cl  Cl14  1  0.75750800  0.86085000  0.08499900  1
  Cl  Cl15  1  0.75750800  0.63915000  0.58499900  1
  Cl  Cl16  1  0.88783200  0.83987400  0.39286200  1
  Cl  Cl17  1  0.11216800  0.16012600  0.60713800  1
  Cl  Cl18  1  0.11216800  0.33987400  0.10713800  1
  Cl  Cl19  1  0.24249200  0.36085000  0.41500100  1
  O  O20  1  0.82144000  0.33161100  0.74275500  1
  O  O21  1  0.50572700  0.65265700  0.72424000  1
  O  O22  1  0.81581800  0.52152500  0.23496500  1
  O  O23  1  0.81581800  0.97847500  0.73496500  1
  O  O24  1  0.82144000  0.16838900  0.24275500  1
  O  O25  1  0.17856000  0.66838900  0.25724500  1
  O  O26  1  0.18418200  0.47847500  0.76503500  1
  O  O27  1  0.50572700  0.84734300  0.22424000  1
  O  O28  1  0.17856000  0.83161100  0.75724500  1
  O  O29  1  0.18418200  0.02152500  0.26503500  1
  O  O30  1  0.49427300  0.34734300  0.27576000  1
  O  O31  1  0.49427300  0.15265700  0.77576000  1
