# generated using pymatgen
data_AlPO4
_symmetry_space_group_name_H-M   'P 1'
_cell_length_a   9.03571600
_cell_length_b   10.20868700
_cell_length_c   20.05279300
_cell_angle_alpha   90.00000000
_cell_angle_beta   90.00000000
_cell_angle_gamma   90.00000000
_symmetry_Int_Tables_number   1
_chemical_formula_structural   AlPO4
_chemical_formula_sum   'Al16 P16 O64'
_cell_volume   1849.72570325
_cell_formula_units_Z   16
loop_
 _symmetry_equiv_pos_site_id
 _symmetry_equiv_pos_as_xyz
  1  'x, y, z'
loop_
 _atom_site_type_symbol
 _atom_site_label
 _atom_site_symmetry_multiplicity
 _atom_site_fract_x
 _atom_site_fract_y
 _atom_site_fract_z
 _atom_site_occupancy
  Al  Al0  1  0.86149000  0.34674900  0.45250000  1
  Al  Al1  1  0.63851000  0.84674900  0.54750000  1
  Al  Al2  1  0.69569600  0.57997300  0.20507000  1
  Al  Al3  1  0.80430400  0.57997300  0.70507000  1
  Al  Al4  1  0.69569600  0.07997300  0.29493000  1
  Al  Al5  1  0.19569600  0.42002700  0.29493000  1
  Al  Al6  1  0.80430400  0.07997300  0.79493000  1
  Al  Al7  1  0.13851000  0.65325100  0.54750000  1
  Al  Al8  1  0.30430400  0.42002700  0.79493000  1
  Al  Al9  1  0.36149000  0.15325100  0.45250000  1
  Al  Al10  1  0.30430400  0.92002700  0.70507000  1
  Al  Al11  1  0.13851000  0.15325100  0.95250000  1
  Al  Al12  1  0.86149000  0.84674900  0.04750000  1
  Al  Al13  1  0.19569600  0.92002700  0.20507000  1
  Al  Al14  1  0.36149000  0.65325100  0.04750000  1
  Al  Al15  1  0.63851000  0.34674900  0.95250000  1
  P  P16  1  0.84609900  0.35582100  0.29469500  1
  P  P17  1  0.79391700  0.07782200  0.95275900  1
  P  P18  1  0.70608300  0.57782200  0.04724100  1
  P  P19  1  0.70608300  0.07782200  0.45275900  1
  P  P20  1  0.34609900  0.14417900  0.29469500  1
  P  P21  1  0.29391700  0.92217800  0.54724100  1
  P  P22  1  0.79391700  0.57782200  0.54724100  1
  P  P23  1  0.65390100  0.85582100  0.70530500  1
  P  P24  1  0.20608300  0.42217800  0.45275900  1
  P  P25  1  0.84609900  0.85582100  0.20530500  1
  P  P26  1  0.15390100  0.14417900  0.79469500  1
  P  P27  1  0.20608300  0.92217800  0.04724100  1
  P  P28  1  0.65390100  0.35582100  0.79469500  1
  P  P29  1  0.15390100  0.64417900  0.70530500  1
  P  P30  1  0.29391700  0.42217800  0.95275900  1
  P  P31  1  0.34609900  0.64417900  0.20530500  1
  O  O32  1  0.31017800  0.78657900  0.22458000  1
  O  O33  1  0.75308700  0.94756000  0.74576500  1
  O  O34  1  0.68982200  0.21342100  0.77542000  1
  O  O35  1  0.22063700  0.46197900  0.37903700  1
  O  O36  1  0.24691300  0.55244000  0.24576500  1
  O  O37  1  0.55077600  0.13393000  0.46608600  1
  O  O38  1  0.24691300  0.05244000  0.25423500  1
  O  O39  1  0.27936300  0.96197900  0.62096300  1
  O  O40  1  0.68640400  0.87864600  0.63069000  1
  O  O41  1  0.82102800  0.68290900  0.02892800  1
  O  O42  1  0.17897200  0.81709100  0.52892800  1
  O  O43  1  0.81359600  0.37864600  0.36931000  1
  O  O44  1  0.99014900  0.11778300  0.77930000  1
  O  O45  1  0.31359600  0.62135400  0.13069000  1
  O  O46  1  0.44922400  0.86607000  0.53391400  1
  O  O47  1  0.50985100  0.11778300  0.27930000  1
  O  O48  1  0.25308700  0.55244000  0.74576500  1
  O  O49  1  0.26554000  0.54339200  0.99623900  1
  O  O50  1  0.44922400  0.36607000  0.96608600  1
  O  O51  1  0.31359600  0.12135400  0.36931000  1
  O  O52  1  0.55077600  0.63393000  0.03391400  1
  O  O53  1  0.77936300  0.53802100  0.62096300  1
  O  O54  1  0.99014900  0.61778300  0.72070000  1
  O  O55  1  0.23446000  0.04339200  0.00376100  1
  O  O56  1  0.76554000  0.45660800  0.50376100  1
  O  O57  1  0.00985100  0.88221700  0.22070000  1
  O  O58  1  0.27936300  0.46197900  0.87903700  1
  O  O59  1  0.18640400  0.62135400  0.63069000  1
  O  O60  1  0.49014900  0.88221700  0.72070000  1
  O  O61  1  0.05077600  0.36607000  0.46608600  1
  O  O62  1  0.94922400  0.63393000  0.53391400  1
  O  O63  1  0.81017800  0.21342100  0.27542000  1
  O  O64  1  0.82102800  0.18290900  0.47107200  1
  O  O65  1  0.67897200  0.18290900  0.97107200  1
  O  O66  1  0.73446000  0.45660800  0.00376100  1
  O  O67  1  0.18640400  0.12135400  0.86931000  1
  O  O68  1  0.05077600  0.86607000  0.03391400  1
  O  O69  1  0.67897200  0.68290900  0.52892800  1
  O  O70  1  0.68640400  0.37864600  0.86931000  1
  O  O71  1  0.23446000  0.54339200  0.49623900  1
  O  O72  1  0.77936300  0.03802100  0.87903700  1
  O  O73  1  0.32102800  0.81709100  0.02892800  1
  O  O74  1  0.75308700  0.44756000  0.75423500  1
  O  O75  1  0.73446000  0.95660800  0.49623900  1
  O  O76  1  0.18982200  0.28657900  0.77542000  1
  O  O77  1  0.72063700  0.03802100  0.37903700  1
  O  O78  1  0.81017800  0.71342100  0.22458000  1
  O  O79  1  0.76554000  0.95660800  0.99623900  1
  O  O80  1  0.81359600  0.87864600  0.13069000  1
  O  O81  1  0.18982200  0.78657900  0.72458000  1
  O  O82  1  0.50985100  0.61778300  0.22070000  1
  O  O83  1  0.74691300  0.94756000  0.24576500  1
  O  O84  1  0.72063700  0.53802100  0.12096300  1
  O  O85  1  0.00985100  0.38221700  0.27930000  1
  O  O86  1  0.49014900  0.38221700  0.77930000  1
  O  O87  1  0.74691300  0.44756000  0.25423500  1
  O  O88  1  0.25308700  0.05244000  0.75423500  1
  O  O89  1  0.22063700  0.96197900  0.12096300  1
  O  O90  1  0.32102800  0.31709100  0.47107200  1
  O  O91  1  0.68982200  0.71342100  0.72458000  1
  O  O92  1  0.17897200  0.31709100  0.97107200  1
  O  O93  1  0.31017800  0.28657900  0.27542000  1
  O  O94  1  0.26554000  0.04339200  0.50376100  1
  O  O95  1  0.94922400  0.13393000  0.96608600  1
