# generated using pymatgen
data_K2YNb5O15
_symmetry_space_group_name_H-M   'P 1'
_cell_length_a   10.47426000
_cell_length_b   15.49576600
_cell_length_c   3.97510100
_cell_angle_alpha   90.00000000
_cell_angle_beta   90.00000000
_cell_angle_gamma   90.00000000
_symmetry_Int_Tables_number   1
_chemical_formula_structural   K2YNb5O15
_chemical_formula_sum   'K4 Y2 Nb10 O30'
_cell_volume   645.18545386
_cell_formula_units_Z   2
loop_
 _symmetry_equiv_pos_site_id
 _symmetry_equiv_pos_as_xyz
  1  'x, y, z'
loop_
 _atom_site_type_symbol
 _atom_site_label
 _atom_site_symmetry_multiplicity
 _atom_site_fract_x
 _atom_site_fract_y
 _atom_site_fract_z
 _atom_site_occupancy
  K  K0  1  0.50000000  0.20194300  0.00000000  1
  K  K1  1  0.50000000  0.79805700  0.00000000  1
  K  K2  1  0.00000000  0.70194300  0.00000000  1
  K  K3  1  0.00000000  0.29805700  0.00000000  1
  Y  Y4  1  0.00000000  0.00000000  0.00000000  1
  Y  Y5  1  0.50000000  0.50000000  0.00000000  1
  Nb  Nb6  1  0.18886050  0.87053050  0.50000000  1
  Nb  Nb7  1  0.18886050  0.12946950  0.50000000  1
  Nb  Nb8  1  0.81113950  0.12946950  0.50000000  1
  Nb  Nb9  1  0.81113950  0.87053050  0.50000000  1
  Nb  Nb10  1  0.50000000  0.00000000  0.50000000  1
  Nb  Nb11  1  0.68886050  0.37053050  0.50000000  1
  Nb  Nb12  1  0.68886050  0.62946950  0.50000000  1
  Nb  Nb13  1  0.31113950  0.62946950  0.50000000  1
  Nb  Nb14  1  0.31113950  0.37053050  0.50000000  1
  Nb  Nb15  1  0.00000000  0.50000000  0.50000000  1
  O  O16  1  0.12732500  0.00000000  0.50000000  1
  O  O17  1  0.50000000  0.33860700  0.50000000  1
  O  O18  1  0.36516300  0.09242600  0.50000000  1
  O  O19  1  0.50000000  0.66139300  0.50000000  1
  O  O20  1  0.87267500  0.00000000  0.50000000  1
  O  O21  1  0.16343700  0.88414200  0.00000000  1
  O  O22  1  0.83656300  0.11585800  0.00000000  1
  O  O23  1  0.63483700  0.09242600  0.50000000  1
  O  O24  1  0.16343700  0.11585800  0.00000000  1
  O  O25  1  0.25000000  0.75000000  0.50000000  1
  O  O26  1  0.36516300  0.90757400  0.50000000  1
  O  O27  1  0.83656300  0.88414200  0.00000000  1
  O  O28  1  0.50000000  0.00000000  0.00000000  1
  O  O29  1  0.63483700  0.90757400  0.50000000  1
  O  O30  1  0.25000000  0.25000000  0.50000000  1
  O  O31  1  0.62732500  0.50000000  0.50000000  1
  O  O32  1  0.00000000  0.83860700  0.50000000  1
  O  O33  1  0.86516300  0.59242600  0.50000000  1
  O  O34  1  0.00000000  0.16139300  0.50000000  1
  O  O35  1  0.37267500  0.50000000  0.50000000  1
  O  O36  1  0.66343700  0.38414200  0.00000000  1
  O  O37  1  0.33656300  0.61585800  0.00000000  1
  O  O38  1  0.13483700  0.59242600  0.50000000  1
  O  O39  1  0.66343700  0.61585800  0.00000000  1
  O  O40  1  0.75000000  0.25000000  0.50000000  1
  O  O41  1  0.86516300  0.40757400  0.50000000  1
  O  O42  1  0.33656300  0.38414200  0.00000000  1
  O  O43  1  0.00000000  0.50000000  0.00000000  1
  O  O44  1  0.13483700  0.40757400  0.50000000  1
  O  O45  1  0.75000000  0.75000000  0.50000000  1
