# generated using pymatgen
data_La2CN3Cl
_symmetry_space_group_name_H-M   'P 1'
_cell_length_a   9.66607800
_cell_length_b   13.47431600
_cell_length_c   3.95928800
_cell_angle_alpha   90.00000000
_cell_angle_beta   90.00000000
_cell_angle_gamma   90.00000000
_symmetry_Int_Tables_number   1
_chemical_formula_structural   La2CN3Cl
_chemical_formula_sum   'La8 C4 N12 Cl4'
_cell_volume   515.67267265
_cell_formula_units_Z   4
loop_
 _symmetry_equiv_pos_site_id
 _symmetry_equiv_pos_as_xyz
  1  'x, y, z'
loop_
 _atom_site_type_symbol
 _atom_site_label
 _atom_site_symmetry_multiplicity
 _atom_site_fract_x
 _atom_site_fract_y
 _atom_site_fract_z
 _atom_site_occupancy
  La  La0  1  0.78734000  0.00000000  0.50000000  1
  La  La1  1  0.50000000  0.86218200  0.00000000  1
  La  La2  1  0.21266000  0.00000000  0.50000000  1
  La  La3  1  0.50000000  0.13781800  0.00000000  1
  La  La4  1  0.28734000  0.50000000  0.50000000  1
  La  La5  1  0.00000000  0.36218200  0.00000000  1
  La  La6  1  0.71266000  0.50000000  0.50000000  1
  La  La7  1  0.00000000  0.63781800  0.00000000  1
  C  C8  1  0.25000000  0.25000000  0.50000000  1
  C  C9  1  0.25000000  0.75000000  0.50000000  1
  C  C10  1  0.75000000  0.75000000  0.50000000  1
  C  C11  1  0.75000000  0.25000000  0.50000000  1
  N  N12  1  0.34431300  0.00000000  0.00000000  1
  N  N13  1  0.65568700  0.00000000  0.00000000  1
  N  N14  1  0.32795000  0.17733300  0.50000000  1
  N  N15  1  0.67205000  0.82266700  0.50000000  1
  N  N16  1  0.67205000  0.17733300  0.50000000  1
  N  N17  1  0.32795000  0.82266700  0.50000000  1
  N  N18  1  0.84431300  0.50000000  0.00000000  1
  N  N19  1  0.15568700  0.50000000  0.00000000  1
  N  N20  1  0.82795000  0.67733300  0.50000000  1
  N  N21  1  0.17205000  0.32266700  0.50000000  1
  N  N22  1  0.17205000  0.67733300  0.50000000  1
  N  N23  1  0.82795000  0.32266700  0.50000000  1
  Cl  Cl24  1  0.50000000  0.37812500  0.00000000  1
  Cl  Cl25  1  0.50000000  0.62187500  0.00000000  1
  Cl  Cl26  1  0.00000000  0.87812500  0.00000000  1
  Cl  Cl27  1  0.00000000  0.12187500  0.00000000  1
