# generated using pymatgen
data_SbCSCl2F9
_symmetry_space_group_name_H-M   'P 1'
_cell_length_a   8.02771600
_cell_length_b   9.80778200
_cell_length_c   12.74986733
_cell_angle_alpha   90.00000000
_cell_angle_beta   100.38230448
_cell_angle_gamma   90.00000000
_symmetry_Int_Tables_number   1
_chemical_formula_structural   SbCSCl2F9
_chemical_formula_sum   'Sb4 C4 S4 Cl8 F36'
_cell_volume   987.41333686
_cell_formula_units_Z   4
loop_
 _symmetry_equiv_pos_site_id
 _symmetry_equiv_pos_as_xyz
  1  'x, y, z'
loop_
 _atom_site_type_symbol
 _atom_site_label
 _atom_site_symmetry_multiplicity
 _atom_site_fract_x
 _atom_site_fract_y
 _atom_site_fract_z
 _atom_site_occupancy
  Sb  Sb0  1  0.19697800  0.74929400  0.06654000  1
  Sb  Sb1  1  0.19697800  0.75070600  0.56654000  1
  Sb  Sb2  1  0.80302200  0.25070600  0.93346000  1
  Sb  Sb3  1  0.80302200  0.24929400  0.43346000  1
  C  C4  1  0.61981400  0.82592600  0.37300500  1
  C  C5  1  0.61981400  0.67407400  0.87300500  1
  C  C6  1  0.38018600  0.32592600  0.12699500  1
  C  C7  1  0.38018600  0.17407400  0.62699500  1
  S  S8  1  0.17525300  0.17721300  0.70005700  1
  S  S9  1  0.82474700  0.82278700  0.29994300  1
  S  S10  1  0.17525300  0.32278700  0.20005700  1
  S  S11  1  0.82474700  0.67721300  0.79994300  1
  Cl  Cl12  1  0.73761400  0.92983000  0.16977400  1
  Cl  Cl13  1  0.81494500  0.86929200  0.75230000  1
  Cl  Cl14  1  0.26238600  0.07017000  0.83022600  1
  Cl  Cl15  1  0.18505500  0.13070800  0.24770000  1
  Cl  Cl16  1  0.26238600  0.42983000  0.33022600  1
  Cl  Cl17  1  0.18505500  0.36929200  0.74770000  1
  Cl  Cl18  1  0.73761400  0.57017000  0.66977400  1
  Cl  Cl19  1  0.81494500  0.63070800  0.25230000  1
  F  F20  1  0.97251800  0.70509900  0.49137800  1
  F  F21  1  0.86006500  0.32870400  0.30654900  1
  F  F22  1  0.43288700  0.30111800  0.61886100  1
  F  F23  1  0.86006500  0.17129600  0.80654900  1
  F  F24  1  0.71661300  0.42163900  0.47078700  1
  F  F25  1  0.24400200  0.83031500  0.43809700  1
  F  F26  1  0.97251800  0.79490100  0.99137800  1
  F  F27  1  0.75599800  0.33031500  0.06190300  1
  F  F28  1  0.49818800  0.09696300  0.68400500  1
  F  F29  1  0.58241700  0.30049700  0.85867700  1
  F  F30  1  0.75599800  0.16968500  0.56190300  1
  F  F31  1  0.43288700  0.19888200  0.11886100  1
  F  F32  1  0.50181200  0.90303700  0.31599500  1
  F  F33  1  0.24400200  0.66968500  0.93809700  1
  F  F34  1  0.67533200  0.62034300  0.96860300  1
  F  F35  1  0.28338700  0.92163900  0.02921300  1
  F  F36  1  0.13993500  0.82870400  0.19345100  1
  F  F37  1  0.49818800  0.40303700  0.18400500  1
  F  F38  1  0.58241700  0.19950300  0.35867700  1
  F  F39  1  0.02748200  0.29490100  0.50862200  1
  F  F40  1  0.56711300  0.69888200  0.38113900  1
  F  F41  1  0.88866200  0.07652900  0.39285100  1
  F  F42  1  0.32466800  0.37965700  0.03139700  1
  F  F43  1  0.67533200  0.87965700  0.46860300  1
  F  F44  1  0.71661300  0.07836100  0.97078700  1
  F  F45  1  0.11133800  0.57652900  0.10714900  1
  F  F46  1  0.88866200  0.42347100  0.89285100  1
  F  F47  1  0.32466800  0.12034300  0.53139700  1
  F  F48  1  0.50181200  0.59696300  0.81599500  1
  F  F49  1  0.13993500  0.67129600  0.69345100  1
  F  F50  1  0.11133800  0.92347100  0.60714900  1
  F  F51  1  0.41758300  0.69950300  0.14132300  1
  F  F52  1  0.02748200  0.20509900  0.00862200  1
  F  F53  1  0.41758300  0.80049700  0.64132300  1
  F  F54  1  0.28338700  0.57836100  0.52921300  1
  F  F55  1  0.56711300  0.80111800  0.88113900  1
