# generated using pymatgen
data_Na3Ce2C4O12F
_symmetry_space_group_name_H-M   'P 1'
_cell_length_a   5.11927765
_cell_length_b   5.11927765
_cell_length_c   22.92006800
_cell_angle_alpha   90.00000000
_cell_angle_beta   90.00000000
_cell_angle_gamma   120.00000000
_symmetry_Int_Tables_number   1
_chemical_formula_structural   Na3Ce2C4O12F
_chemical_formula_sum   'Na6 Ce4 C8 O24 F2'
_cell_volume   520.19228111
_cell_formula_units_Z   2
loop_
 _symmetry_equiv_pos_site_id
 _symmetry_equiv_pos_as_xyz
  1  'x, y, z'
loop_
 _atom_site_type_symbol
 _atom_site_label
 _atom_site_symmetry_multiplicity
 _atom_site_fract_x
 _atom_site_fract_y
 _atom_site_fract_z
 _atom_site_occupancy
  Na  Na0  1  0.33333333  0.66666667  0.47720300  1
  Na  Na1  1  0.33333333  0.66666667  0.02279700  1
  Na  Na2  1  0.66666667  0.33333333  0.97720300  1
  Na  Na3  1  0.66666667  0.33333333  0.52279700  1
  Na  Na4  1  0.00000000  0.00000000  0.25000000  1
  Na  Na5  1  0.00000000  0.00000000  0.75000000  1
  Ce  Ce6  1  0.66666667  0.33333333  0.14537900  1
  Ce  Ce7  1  0.33333333  0.66666667  0.85462100  1
  Ce  Ce8  1  0.66666667  0.33333333  0.35462100  1
  Ce  Ce9  1  0.33333333  0.66666667  0.64537900  1
  C  C10  1  0.00000000  0.00000000  0.93671500  1
  C  C11  1  0.33333333  0.66666667  0.32316400  1
  C  C12  1  0.00000000  0.00000000  0.43671500  1
  C  C13  1  0.00000000  0.00000000  0.56328500  1
  C  C14  1  0.66666667  0.33333333  0.82316400  1
  C  C15  1  0.66666667  0.33333333  0.67683600  1
  C  C16  1  0.00000000  0.00000000  0.06328500  1
  C  C17  1  0.33333333  0.66666667  0.17683600  1
  O  O18  1  0.14652700  0.85347300  0.56242400  1
  O  O19  1  0.18746700  0.37493400  0.17547700  1
  O  O20  1  0.85347300  0.70694600  0.43757600  1
  O  O21  1  0.85347300  0.14652700  0.06242400  1
  O  O22  1  0.70694600  0.85347300  0.56242400  1
  O  O23  1  0.29305400  0.14652700  0.06242400  1
  O  O24  1  0.81253300  0.18746700  0.82452300  1
  O  O25  1  0.81253300  0.62506600  0.67547700  1
  O  O26  1  0.85347300  0.70694600  0.06242400  1
  O  O27  1  0.18746700  0.81253300  0.32452300  1
  O  O28  1  0.62506600  0.81253300  0.32452300  1
  O  O29  1  0.14652700  0.29305400  0.56242400  1
  O  O30  1  0.37493400  0.18746700  0.82452300  1
  O  O31  1  0.81253300  0.62506600  0.82452300  1
  O  O32  1  0.18746700  0.81253300  0.17547700  1
  O  O33  1  0.37493400  0.18746700  0.67547700  1
  O  O34  1  0.62506600  0.81253300  0.17547700  1
  O  O35  1  0.70694600  0.85347300  0.93757600  1
  O  O36  1  0.14652700  0.85347300  0.93757600  1
  O  O37  1  0.14652700  0.29305400  0.93757600  1
  O  O38  1  0.85347300  0.14652700  0.43757600  1
  O  O39  1  0.29305400  0.14652700  0.43757600  1
  O  O40  1  0.81253300  0.18746700  0.67547700  1
  O  O41  1  0.18746700  0.37493400  0.32452300  1
  F  F42  1  0.33333333  0.66666667  0.75000000  1
  F  F43  1  0.66666667  0.33333333  0.25000000  1
