# generated using pymatgen
data_SbI(ClF3)2
_symmetry_space_group_name_H-M   'P 1'
_cell_length_a   10.93100000
_cell_length_b   12.27426200
_cell_length_c   13.24702300
_cell_angle_alpha   90.00000000
_cell_angle_beta   90.00000000
_cell_angle_gamma   90.00000000
_symmetry_Int_Tables_number   1
_chemical_formula_structural   SbI(ClF3)2
_chemical_formula_sum   'Sb8 I8 Cl16 F48'
_cell_volume   1777.35251850
_cell_formula_units_Z   8
loop_
 _symmetry_equiv_pos_site_id
 _symmetry_equiv_pos_as_xyz
  1  'x, y, z'
loop_
 _atom_site_type_symbol
 _atom_site_label
 _atom_site_symmetry_multiplicity
 _atom_site_fract_x
 _atom_site_fract_y
 _atom_site_fract_z
 _atom_site_occupancy
  Sb  Sb0  1  0.50000000  0.20533900  0.55823600  1
  Sb  Sb1  1  0.50000000  0.29466100  0.05823600  1
  Sb  Sb2  1  0.50000000  0.70533900  0.94176400  1
  Sb  Sb3  1  0.50000000  0.79466100  0.44176400  1
  Sb  Sb4  1  0.00000000  0.70533900  0.55823600  1
  Sb  Sb5  1  0.00000000  0.79466100  0.05823600  1
  Sb  Sb6  1  0.00000000  0.20533900  0.94176400  1
  Sb  Sb7  1  0.00000000  0.29466100  0.44176400  1
  I  I8  1  0.25000000  0.90763900  0.75000000  1
  I  I9  1  0.75000000  0.09236100  0.25000000  1
  I  I10  1  0.75000000  0.90763900  0.75000000  1
  I  I11  1  0.25000000  0.09236100  0.25000000  1
  I  I12  1  0.75000000  0.40763900  0.75000000  1
  I  I13  1  0.25000000  0.59236100  0.25000000  1
  I  I14  1  0.25000000  0.40763900  0.75000000  1
  I  I15  1  0.75000000  0.59236100  0.25000000  1
  Cl  Cl16  1  0.16366100  0.03134300  0.64065600  1
  Cl  Cl17  1  0.66366100  0.03134300  0.85934400  1
  Cl  Cl18  1  0.83633900  0.96865700  0.35934400  1
  Cl  Cl19  1  0.16366100  0.96865700  0.35934400  1
  Cl  Cl20  1  0.33633900  0.96865700  0.14065600  1
  Cl  Cl21  1  0.66366100  0.96865700  0.14065600  1
  Cl  Cl22  1  0.33633900  0.03134300  0.85934400  1
  Cl  Cl23  1  0.83633900  0.03134300  0.64065600  1
  Cl  Cl24  1  0.66366100  0.53134300  0.64065600  1
  Cl  Cl25  1  0.16366100  0.53134300  0.85934400  1
  Cl  Cl26  1  0.33633900  0.46865700  0.35934400  1
  Cl  Cl27  1  0.66366100  0.46865700  0.35934400  1
  Cl  Cl28  1  0.83633900  0.46865700  0.14065600  1
  Cl  Cl29  1  0.16366100  0.46865700  0.14065600  1
  Cl  Cl30  1  0.83633900  0.53134300  0.85934400  1
  Cl  Cl31  1  0.33633900  0.53134300  0.64065600  1
  F  F32  1  0.37588850  0.24048750  0.15245100  1
  F  F33  1  0.50000000  0.42915100  0.13016000  1
  F  F34  1  0.50000000  0.57084900  0.86984000  1
  F  F35  1  0.37588850  0.74048750  0.34754900  1
  F  F36  1  0.37379800  0.34290900  0.96951300  1
  F  F37  1  0.50000000  0.65414700  0.50496900  1
  F  F38  1  0.50000000  0.07084900  0.63016000  1
  F  F39  1  0.50000000  0.92915100  0.36984000  1
  F  F40  1  0.62411150  0.24048750  0.15245100  1
  F  F41  1  0.37379800  0.65709100  0.03048700  1
  F  F42  1  0.37588850  0.25951250  0.65245100  1
  F  F43  1  0.62620200  0.65709100  0.03048700  1
  F  F44  1  0.37379800  0.84290900  0.53048700  1
  F  F45  1  0.50000000  0.84585300  0.00496900  1
  F  F46  1  0.62411150  0.25951250  0.65245100  1
  F  F47  1  0.37588850  0.75951250  0.84754900  1
  F  F48  1  0.62620200  0.84290900  0.53048700  1
  F  F49  1  0.62411150  0.75951250  0.84754900  1
  F  F50  1  0.62411150  0.74048750  0.34754900  1
  F  F51  1  0.50000000  0.34585300  0.49503100  1
  F  F52  1  0.62620200  0.34290900  0.96951300  1
  F  F53  1  0.62620200  0.15709100  0.46951300  1
  F  F54  1  0.37379800  0.15709100  0.46951300  1
  F  F55  1  0.50000000  0.15414700  0.99503100  1
  F  F56  1  0.87588850  0.74048750  0.15245100  1
  F  F57  1  0.00000000  0.92915100  0.13016000  1
  F  F58  1  0.00000000  0.07084900  0.86984000  1
  F  F59  1  0.87588850  0.24048750  0.34754900  1
  F  F60  1  0.87379800  0.84290900  0.96951300  1
  F  F61  1  0.00000000  0.15414700  0.50496900  1
  F  F62  1  0.00000000  0.57084900  0.63016000  1
  F  F63  1  0.00000000  0.42915100  0.36984000  1
  F  F64  1  0.12411150  0.74048750  0.15245100  1
  F  F65  1  0.87379800  0.15709100  0.03048700  1
  F  F66  1  0.87588850  0.75951250  0.65245100  1
  F  F67  1  0.12620200  0.15709100  0.03048700  1
  F  F68  1  0.87379800  0.34290900  0.53048700  1
  F  F69  1  0.00000000  0.34585300  0.00496900  1
  F  F70  1  0.12411150  0.75951250  0.65245100  1
  F  F71  1  0.87588850  0.25951250  0.84754900  1
  F  F72  1  0.12620200  0.34290900  0.53048700  1
  F  F73  1  0.12411150  0.25951250  0.84754900  1
  F  F74  1  0.12411150  0.24048750  0.34754900  1
  F  F75  1  0.00000000  0.84585300  0.49503100  1
  F  F76  1  0.12620200  0.84290900  0.96951300  1
  F  F77  1  0.12620200  0.65709100  0.46951300  1
  F  F78  1  0.87379800  0.65709100  0.46951300  1
  F  F79  1  0.00000000  0.65414700  0.99503100  1
