# generated using pymatgen
data_MnTl2As2S5
_symmetry_space_group_name_H-M   'P 1'
_cell_length_a   7.71853600
_cell_length_b   15.68889400
_cell_length_c   17.07858800
_cell_angle_alpha   90.00000000
_cell_angle_beta   90.00000000
_cell_angle_gamma   90.00000000
_symmetry_Int_Tables_number   1
_chemical_formula_structural   MnTl2As2S5
_chemical_formula_sum   'Mn8 Tl16 As16 S40'
_cell_volume   2068.13662026
_cell_formula_units_Z   8
loop_
 _symmetry_equiv_pos_site_id
 _symmetry_equiv_pos_as_xyz
  1  'x, y, z'
loop_
 _atom_site_type_symbol
 _atom_site_label
 _atom_site_symmetry_multiplicity
 _atom_site_fract_x
 _atom_site_fract_y
 _atom_site_fract_z
 _atom_site_occupancy
  Mn  Mn0  1  0.64702600  0.25000000  0.25000000  1
  Mn  Mn1  1  0.85297400  0.25000000  0.75000000  1
  Mn  Mn2  1  0.14702600  0.25000000  0.25000000  1
  Mn  Mn3  1  0.35297400  0.25000000  0.75000000  1
  Mn  Mn4  1  0.14702600  0.75000000  0.25000000  1
  Mn  Mn5  1  0.35297400  0.75000000  0.75000000  1
  Mn  Mn6  1  0.64702600  0.75000000  0.25000000  1
  Mn  Mn7  1  0.85297400  0.75000000  0.75000000  1
  Tl  Tl8  1  0.00000000  0.35055700  0.00000000  1
  Tl  Tl9  1  0.50000000  0.35055700  0.50000000  1
  Tl  Tl10  1  0.08805000  0.00000000  0.31908600  1
  Tl  Tl11  1  0.50000000  0.14944300  0.00000000  1
  Tl  Tl12  1  0.91195000  0.00000000  0.68091400  1
  Tl  Tl13  1  0.00000000  0.14944300  0.50000000  1
  Tl  Tl14  1  0.41195000  0.00000000  0.81908600  1
  Tl  Tl15  1  0.58805000  0.00000000  0.18091400  1
  Tl  Tl16  1  0.50000000  0.85055700  0.00000000  1
  Tl  Tl17  1  0.00000000  0.85055700  0.50000000  1
  Tl  Tl18  1  0.58805000  0.50000000  0.31908600  1
  Tl  Tl19  1  0.00000000  0.64944300  0.00000000  1
  Tl  Tl20  1  0.41195000  0.50000000  0.68091400  1
  Tl  Tl21  1  0.50000000  0.64944300  0.50000000  1
  Tl  Tl22  1  0.91195000  0.50000000  0.81908600  1
  Tl  Tl23  1  0.08805000  0.50000000  0.18091400  1
  As  As24  1  0.46818050  0.11674750  0.39283200  1
  As  As25  1  0.53181950  0.11674750  0.60716800  1
  As  As26  1  0.53181950  0.38325250  0.89283200  1
  As  As27  1  0.03181950  0.11674750  0.89283200  1
  As  As28  1  0.03181950  0.38325250  0.60716800  1
  As  As29  1  0.96818050  0.11674750  0.10716800  1
  As  As30  1  0.46818050  0.38325250  0.10716800  1
  As  As31  1  0.96818050  0.38325250  0.39283200  1
  As  As32  1  0.96818050  0.61674750  0.39283200  1
  As  As33  1  0.03181950  0.61674750  0.60716800  1
  As  As34  1  0.03181950  0.88325250  0.89283200  1
  As  As35  1  0.53181950  0.61674750  0.89283200  1
  As  As36  1  0.53181950  0.88325250  0.60716800  1
  As  As37  1  0.46818050  0.61674750  0.10716800  1
  As  As38  1  0.96818050  0.88325250  0.10716800  1
  As  As39  1  0.46818050  0.88325250  0.39283200  1
  S  S40  1  0.67092300  0.28050300  0.10372500  1
  S  S41  1  0.39289100  0.13752300  0.26474300  1
  S  S42  1  0.60710900  0.13752300  0.73525700  1
  S  S43  1  0.15531700  0.00000000  0.11954900  1
  S  S44  1  0.67092300  0.21949700  0.39627500  1
  S  S45  1  0.10710900  0.13752300  0.76474300  1
  S  S46  1  0.65531700  0.00000000  0.38045100  1
  S  S47  1  0.32907700  0.28050300  0.89627500  1
  S  S48  1  0.17092300  0.21949700  0.10372500  1
  S  S49  1  0.84468300  0.00000000  0.88045100  1
  S  S50  1  0.82907700  0.28050300  0.60372500  1
  S  S51  1  0.89289100  0.13752300  0.23525700  1
  S  S52  1  0.34468300  0.00000000  0.61954900  1
  S  S53  1  0.60710900  0.36247700  0.76474300  1
  S  S54  1  0.89289100  0.36247700  0.26474300  1
  S  S55  1  0.32907700  0.21949700  0.60372500  1
  S  S56  1  0.82907700  0.21949700  0.89627500  1
  S  S57  1  0.17092300  0.28050300  0.39627500  1
  S  S58  1  0.10710900  0.36247700  0.73525700  1
  S  S59  1  0.39289100  0.36247700  0.23525700  1
  S  S60  1  0.17092300  0.78050300  0.10372500  1
  S  S61  1  0.89289100  0.63752300  0.26474300  1
  S  S62  1  0.10710900  0.63752300  0.73525700  1
  S  S63  1  0.65531700  0.50000000  0.11954900  1
  S  S64  1  0.17092300  0.71949700  0.39627500  1
  S  S65  1  0.60710900  0.63752300  0.76474300  1
  S  S66  1  0.15531700  0.50000000  0.38045100  1
  S  S67  1  0.82907700  0.78050300  0.89627500  1
  S  S68  1  0.67092300  0.71949700  0.10372500  1
  S  S69  1  0.34468300  0.50000000  0.88045100  1
  S  S70  1  0.32907700  0.78050300  0.60372500  1
  S  S71  1  0.39289100  0.63752300  0.23525700  1
  S  S72  1  0.84468300  0.50000000  0.61954900  1
  S  S73  1  0.10710900  0.86247700  0.76474300  1
  S  S74  1  0.39289100  0.86247700  0.26474300  1
  S  S75  1  0.82907700  0.71949700  0.60372500  1
  S  S76  1  0.32907700  0.71949700  0.89627500  1
  S  S77  1  0.67092300  0.78050300  0.39627500  1
  S  S78  1  0.60710900  0.86247700  0.73525700  1
  S  S79  1  0.89289100  0.86247700  0.23525700  1
