# generated using pymatgen
data_SrSbSe2F
_symmetry_space_group_name_H-M   'P 1'
_cell_length_a   4.12400000
_cell_length_b   4.12400000
_cell_length_c   14.75742800
_cell_angle_alpha   90.00000000
_cell_angle_beta   90.00000000
_cell_angle_gamma   90.00000000
_symmetry_Int_Tables_number   1
_chemical_formula_structural   SrSbSe2F
_chemical_formula_sum   'Sr2 Sb2 Se4 F2'
_cell_volume   250.98512679
_cell_formula_units_Z   2
loop_
 _symmetry_equiv_pos_site_id
 _symmetry_equiv_pos_as_xyz
  1  'x, y, z'
loop_
 _atom_site_type_symbol
 _atom_site_label
 _atom_site_symmetry_multiplicity
 _atom_site_fract_x
 _atom_site_fract_y
 _atom_site_fract_z
 _atom_site_occupancy
  Sr  Sr0  1  0.50000000  0.00000000  0.59829900  1
  Sr  Sr1  1  0.00000000  0.50000000  0.40170100  1
  Sb  Sb2  1  0.50000000  0.00000000  0.13709300  1
  Sb  Sb3  1  0.00000000  0.50000000  0.86290700  1
  Se  Se4  1  0.00000000  0.50000000  0.68971500  1
  Se  Se5  1  0.00000000  0.50000000  0.11263300  1
  Se  Se6  1  0.50000000  0.00000000  0.88736700  1
  Se  Se7  1  0.50000000  0.00000000  0.31028500  1
  F  F8  1  0.00000000  0.00000000  0.50000000  1
  F  F9  1  0.50000000  0.50000000  0.50000000  1
