# generated using pymatgen
data_AlPO4
_symmetry_space_group_name_H-M   'P 1'
_cell_length_a   14.09720621
_cell_length_b   14.09720621
_cell_length_c   8.71598800
_cell_angle_alpha   90.00000000
_cell_angle_beta   90.00000000
_cell_angle_gamma   120.00000000
_symmetry_Int_Tables_number   1
_chemical_formula_structural   AlPO4
_chemical_formula_sum   'Al12 P12 O48'
_cell_volume   1500.07633696
_cell_formula_units_Z   12
loop_
 _symmetry_equiv_pos_site_id
 _symmetry_equiv_pos_as_xyz
  1  'x, y, z'
loop_
 _atom_site_type_symbol
 _atom_site_label
 _atom_site_symmetry_multiplicity
 _atom_site_fract_x
 _atom_site_fract_y
 _atom_site_fract_z
 _atom_site_occupancy
  Al  Al0  1  0.87847000  0.33442100  0.93692900  1
  Al  Al1  1  0.66557900  0.54404900  0.93692900  1
  Al  Al2  1  0.45595100  0.12153000  0.93692900  1
  Al  Al3  1  0.54404900  0.87847000  0.93692900  1
  Al  Al4  1  0.12153000  0.66557900  0.93692900  1
  Al  Al5  1  0.33442100  0.45595100  0.93692900  1
  Al  Al6  1  0.66557900  0.12153000  0.43692900  1
  Al  Al7  1  0.54404900  0.66557900  0.43692900  1
  Al  Al8  1  0.12153000  0.45595100  0.43692900  1
  Al  Al9  1  0.87847000  0.54404900  0.43692900  1
  Al  Al10  1  0.45595100  0.33442100  0.43692900  1
  Al  Al11  1  0.33442100  0.87847000  0.43692900  1
  P  P12  1  0.87724600  0.33106100  0.56213300  1
  P  P13  1  0.66893900  0.54618500  0.56213300  1
  P  P14  1  0.45381500  0.12275400  0.56213300  1
  P  P15  1  0.54618500  0.87724600  0.56213300  1
  P  P16  1  0.12275400  0.66893900  0.56213300  1
  P  P17  1  0.33106100  0.45381500  0.56213300  1
  P  P18  1  0.66893900  0.12275400  0.06213300  1
  P  P19  1  0.54618500  0.66893900  0.06213300  1
  P  P20  1  0.12275400  0.45381500  0.06213300  1
  P  P21  1  0.87724600  0.54618500  0.06213300  1
  P  P22  1  0.45381500  0.33106100  0.06213300  1
  P  P23  1  0.33106100  0.87724600  0.06213300  1
  O  O24  1  0.84377100  0.41244600  0.50009300  1
  O  O25  1  0.58755400  0.43132500  0.50009300  1
  O  O26  1  0.56867500  0.15622900  0.50009300  1
  O  O27  1  0.43132500  0.84377100  0.50009300  1
  O  O28  1  0.15622900  0.58755400  0.50009300  1
  O  O29  1  0.41244600  0.56867500  0.50009300  1
  O  O30  1  0.58755400  0.15622900  0.00009300  1
  O  O31  1  0.43132500  0.58755400  0.00009300  1
  O  O32  1  0.15622900  0.56867500  0.00009300  1
  O  O33  1  0.84377100  0.43132500  0.00009300  1
  O  O34  1  0.56867500  0.41244600  0.00009300  1
  O  O35  1  0.41244600  0.84377100  0.00009300  1
  O  O36  1  0.99116900  0.35977300  0.50311400  1
  O  O37  1  0.64022700  0.63139600  0.50311400  1
  O  O38  1  0.36860400  0.00883100  0.50311400  1
  O  O39  1  0.63139600  0.99116900  0.50311400  1
  O  O40  1  0.00883100  0.64022700  0.50311400  1
  O  O41  1  0.87844000  0.33443600  0.73756300  1
  O  O42  1  0.35977300  0.36860400  0.50311400  1
  O  O43  1  0.63139600  0.64022700  0.00311400  1
  O  O44  1  0.00883100  0.36860400  0.00311400  1
  O  O45  1  0.99116900  0.63139600  0.00311400  1
  O  O46  1  0.36860400  0.35977300  0.00311400  1
  O  O47  1  0.35977300  0.99116900  0.00311400  1
  O  O48  1  0.21520200  0.79476200  0.00747000  1
  O  O49  1  0.42044000  0.21520200  0.00747000  1
  O  O50  1  0.79476200  0.57956000  0.00747000  1
  O  O51  1  0.20523800  0.42044000  0.00747000  1
  O  O52  1  0.57956000  0.78479800  0.00747000  1
  O  O53  1  0.78479800  0.20523800  0.00747000  1
  O  O54  1  0.21520200  0.42044000  0.50747000  1
  O  O55  1  0.20523800  0.78479800  0.50747000  1
  O  O56  1  0.57956000  0.79476200  0.50747000  1
  O  O57  1  0.42044000  0.20523800  0.50747000  1
  O  O58  1  0.78479800  0.57956000  0.50747000  1
  O  O59  1  0.79476200  0.21520200  0.50747000  1
  O  O60  1  0.33443600  0.87844000  0.23756300  1
  O  O61  1  0.45599600  0.33443600  0.23756300  1
  O  O62  1  0.87844000  0.54400400  0.23756300  1
  O  O63  1  0.12156000  0.45599600  0.23756300  1
  O  O64  1  0.54400400  0.66556400  0.23756300  1
  O  O65  1  0.66556400  0.12156000  0.23756300  1
  O  O66  1  0.33443600  0.45599600  0.73756300  1
  O  O67  1  0.12156000  0.66556400  0.73756300  1
  O  O68  1  0.54400400  0.87844000  0.73756300  1
  O  O69  1  0.45599600  0.12156000  0.73756300  1
  O  O70  1  0.66556400  0.54400400  0.73756300  1
  O  O71  1  0.64022700  0.00883100  0.00311400  1
