# generated using pymatgen
data_Rb4Hf3S14
_symmetry_space_group_name_H-M   'P 1'
_cell_length_a   22.07312000
_cell_length_b   8.41044800
_cell_length_c   13.84202337
_cell_angle_alpha   90.00000000
_cell_angle_beta   112.80004579
_cell_angle_gamma   90.00000000
_symmetry_Int_Tables_number   1
_chemical_formula_structural   Rb4Hf3S14
_chemical_formula_sum   'Rb16 Hf12 S56'
_cell_volume   2368.91098798
_cell_formula_units_Z   4
loop_
 _symmetry_equiv_pos_site_id
 _symmetry_equiv_pos_as_xyz
  1  'x, y, z'
loop_
 _atom_site_type_symbol
 _atom_site_label
 _atom_site_symmetry_multiplicity
 _atom_site_fract_x
 _atom_site_fract_y
 _atom_site_fract_z
 _atom_site_occupancy
  Rb  Rb0  1  0.29734200  0.68103900  0.88992500  1
  Rb  Rb1  1  0.20265800  0.18103900  0.61007500  1
  Rb  Rb2  1  0.20265800  0.81896100  0.11007500  1
  Rb  Rb3  1  0.29734200  0.31896100  0.38992500  1
  Rb  Rb4  1  0.06535600  0.73775000  0.64386800  1
  Rb  Rb5  1  0.43464400  0.23775000  0.85613200  1
  Rb  Rb6  1  0.43464400  0.76225000  0.35613200  1
  Rb  Rb7  1  0.06535600  0.26225000  0.14386800  1
  Rb  Rb8  1  0.79734200  0.18103900  0.88992500  1
  Rb  Rb9  1  0.70265800  0.68103900  0.61007500  1
  Rb  Rb10  1  0.70265800  0.31896100  0.11007500  1
  Rb  Rb11  1  0.79734200  0.81896100  0.38992500  1
  Rb  Rb12  1  0.56535600  0.23775000  0.64386800  1
  Rb  Rb13  1  0.93464400  0.73775000  0.85613200  1
  Rb  Rb14  1  0.93464400  0.26225000  0.35613200  1
  Rb  Rb15  1  0.56535600  0.76225000  0.14386800  1
  Hf  Hf16  1  0.33178950  0.74743150  0.58812500  1
  Hf  Hf17  1  0.16821050  0.24743150  0.91187500  1
  Hf  Hf18  1  0.16821050  0.75256850  0.41187500  1
  Hf  Hf19  1  0.33178950  0.25256850  0.08812500  1
  Hf  Hf20  1  0.00000000  0.23427000  0.75000000  1
  Hf  Hf21  1  0.00000000  0.76573000  0.25000000  1
  Hf  Hf22  1  0.83178950  0.24743150  0.58812500  1
  Hf  Hf23  1  0.66821050  0.74743150  0.91187500  1
  Hf  Hf24  1  0.66821050  0.25256850  0.41187500  1
  Hf  Hf25  1  0.83178950  0.75256850  0.08812500  1
  Hf  Hf26  1  0.50000000  0.73427000  0.75000000  1
  Hf  Hf27  1  0.50000000  0.26573000  0.25000000  1
  S  S28  1  0.46020800  0.65528800  0.89425500  1
  S  S29  1  0.03979200  0.15528800  0.60574500  1
  S  S30  1  0.03979200  0.84471200  0.10574500  1
  S  S31  1  0.46020800  0.34471200  0.39425500  1
  S  S32  1  0.43112150  0.91466550  0.58511900  1
  S  S33  1  0.06887850  0.41466550  0.91488100  1
  S  S34  1  0.06887850  0.58533450  0.41488100  1
  S  S35  1  0.43112150  0.08533450  0.08511900  1
  S  S36  1  0.41444400  0.51475000  0.63200800  1
  S  S37  1  0.08555600  0.01475000  0.86799200  1
  S  S38  1  0.08555600  0.98525000  0.36799200  1
  S  S39  1  0.41444400  0.48525000  0.13200800  1
  S  S40  1  0.40415100  0.83522900  0.79330000  1
  S  S41  1  0.09584900  0.33522900  0.70670000  1
  S  S42  1  0.09584900  0.66477100  0.20670000  1
  S  S43  1  0.40415100  0.16477100  0.29330000  1
  S  S44  1  0.22079800  0.78905000  0.60140200  1
  S  S45  1  0.27920200  0.28905000  0.89859800  1
  S  S46  1  0.27920200  0.71095000  0.39859800  1
  S  S47  1  0.22079800  0.21095000  0.10140200  1
  S  S48  1  0.16863900  0.97841800  0.83184800  1
  S  S49  1  0.33136100  0.47841800  0.66815200  1
  S  S50  1  0.33136100  0.52158200  0.16815200  1
  S  S51  1  0.16863900  0.02158200  0.33184800  1
  S  S52  1  0.14239900  0.54709900  0.89039200  1
  S  S53  1  0.35760100  0.04709900  0.60960800  1
  S  S54  1  0.35760100  0.95290100  0.10960800  1
  S  S55  1  0.14239900  0.45290100  0.39039200  1
  S  S56  1  0.96020800  0.15528800  0.89425500  1
  S  S57  1  0.53979200  0.65528800  0.60574500  1
  S  S58  1  0.53979200  0.34471200  0.10574500  1
  S  S59  1  0.96020800  0.84471200  0.39425500  1
  S  S60  1  0.93112150  0.41466550  0.58511900  1
  S  S61  1  0.56887850  0.91466550  0.91488100  1
  S  S62  1  0.56887850  0.08533450  0.41488100  1
  S  S63  1  0.93112150  0.58533450  0.08511900  1
  S  S64  1  0.91444400  0.01475000  0.63200800  1
  S  S65  1  0.58555600  0.51475000  0.86799200  1
  S  S66  1  0.58555600  0.48525000  0.36799200  1
  S  S67  1  0.91444400  0.98525000  0.13200800  1
  S  S68  1  0.90415100  0.33522900  0.79330000  1
  S  S69  1  0.59584900  0.83522900  0.70670000  1
  S  S70  1  0.59584900  0.16477100  0.20670000  1
  S  S71  1  0.90415100  0.66477100  0.29330000  1
  S  S72  1  0.72079800  0.28905000  0.60140200  1
  S  S73  1  0.77920200  0.78905000  0.89859800  1
  S  S74  1  0.77920200  0.21095000  0.39859800  1
  S  S75  1  0.72079800  0.71095000  0.10140200  1
  S  S76  1  0.66863900  0.47841800  0.83184800  1
  S  S77  1  0.83136100  0.97841800  0.66815200  1
  S  S78  1  0.83136100  0.02158200  0.16815200  1
  S  S79  1  0.66863900  0.52158200  0.33184800  1
  S  S80  1  0.64239900  0.04709900  0.89039200  1
  S  S81  1  0.85760100  0.54709900  0.60960800  1
  S  S82  1  0.85760100  0.45290100  0.10960800  1
  S  S83  1  0.64239900  0.95290100  0.39039200  1
