# generated using pymatgen
data_CaNb2(P2O7)3
_symmetry_space_group_name_H-M   'P 1'
_cell_length_a   13.48902000
_cell_length_b   10.77610800
_cell_length_c   12.61150233
_cell_angle_alpha   90.00000000
_cell_angle_beta   96.11491535
_cell_angle_gamma   90.00000000
_symmetry_Int_Tables_number   1
_chemical_formula_structural   CaNb2(P2O7)3
_chemical_formula_sum   'Ca4 Nb8 P24 O84'
_cell_volume   1822.76664841
_cell_formula_units_Z   4
loop_
 _symmetry_equiv_pos_site_id
 _symmetry_equiv_pos_as_xyz
  1  'x, y, z'
loop_
 _atom_site_type_symbol
 _atom_site_label
 _atom_site_symmetry_multiplicity
 _atom_site_fract_x
 _atom_site_fract_y
 _atom_site_fract_z
 _atom_site_occupancy
  Ca  Ca0  1  0.77529600  0.00000000  0.86258000  1
  Ca  Ca1  1  0.22470400  0.00000000  0.13742000  1
  Ca  Ca2  1  0.27529600  0.50000000  0.86258000  1
  Ca  Ca3  1  0.72470400  0.50000000  0.13742000  1
  Nb  Nb4  1  0.71446000  0.00000000  0.17905600  1
  Nb  Nb5  1  0.50000000  0.25503900  0.50000000  1
  Nb  Nb6  1  0.50000000  0.74496100  0.50000000  1
  Nb  Nb7  1  0.28554000  0.00000000  0.82094400  1
  Nb  Nb8  1  0.21446000  0.50000000  0.17905600  1
  Nb  Nb9  1  0.00000000  0.75503900  0.50000000  1
  Nb  Nb10  1  0.00000000  0.24496100  0.50000000  1
  Nb  Nb11  1  0.78554000  0.50000000  0.82094400  1
  P  P12  1  0.55973250  0.76239750  0.10269200  1
  P  P13  1  0.85950300  0.00000000  0.59004400  1
  P  P14  1  0.65674000  0.00000000  0.45697500  1
  P  P15  1  0.55973250  0.23760250  0.10269200  1
  P  P16  1  0.38986650  0.25978150  0.23360200  1
  P  P17  1  0.61013350  0.74021850  0.76639800  1
  P  P18  1  0.44026750  0.23760250  0.89730800  1
  P  P19  1  0.34326000  0.00000000  0.54302500  1
  P  P20  1  0.61013350  0.25978150  0.76639800  1
  P  P21  1  0.38986650  0.74021850  0.23360200  1
  P  P22  1  0.14049700  0.00000000  0.40995600  1
  P  P23  1  0.44026750  0.76239750  0.89730800  1
  P  P24  1  0.05973250  0.26239750  0.10269200  1
  P  P25  1  0.35950300  0.50000000  0.59004400  1
  P  P26  1  0.15674000  0.50000000  0.45697500  1
  P  P27  1  0.05973250  0.73760250  0.10269200  1
  P  P28  1  0.88986650  0.75978150  0.23360200  1
  P  P29  1  0.11013350  0.24021850  0.76639800  1
  P  P30  1  0.94026750  0.73760250  0.89730800  1
  P  P31  1  0.84326000  0.50000000  0.54302500  1
  P  P32  1  0.11013350  0.75978150  0.76639800  1
  P  P33  1  0.88986650  0.24021850  0.23360200  1
  P  P34  1  0.64049700  0.50000000  0.40995600  1
  P  P35  1  0.94026750  0.26239750  0.89730800  1
  O  O36  1  0.44348850  0.25992350  0.34980200  1
  O  O37  1  0.55651150  0.25992350  0.65019800  1
  O  O38  1  0.47569800  0.69573900  0.16229300  1
  O  O39  1  0.52430200  0.30426100  0.83770700  1
  O  O40  1  0.59886700  0.38436000  0.46490100  1
  O  O41  1  0.27405000  0.00000000  0.95849600  1
  O  O42  1  0.60203550  0.13099850  0.17354400  1
  O  O43  1  0.37047250  0.33302350  0.92961500  1
  O  O44  1  0.40113300  0.61564000  0.53509900  1
  O  O45  1  0.40113300  0.38436000  0.53509900  1
  O  O46  1  0.44348850  0.74007650  0.34980200  1
  O  O47  1  0.60203550  0.86900150  0.17354400  1
  O  O48  1  0.40490700  0.11793300  0.52669100  1
  O  O49  1  0.55651150  0.74007650  0.65019800  1
  O  O50  1  0.47569800  0.30426100  0.16229300  1
  O  O51  1  0.37047250  0.66697650  0.92961500  1
  O  O52  1  0.34830450  0.86320750  0.20072100  1
  O  O53  1  0.70109400  0.00000000  0.35386800  1
  O  O54  1  0.39796450  0.86900150  0.82645600  1
  O  O55  1  0.65169550  0.86320750  0.79927900  1
  O  O56  1  0.87211300  0.00000000  0.70850300  1
  O  O57  1  0.18345950  0.86842850  0.77592900  1
  O  O58  1  0.62952750  0.66697650  0.07038500  1
  O  O59  1  0.39796450  0.13099850  0.82645600  1
  O  O60  1  0.65169550  0.13679250  0.79927900  1
  O  O61  1  0.59509300  0.88206700  0.47330900  1
  O  O62  1  0.40490700  0.88206700  0.52669100  1
  O  O63  1  0.18345950  0.13157150  0.77592900  1
  O  O64  1  0.59886700  0.61564000  0.46490100  1
  O  O65  1  0.50000000  0.82862600  0.00000000  1
  O  O66  1  0.52430200  0.69573900  0.83770700  1
  O  O67  1  0.74091500  0.00000000  0.55610100  1
  O  O68  1  0.34830450  0.13679250  0.20072100  1
  O  O69  1  0.81654050  0.86842850  0.22407100  1
  O  O70  1  0.72595000  0.00000000  0.04150400  1
  O  O71  1  0.59509300  0.11793300  0.47330900  1
  O  O72  1  0.62952750  0.33302350  0.07038500  1
  O  O73  1  0.12788700  0.00000000  0.29149700  1
  O  O74  1  0.25908500  0.00000000  0.44389900  1
  O  O75  1  0.29890600  0.00000000  0.64613200  1
  O  O76  1  0.81654050  0.13157150  0.22407100  1
  O  O77  1  0.50000000  0.17137400  0.00000000  1
  O  O78  1  0.94348850  0.75992350  0.34980200  1
  O  O79  1  0.05651150  0.75992350  0.65019800  1
  O  O80  1  0.97569800  0.19573900  0.16229300  1
  O  O81  1  0.02430200  0.80426100  0.83770700  1
  O  O82  1  0.09886700  0.88436000  0.46490100  1
  O  O83  1  0.77405000  0.50000000  0.95849600  1
  O  O84  1  0.10203550  0.63099850  0.17354400  1
  O  O85  1  0.87047250  0.83302350  0.92961500  1
  O  O86  1  0.90113300  0.11564000  0.53509900  1
  O  O87  1  0.90113300  0.88436000  0.53509900  1
  O  O88  1  0.94348850  0.24007650  0.34980200  1
  O  O89  1  0.10203550  0.36900150  0.17354400  1
  O  O90  1  0.90490700  0.61793300  0.52669100  1
  O  O91  1  0.05651150  0.24007650  0.65019800  1
  O  O92  1  0.97569800  0.80426100  0.16229300  1
  O  O93  1  0.87047250  0.16697650  0.92961500  1
  O  O94  1  0.84830450  0.36320750  0.20072100  1
  O  O95  1  0.20109400  0.50000000  0.35386800  1
  O  O96  1  0.89796450  0.36900150  0.82645600  1
  O  O97  1  0.15169550  0.36320750  0.79927900  1
  O  O98  1  0.37211300  0.50000000  0.70850300  1
  O  O99  1  0.68345950  0.36842850  0.77592900  1
  O  O100  1  0.12952750  0.16697650  0.07038500  1
  O  O101  1  0.89796450  0.63099850  0.82645600  1
  O  O102  1  0.15169550  0.63679250  0.79927900  1
  O  O103  1  0.09509300  0.38206700  0.47330900  1
  O  O104  1  0.90490700  0.38206700  0.52669100  1
  O  O105  1  0.68345950  0.63157150  0.77592900  1
  O  O106  1  0.09886700  0.11564000  0.46490100  1
  O  O107  1  0.00000000  0.32862600  0.00000000  1
  O  O108  1  0.02430200  0.19573900  0.83770700  1
  O  O109  1  0.24091500  0.50000000  0.55610100  1
  O  O110  1  0.84830450  0.63679250  0.20072100  1
  O  O111  1  0.31654050  0.36842850  0.22407100  1
  O  O112  1  0.22595000  0.50000000  0.04150400  1
  O  O113  1  0.09509300  0.61793300  0.47330900  1
  O  O114  1  0.12952750  0.83302350  0.07038500  1
  O  O115  1  0.62788700  0.50000000  0.29149700  1
  O  O116  1  0.75908500  0.50000000  0.44389900  1
  O  O117  1  0.79890600  0.50000000  0.64613200  1
  O  O118  1  0.31654050  0.63157150  0.22407100  1
  O  O119  1  0.00000000  0.67137400  0.00000000  1
