# generated using pymatgen
data_InCl
_symmetry_space_group_name_H-M   'P 1'
_cell_length_a   4.41143600
_cell_length_b   12.43987600
_cell_length_c   4.54414600
_cell_angle_alpha   90.00000000
_cell_angle_beta   90.00000000
_cell_angle_gamma   90.00000000
_symmetry_Int_Tables_number   1
_chemical_formula_structural   InCl
_chemical_formula_sum   'In4 Cl4'
_cell_volume   249.37235739
_cell_formula_units_Z   4
loop_
 _symmetry_equiv_pos_site_id
 _symmetry_equiv_pos_as_xyz
  1  'x, y, z'
loop_
 _atom_site_type_symbol
 _atom_site_label
 _atom_site_symmetry_multiplicity
 _atom_site_fract_x
 _atom_site_fract_y
 _atom_site_fract_z
 _atom_site_occupancy
  In  In0  1  0.00000000  0.61362100  0.75009700  1
  In  In1  1  0.50000000  0.88637900  0.25009700  1
  In  In2  1  0.50000000  0.11362100  0.75009700  1
  In  In3  1  0.00000000  0.38637900  0.25009700  1
  Cl  Cl4  1  0.00000000  0.84446100  0.76590300  1
  Cl  Cl5  1  0.50000000  0.65553900  0.26590300  1
  Cl  Cl6  1  0.50000000  0.34446100  0.76590300  1
  Cl  Cl7  1  0.00000000  0.15553900  0.26590300  1
