# generated using pymatgen
data_CaAl2B2O7
_symmetry_space_group_name_H-M   'P 1'
_cell_length_a   4.86339045
_cell_length_b   4.86339045
_cell_length_c   47.13423938
_cell_angle_alpha   90.00000000
_cell_angle_beta   90.00000000
_cell_angle_gamma   120.00000000
_symmetry_Int_Tables_number   1
_chemical_formula_structural   CaAl2B2O7
_chemical_formula_sum   'Ca6 Al12 B12 O42'
_cell_volume   965.48473170
_cell_formula_units_Z   6
loop_
 _symmetry_equiv_pos_site_id
 _symmetry_equiv_pos_as_xyz
  1  'x, y, z'
loop_
 _atom_site_type_symbol
 _atom_site_label
 _atom_site_symmetry_multiplicity
 _atom_site_fract_x
 _atom_site_fract_y
 _atom_site_fract_z
 _atom_site_occupancy
  Ca  Ca0  1  0.33333333  0.66666667  0.16666667  1
  Ca  Ca1  1  0.00000000  0.00000000  0.00000000  1
  Ca  Ca2  1  1.00000000  0.00000000  0.50000000  1
  Ca  Ca3  1  0.66666667  0.33333333  0.33333333  1
  Ca  Ca4  1  0.66666667  0.33333333  0.83333333  1
  Ca  Ca5  1  0.33333333  0.66666667  0.66666667  1
  Al  Al6  1  0.00000000  0.00000000  0.21414600  1
  Al  Al7  1  0.66666667  0.33333333  0.04747933  1
  Al  Al8  1  0.66666667  0.33333333  0.11918733  1
  Al  Al9  1  0.00000000  0.00000000  0.28585400  1
  Al  Al10  1  0.66666667  0.33333333  0.54747933  1
  Al  Al11  1  0.33333333  0.66666667  0.38081267  1
  Al  Al12  1  0.33333333  0.66666667  0.45252067  1
  Al  Al13  1  0.66666667  0.33333333  0.61918733  1
  Al  Al14  1  0.33333333  0.66666667  0.88081267  1
  Al  Al15  1  0.00000000  0.00000000  0.71414600  1
  Al  Al16  1  0.00000000  0.00000000  0.78585400  1
  Al  Al17  1  0.33333333  0.66666667  0.95252067  1
  B  B18  1  0.66666667  0.33333333  0.19917933  1
  B  B19  1  0.33333333  0.66666667  0.30082067  1
  B  B20  1  0.00000000  0.00000000  0.13415400  1
  B  B21  1  0.33333333  0.66666667  0.03251267  1
  B  B22  1  0.33333333  0.66666667  0.53251267  1
  B  B23  1  0.00000000  0.00000000  0.63415400  1
  B  B24  1  0.66666667  0.33333333  0.46748733  1
  B  B25  1  0.00000000  0.00000000  0.36584600  1
  B  B26  1  0.00000000  0.00000000  0.86584600  1
  B  B27  1  0.66666667  0.33333333  0.96748733  1
  B  B28  1  0.33333333  0.66666667  0.80082067  1
  B  B29  1  0.66666667  0.33333333  0.69917933  1
  O  O30  1  0.59662333  0.62858967  0.03155267  1
  O  O31  1  0.92995667  0.63470033  0.19821933  1
  O  O32  1  0.73671000  0.69863300  0.13511400  1
  O  O33  1  0.63470033  0.92995667  0.30178067  1
  O  O34  1  0.07004333  0.70474367  0.30178067  1
  O  O35  1  0.37141033  0.96803367  0.03155267  1
  O  O36  1  0.36529967  0.29525633  0.19821933  1
  O  O37  1  0.30136700  0.03807700  0.13511400  1
  O  O38  1  0.70474367  0.07004333  0.19821933  1
  O  O39  1  0.29525633  0.36529967  0.30178067  1
  O  O40  1  0.03196633  0.40337667  0.03155267  1
  O  O41  1  0.00000000  0.00000000  0.25000000  1
  O  O42  1  0.96192300  0.26329000  0.13511400  1
  O  O43  1  0.66666667  0.33333333  0.08333333  1
  O  O44  1  0.26329000  0.96192300  0.36488600  1
  O  O45  1  0.59662333  0.96803367  0.53155267  1
  O  O46  1  0.40337667  0.03196633  0.46844733  1
  O  O47  1  0.30136700  0.26329000  0.63511400  1
  O  O48  1  0.73671000  0.03807700  0.63511400  1
  O  O49  1  0.03807700  0.30136700  0.36488600  1
  O  O50  1  0.03196633  0.62858967  0.53155267  1
  O  O51  1  0.96803367  0.37141033  0.46844733  1
  O  O52  1  0.37141033  0.40337667  0.53155267  1
  O  O53  1  0.96192300  0.69863300  0.63511400  1
  O  O54  1  0.69863300  0.73671000  0.36488600  1
  O  O55  1  0.66666667  0.33333333  0.58333333  1
  O  O56  1  0.62858967  0.59662333  0.46844733  1
  O  O57  1  0.33333333  0.66666667  0.41666667  1
  O  O58  1  0.92995667  0.29525633  0.69821933  1
  O  O59  1  0.26329000  0.30136700  0.86488600  1
  O  O60  1  0.07004333  0.36529967  0.80178067  1
  O  O61  1  0.96803367  0.59662333  0.96844733  1
  O  O62  1  0.40337667  0.37141033  0.96844733  1
  O  O63  1  0.70474367  0.63470033  0.69821933  1
  O  O64  1  0.69863300  0.96192300  0.86488600  1
  O  O65  1  0.63470033  0.70474367  0.80178067  1
  O  O66  1  0.03807700  0.73671000  0.86488600  1
  O  O67  1  0.62858967  0.03196633  0.96844733  1
  O  O68  1  0.36529967  0.07004333  0.69821933  1
  O  O69  1  0.33333333  0.66666667  0.91666667  1
  O  O70  1  0.29525633  0.92995667  0.80178067  1
  O  O71  1  0.00000000  0.00000000  0.75000000  1
