# generated using pymatgen
data_Tl10Hg3Cl16
_symmetry_space_group_name_H-M   'P 1'
_cell_length_a   8.64799000
_cell_length_b   8.64799000
_cell_length_c   24.43843000
_cell_angle_alpha   90.00000000
_cell_angle_beta   90.00000000
_cell_angle_gamma   90.00000000
_symmetry_Int_Tables_number   1
_chemical_formula_structural   Tl10Hg3Cl16
_chemical_formula_sum   'Tl20 Hg6 Cl32'
_cell_volume   1827.69472988
_cell_formula_units_Z   2
loop_
 _symmetry_equiv_pos_site_id
 _symmetry_equiv_pos_as_xyz
  1  'x, y, z'
loop_
 _atom_site_type_symbol
 _atom_site_label
 _atom_site_symmetry_multiplicity
 _atom_site_fract_x
 _atom_site_fract_y
 _atom_site_fract_z
 _atom_site_occupancy
  Tl  Tl0  1  0.36314550  0.82705850  0.08928650  1
  Tl  Tl1  1  0.17294150  0.36314550  0.08928650  1
  Tl  Tl2  1  0.86314550  0.32705850  0.41071350  1
  Tl  Tl3  1  0.50000000  0.50000000  0.23695000  1
  Tl  Tl4  1  0.13685450  0.67294150  0.41071350  1
  Tl  Tl5  1  0.32705850  0.13685450  0.41071350  1
  Tl  Tl6  1  0.67294150  0.86314550  0.41071350  1
  Tl  Tl7  1  0.82705850  0.63685450  0.08928650  1
  Tl  Tl8  1  0.00000000  0.00000000  0.26305000  1
  Tl  Tl9  1  0.63685450  0.17294150  0.08928650  1
  Tl  Tl10  1  0.86314550  0.32705850  0.58928650  1
  Tl  Tl11  1  0.67294150  0.86314550  0.58928650  1
  Tl  Tl12  1  0.36314550  0.82705850  0.91071350  1
  Tl  Tl13  1  0.00000000  0.00000000  0.73695000  1
  Tl  Tl14  1  0.63685450  0.17294150  0.91071350  1
  Tl  Tl15  1  0.82705850  0.63685450  0.91071350  1
  Tl  Tl16  1  0.17294150  0.36314550  0.91071350  1
  Tl  Tl17  1  0.32705850  0.13685450  0.58928650  1
  Tl  Tl18  1  0.50000000  0.50000000  0.76305000  1
  Tl  Tl19  1  0.13685450  0.67294150  0.58928650  1
  Hg  Hg20  1  0.00000000  0.00000000  0.00000000  1
  Hg  Hg21  1  0.50000000  0.00000000  0.25000000  1
  Hg  Hg22  1  0.00000000  0.50000000  0.25000000  1
  Hg  Hg23  1  0.50000000  0.50000000  0.50000000  1
  Hg  Hg24  1  0.00000000  0.50000000  0.75000000  1
  Hg  Hg25  1  0.50000000  0.00000000  0.75000000  1
  Cl  Cl26  1  0.00000000  0.00000000  0.39423900  1
  Cl  Cl27  1  0.17440900  0.34955300  0.31466900  1
  Cl  Cl28  1  0.84877650  0.32648450  0.00000000  1
  Cl  Cl29  1  0.67440900  0.84955300  0.18533100  1
  Cl  Cl30  1  0.65044700  0.17440900  0.31466900  1
  Cl  Cl31  1  0.34955300  0.82559100  0.31466900  1
  Cl  Cl32  1  0.15044700  0.67440900  0.18533100  1
  Cl  Cl33  1  0.84955300  0.32559100  0.18533100  1
  Cl  Cl34  1  0.32559100  0.15044700  0.18533100  1
  Cl  Cl35  1  0.00000000  0.00000000  0.09706200  1
  Cl  Cl36  1  0.67351550  0.84877650  0.00000000  1
  Cl  Cl37  1  0.65122350  0.17351550  0.50000000  1
  Cl  Cl38  1  0.82559100  0.65044700  0.31466900  1
  Cl  Cl39  1  0.50000000  0.50000000  0.10576100  1
  Cl  Cl40  1  0.32648450  0.15122350  0.00000000  1
  Cl  Cl41  1  0.50000000  0.50000000  0.40293800  1
  Cl  Cl42  1  0.50000000  0.50000000  0.89423900  1
  Cl  Cl43  1  0.67440900  0.84955300  0.81466900  1
  Cl  Cl44  1  0.34877650  0.82648450  0.50000000  1
  Cl  Cl45  1  0.17440900  0.34955300  0.68533100  1
  Cl  Cl46  1  0.15044700  0.67440900  0.81466900  1
  Cl  Cl47  1  0.84955300  0.32559100  0.81466900  1
  Cl  Cl48  1  0.65044700  0.17440900  0.68533100  1
  Cl  Cl49  1  0.34955300  0.82559100  0.68533100  1
  Cl  Cl50  1  0.82559100  0.65044700  0.68533100  1
  Cl  Cl51  1  0.50000000  0.50000000  0.59706200  1
  Cl  Cl52  1  0.17351550  0.34877650  0.50000000  1
  Cl  Cl53  1  0.15122350  0.67351550  0.00000000  1
  Cl  Cl54  1  0.32559100  0.15044700  0.81466900  1
  Cl  Cl55  1  0.00000000  0.00000000  0.60576100  1
  Cl  Cl56  1  0.82648450  0.65122350  0.50000000  1
  Cl  Cl57  1  0.00000000  0.00000000  0.90293800  1
