# generated using pymatgen
data_NdGa3(BO3)4
_symmetry_space_group_name_H-M   'P 1'
_cell_length_a   9.59600497
_cell_length_b   9.59600497
_cell_length_c   7.62376368
_cell_angle_alpha   90.00000000
_cell_angle_beta   90.00000000
_cell_angle_gamma   120.00000000
_symmetry_Int_Tables_number   1
_chemical_formula_structural   NdGa3(BO3)4
_chemical_formula_sum   'Nd3 Ga9 B12 O36'
_cell_volume   607.96837110
_cell_formula_units_Z   3
loop_
 _symmetry_equiv_pos_site_id
 _symmetry_equiv_pos_as_xyz
  1  'x, y, z'
loop_
 _atom_site_type_symbol
 _atom_site_label
 _atom_site_symmetry_multiplicity
 _atom_site_fract_x
 _atom_site_fract_y
 _atom_site_fract_z
 _atom_site_occupancy
  Nd  Nd0  1  0.00000000  0.00000000  0.00000000  1
  Nd  Nd1  1  0.66666667  0.33333333  0.33333333  1
  Nd  Nd2  1  0.33333333  0.66666667  0.66666667  1
  Ga  Ga3  1  0.11513167  0.33333333  0.33333333  1
  Ga  Ga4  1  0.66666667  0.78179833  0.33333333  1
  Ga  Ga5  1  0.21820167  0.88486833  0.33333333  1
  Ga  Ga6  1  0.78179833  0.66666667  0.66666667  1
  Ga  Ga7  1  0.33333333  0.11513167  0.66666667  1
  Ga  Ga8  1  0.88486833  0.21820167  0.66666667  1
  Ga  Ga9  1  0.44846500  0.00000000  0.00000000  1
  Ga  Ga10  1  0.00000000  0.44846500  0.00000000  1
  Ga  Ga11  1  0.55153500  0.55153500  0.00000000  1
  B  B12  1  0.55529800  0.00000000  0.50000000  1
  B  B13  1  0.00000000  0.00000000  0.50000000  1
  B  B14  1  0.00000000  0.55529800  0.50000000  1
  B  B15  1  0.44470200  0.44470200  0.50000000  1
  B  B16  1  0.22196467  0.33333333  0.83333333  1
  B  B17  1  0.66666667  0.33333333  0.83333333  1
  B  B18  1  0.66666667  0.88863133  0.83333333  1
  B  B19  1  0.11136867  0.77803533  0.83333333  1
  B  B20  1  0.88863133  0.66666667  0.16666667  1
  B  B21  1  0.33333333  0.66666667  0.16666667  1
  B  B22  1  0.33333333  0.22196467  0.16666667  1
  B  B23  1  0.77803533  0.11136867  0.16666667  1
  O  O24  1  0.14585300  0.69421400  0.48005800  1
  O  O25  1  0.00000000  0.40985900  0.50000000  1
  O  O26  1  0.59014100  0.59014100  0.50000000  1
  O  O27  1  0.40985900  0.00000000  0.50000000  1
  O  O28  1  0.69421400  0.14585300  0.51994200  1
  O  O29  1  0.85414700  0.54836100  0.51994200  1
  O  O30  1  0.54836100  0.85414700  0.48005800  1
  O  O31  1  0.14517700  0.00000000  0.50000000  1
  O  O32  1  0.00000000  0.14517700  0.50000000  1
  O  O33  1  0.85482300  0.85482300  0.50000000  1
  O  O34  1  0.45163900  0.30578600  0.51994200  1
  O  O35  1  0.30578600  0.45163900  0.48005800  1
  O  O36  1  0.81251967  0.02754733  0.81339133  1
  O  O37  1  0.66666667  0.74319233  0.83333333  1
  O  O38  1  0.25680767  0.92347433  0.83333333  1
  O  O39  1  0.07652567  0.33333333  0.83333333  1
  O  O40  1  0.36088067  0.47918633  0.85327533  1
  O  O41  1  0.52081367  0.88169433  0.85327533  1
  O  O42  1  0.21502767  0.18748033  0.81339133  1
  O  O43  1  0.81184367  0.33333333  0.83333333  1
  O  O44  1  0.66666667  0.47851033  0.83333333  1
  O  O45  1  0.52148967  0.18815633  0.83333333  1
  O  O46  1  0.11830567  0.63911933  0.85327533  1
  O  O47  1  0.97245267  0.78497233  0.81339133  1
  O  O48  1  0.47918633  0.36088067  0.14672467  1
  O  O49  1  0.33333333  0.07652567  0.16666667  1
  O  O50  1  0.92347433  0.25680767  0.16666667  1
  O  O51  1  0.74319233  0.66666667  0.16666667  1
  O  O52  1  0.02754733  0.81251967  0.18660867  1
  O  O53  1  0.18748033  0.21502767  0.18660867  1
  O  O54  1  0.88169433  0.52081367  0.14672467  1
  O  O55  1  0.47851033  0.66666667  0.16666667  1
  O  O56  1  0.33333333  0.81184367  0.16666667  1
  O  O57  1  0.18815633  0.52148967  0.16666667  1
  O  O58  1  0.78497233  0.97245267  0.18660867  1
  O  O59  1  0.63911933  0.11830567  0.14672467  1
