# generated using pymatgen
data_K3B12H12Br
_symmetry_space_group_name_H-M   'P 1'
_cell_length_a   10.19690853
_cell_length_b   10.19690853
_cell_length_c   11.11613267
_cell_angle_alpha   90.00000000
_cell_angle_beta   90.00000000
_cell_angle_gamma   120.00000000
_symmetry_Int_Tables_number   1
_chemical_formula_structural   K3B12H12Br
_chemical_formula_sum   'K9 B36 H36 Br3'
_cell_volume   1000.97078013
_cell_formula_units_Z   3
loop_
 _symmetry_equiv_pos_site_id
 _symmetry_equiv_pos_as_xyz
  1  'x, y, z'
loop_
 _atom_site_type_symbol
 _atom_site_label
 _atom_site_symmetry_multiplicity
 _atom_site_fract_x
 _atom_site_fract_y
 _atom_site_fract_z
 _atom_site_occupancy
  K  K0  1  0.16666667  0.83333333  0.33333333  1
  K  K1  1  0.66666667  0.83333333  0.33333333  1
  K  K2  1  0.16666667  0.33333333  0.33333333  1
  K  K3  1  0.83333333  0.16666667  0.66666667  1
  K  K4  1  0.33333333  0.16666667  0.66666667  1
  K  K5  1  0.83333333  0.66666667  0.66666667  1
  K  K6  1  0.50000000  0.50000000  0.00000000  1
  K  K7  1  0.00000000  0.50000000  0.00000000  1
  K  K8  1  0.50000000  0.00000000  0.00000000  1
  B  B9  1  0.05795867  0.11591733  0.87909033  1
  B  B10  1  0.05795867  0.94204133  0.87909033  1
  B  B11  1  0.88408267  0.94204133  0.87909033  1
  B  B12  1  0.11591733  0.05795867  0.12090967  1
  B  B13  1  0.94204133  0.88408267  0.12090967  1
  B  B14  1  0.94204133  0.05795867  0.12090967  1
  B  B15  1  0.76071833  0.52143667  0.36208767  1
  B  B16  1  0.76071833  0.23928167  0.36208767  1
  B  B17  1  0.47856333  0.23928167  0.36208767  1
  B  B18  1  0.52143667  0.76071833  0.63791233  1
  B  B19  1  0.23928167  0.47856333  0.63791233  1
  B  B20  1  0.23928167  0.76071833  0.63791233  1
  B  B21  1  0.72462533  0.44925067  0.21242367  1
  B  B22  1  0.72462533  0.27537467  0.21242367  1
  B  B23  1  0.55074933  0.27537467  0.21242367  1
  B  B24  1  0.78258400  0.39129200  0.45424300  1
  B  B25  1  0.60870800  0.21741600  0.45424300  1
  B  B26  1  0.60870800  0.39129200  0.45424300  1
  B  B27  1  0.42738500  0.85477000  0.69542100  1
  B  B28  1  0.42738500  0.57261500  0.69542100  1
  B  B29  1  0.14523000  0.57261500  0.69542100  1
  B  B30  1  0.18810333  0.09405167  0.97124567  1
  B  B31  1  0.90594833  0.81189667  0.97124567  1
  B  B32  1  0.90594833  0.09405167  0.97124567  1
  B  B33  1  0.39129200  0.78258400  0.54575700  1
  B  B34  1  0.39129200  0.60870800  0.54575700  1
  B  B35  1  0.21741600  0.60870800  0.54575700  1
  B  B36  1  0.44925067  0.72462533  0.78757633  1
  B  B37  1  0.27537467  0.55074933  0.78757633  1
  B  B38  1  0.27537467  0.72462533  0.78757633  1
  B  B39  1  0.09405167  0.18810333  0.02875433  1
  B  B40  1  0.09405167  0.90594833  0.02875433  1
  B  B41  1  0.81189667  0.90594833  0.02875433  1
  B  B42  1  0.85477000  0.42738500  0.30457900  1
  B  B43  1  0.57261500  0.14523000  0.30457900  1
  B  B44  1  0.57261500  0.42738500  0.30457900  1
  H  H45  1  0.90119900  0.80239800  0.20728000  1
  H  H46  1  0.90119900  0.09880100  0.20728000  1
  H  H47  1  0.19760200  0.09880100  0.20728000  1
  H  H48  1  0.80239800  0.90119900  0.79272000  1
  H  H49  1  0.09880100  0.19760200  0.79272000  1
  H  H50  1  0.09880100  0.90119900  0.79272000  1
  H  H51  1  0.82757700  0.65515400  0.38392500  1
  H  H52  1  0.82757700  0.17242300  0.38392500  1
  H  H53  1  0.34484600  0.17242300  0.38392500  1
  H  H54  1  0.65515400  0.82757700  0.61607500  1
  H  H55  1  0.17242300  0.34484600  0.61607500  1
  H  H56  1  0.17242300  0.82757700  0.61607500  1
  H  H57  1  0.56786567  0.13573133  0.54061333  1
  H  H58  1  0.56786567  0.43213433  0.54061333  1
  H  H59  1  0.86426867  0.43213433  0.54061333  1
  H  H60  1  0.46906467  0.23453233  0.12605333  1
  H  H61  1  0.76546767  0.53093533  0.12605333  1
  H  H62  1  0.76546767  0.23453233  0.12605333  1
  H  H63  1  0.49424367  0.98848733  0.71725833  1
  H  H64  1  0.49424367  0.50575633  0.71725833  1
  H  H65  1  0.01151267  0.50575633  0.71725833  1
  H  H66  1  0.32182067  0.16091033  0.94940833  1
  H  H67  1  0.83908967  0.67817933  0.94940833  1
  H  H68  1  0.83908967  0.16091033  0.94940833  1
  H  H69  1  0.23453233  0.46906467  0.87394667  1
  H  H70  1  0.23453233  0.76546767  0.87394667  1
  H  H71  1  0.53093533  0.76546767  0.87394667  1
  H  H72  1  0.13573133  0.56786567  0.45938667  1
  H  H73  1  0.43213433  0.86426867  0.45938667  1
  H  H74  1  0.43213433  0.56786567  0.45938667  1
  H  H75  1  0.16091033  0.32182067  0.05059167  1
  H  H76  1  0.16091033  0.83908967  0.05059167  1
  H  H77  1  0.67817933  0.83908967  0.05059167  1
  H  H78  1  0.98848733  0.49424367  0.28274167  1
  H  H79  1  0.50575633  0.01151267  0.28274167  1
  H  H80  1  0.50575633  0.49424367  0.28274167  1
  Br  Br81  1  0.00000000  0.00000000  0.50000000  1
  Br  Br82  1  0.66666667  0.33333333  0.83333333  1
  Br  Br83  1  0.33333333  0.66666667  0.16666667  1
