# generated using pymatgen
data_K5U2O4F9
_symmetry_space_group_name_H-M   'P 1'
_cell_length_a   19.98730800
_cell_length_b   6.25836000
_cell_length_c   11.71758246
_cell_angle_alpha   90.00000000
_cell_angle_beta   101.72192296
_cell_angle_gamma   90.00000000
_symmetry_Int_Tables_number   1
_chemical_formula_structural   K5U2O4F9
_chemical_formula_sum   'K20 U8 O16 F36'
_cell_volume   1435.15874131
_cell_formula_units_Z   4
loop_
 _symmetry_equiv_pos_site_id
 _symmetry_equiv_pos_as_xyz
  1  'x, y, z'
loop_
 _atom_site_type_symbol
 _atom_site_label
 _atom_site_symmetry_multiplicity
 _atom_site_fract_x
 _atom_site_fract_y
 _atom_site_fract_z
 _atom_site_occupancy
  K  K0  1  0.68063850  0.25890950  0.13346500  1
  K  K1  1  0.52267450  0.75305650  0.91892900  1
  K  K2  1  0.97732550  0.74694350  0.08107100  1
  K  K3  1  0.81936150  0.24109050  0.86653500  1
  K  K4  1  0.68063850  0.74109050  0.63346500  1
  K  K5  1  0.97732550  0.25305650  0.58107100  1
  K  K6  1  0.75000000  0.75000000  0.00000000  1
  K  K7  1  0.52267450  0.24694350  0.41892900  1
  K  K8  1  0.81936150  0.75890950  0.36653500  1
  K  K9  1  0.75000000  0.25000000  0.50000000  1
  K  K10  1  0.18063850  0.75890950  0.13346500  1
  K  K11  1  0.02267450  0.25305650  0.91892900  1
  K  K12  1  0.47732550  0.24694350  0.08107100  1
  K  K13  1  0.31936150  0.74109050  0.86653500  1
  K  K14  1  0.18063850  0.24109050  0.63346500  1
  K  K15  1  0.47732550  0.75305650  0.58107100  1
  K  K16  1  0.25000000  0.25000000  0.00000000  1
  K  K17  1  0.02267450  0.74694350  0.41892900  1
  K  K18  1  0.31936150  0.25890950  0.36653500  1
  K  K19  1  0.25000000  0.75000000  0.50000000  1
  U  U20  1  0.61260250  0.24271950  0.78441600  1
  U  U21  1  0.88739750  0.25728050  0.21558400  1
  U  U22  1  0.61260250  0.75728050  0.28441600  1
  U  U23  1  0.88739750  0.74271950  0.71558400  1
  U  U24  1  0.11260250  0.74271950  0.78441600  1
  U  U25  1  0.38739750  0.75728050  0.21558400  1
  U  U26  1  0.11260250  0.25728050  0.28441600  1
  U  U27  1  0.38739750  0.24271950  0.71558400  1
  O  O28  1  0.85573300  0.51614800  0.14951100  1
  O  O29  1  0.85573300  0.48385200  0.64951100  1
  O  O30  1  0.64426700  0.01614800  0.35048900  1
  O  O31  1  0.57952750  0.50099650  0.71961300  1
  O  O32  1  0.64426700  0.98385200  0.85048900  1
  O  O33  1  0.57952750  0.49900350  0.21961300  1
  O  O34  1  0.92047250  0.99900350  0.28038700  1
  O  O35  1  0.92047250  0.00099650  0.78038700  1
  O  O36  1  0.35573300  0.01614800  0.14951100  1
  O  O37  1  0.35573300  0.98385200  0.64951100  1
  O  O38  1  0.14426700  0.51614800  0.35048900  1
  O  O39  1  0.07952750  0.00099650  0.71961300  1
  O  O40  1  0.14426700  0.48385200  0.85048900  1
  O  O41  1  0.07952750  0.99900350  0.21961300  1
  O  O42  1  0.42047250  0.49900350  0.28038700  1
  O  O43  1  0.42047250  0.50099650  0.78038700  1
  F  F44  1  0.00000000  0.41184400  0.25000000  1
  F  F45  1  0.93342200  0.17034600  0.06111200  1
  F  F46  1  0.90980850  0.56862950  0.88829100  1
  F  F47  1  0.80305950  0.10537650  0.08168200  1
  F  F48  1  0.00000000  0.58815600  0.75000000  1
  F  F49  1  0.70325750  0.29875850  0.69831400  1
  F  F50  1  0.80305950  0.89462350  0.58168200  1
  F  F51  1  0.69694050  0.60537650  0.41831800  1
  F  F52  1  0.56657800  0.67034600  0.43888800  1
  F  F53  1  0.93342200  0.82965400  0.56111200  1
  F  F54  1  0.90980850  0.43137050  0.38829100  1
  F  F55  1  0.59019150  0.06862950  0.61170900  1
  F  F56  1  0.79674250  0.20124150  0.30168600  1
  F  F57  1  0.69694050  0.39462350  0.91831800  1
  F  F58  1  0.59019150  0.93137050  0.11170900  1
  F  F59  1  0.56657800  0.32965400  0.93888800  1
  F  F60  1  0.79674250  0.79875850  0.80168600  1
  F  F61  1  0.70325750  0.70124150  0.19831400  1
  F  F62  1  0.50000000  0.91184400  0.25000000  1
  F  F63  1  0.43342200  0.67034600  0.06111200  1
  F  F64  1  0.40980850  0.06862950  0.88829100  1
  F  F65  1  0.30305950  0.60537650  0.08168200  1
  F  F66  1  0.50000000  0.08815600  0.75000000  1
  F  F67  1  0.20325750  0.79875850  0.69831400  1
  F  F68  1  0.30305950  0.39462350  0.58168200  1
  F  F69  1  0.19694050  0.10537650  0.41831800  1
  F  F70  1  0.06657800  0.17034600  0.43888800  1
  F  F71  1  0.43342200  0.32965400  0.56111200  1
  F  F72  1  0.40980850  0.93137050  0.38829100  1
  F  F73  1  0.09019150  0.56862950  0.61170900  1
  F  F74  1  0.29674250  0.70124150  0.30168600  1
  F  F75  1  0.19694050  0.89462350  0.91831800  1
  F  F76  1  0.09019150  0.43137050  0.11170900  1
  F  F77  1  0.06657800  0.82965400  0.93888800  1
  F  F78  1  0.29674250  0.29875850  0.80168600  1
  F  F79  1  0.20325750  0.20124150  0.19831400  1
