# generated using pymatgen
data_Ga2H6(SeO4)3
_symmetry_space_group_name_H-M   'P 1'
_cell_length_a   9.38925759
_cell_length_b   9.38925759
_cell_length_c   20.11914366
_cell_angle_alpha   90.00000000
_cell_angle_beta   90.00000000
_cell_angle_gamma   120.00000000
_symmetry_Int_Tables_number   1
_chemical_formula_structural   Ga2H6(SeO4)3
_chemical_formula_sum   'Ga12 H36 Se18 O72'
_cell_volume   1536.04037502
_cell_formula_units_Z   6
loop_
 _symmetry_equiv_pos_site_id
 _symmetry_equiv_pos_as_xyz
  1  'x, y, z'
loop_
 _atom_site_type_symbol
 _atom_site_label
 _atom_site_symmetry_multiplicity
 _atom_site_fract_x
 _atom_site_fract_y
 _atom_site_fract_z
 _atom_site_occupancy
  Ga  Ga0  1  0.33333333  0.66666667  0.78977567  1
  Ga  Ga1  1  0.33333333  0.66666667  0.28977567  1
  Ga  Ga2  1  0.33333333  0.66666667  0.02559767  1
  Ga  Ga3  1  0.33333333  0.66666667  0.52559767  1
  Ga  Ga4  1  0.00000000  0.00000000  0.12310900  1
  Ga  Ga5  1  0.00000000  0.00000000  0.62310900  1
  Ga  Ga6  1  0.00000000  0.00000000  0.35893100  1
  Ga  Ga7  1  0.00000000  0.00000000  0.85893100  1
  Ga  Ga8  1  0.66666667  0.33333333  0.45644233  1
  Ga  Ga9  1  0.66666667  0.33333333  0.95644233  1
  Ga  Ga10  1  0.66666667  0.33333333  0.69226433  1
  Ga  Ga11  1  0.66666667  0.33333333  0.19226433  1
  H  H12  1  0.11162267  0.74471633  0.07714533  1
  H  H13  1  0.63309367  0.88837733  0.07714533  1
  H  H14  1  0.25528367  0.36690633  0.07714533  1
  H  H15  1  0.58861700  0.55504400  0.24381200  1
  H  H16  1  0.96642700  0.41138300  0.24381200  1
  H  H17  1  0.44495600  0.03357300  0.24381200  1
  H  H18  1  0.24432933  0.77111067  0.13291167  1
  H  H19  1  0.52678133  0.75567067  0.13291167  1
  H  H20  1  0.22888933  0.47321867  0.13291167  1
  H  H21  1  0.56222267  0.42233733  0.29957833  1
  H  H22  1  0.86011467  0.43777733  0.29957833  1
  H  H23  1  0.57766267  0.13988533  0.29957833  1
  H  H24  1  0.77828933  0.07804967  0.41047867  1
  H  H25  1  0.29976033  0.22171067  0.41047867  1
  H  H26  1  0.92195033  0.70023967  0.41047867  1
  H  H27  1  0.25528367  0.88837733  0.57714533  1
  H  H28  1  0.63309367  0.74471633  0.57714533  1
  H  H29  1  0.11162267  0.36690633  0.57714533  1
  H  H30  1  0.91099600  0.10444400  0.46624500  1
  H  H31  1  0.19344800  0.08900400  0.46624500  1
  H  H32  1  0.89555600  0.80655200  0.46624500  1
  H  H33  1  0.22888933  0.75567067  0.63291167  1
  H  H34  1  0.52678133  0.77111067  0.63291167  1
  H  H35  1  0.24432933  0.47321867  0.63291167  1
  H  H36  1  0.44495600  0.41138300  0.74381200  1
  H  H37  1  0.96642700  0.55504400  0.74381200  1
  H  H38  1  0.58861700  0.03357300  0.74381200  1
  H  H39  1  0.92195033  0.22171067  0.91047867  1
  H  H40  1  0.29976033  0.07804967  0.91047867  1
  H  H41  1  0.77828933  0.70023967  0.91047867  1
  H  H42  1  0.57766267  0.43777733  0.79957833  1
  H  H43  1  0.86011467  0.42233733  0.79957833  1
  H  H44  1  0.56222267  0.13988533  0.79957833  1
  H  H45  1  0.89555600  0.08900400  0.96624500  1
  H  H46  1  0.19344800  0.10444400  0.96624500  1
  H  H47  1  0.91099600  0.80655200  0.96624500  1
  Se  Se48  1  0.05471267  0.49191833  0.41008533  1
  Se  Se49  1  0.43720567  0.94528733  0.41008533  1
  Se  Se50  1  0.50808167  0.56279433  0.41008533  1
  Se  Se51  1  0.17474833  0.27862067  0.24341867  1
  Se  Se52  1  0.10387233  0.82525167  0.24341867  1
  Se  Se53  1  0.72137933  0.89612767  0.24341867  1
  Se  Se54  1  0.72137933  0.82525167  0.74341867  1
  Se  Se55  1  0.10387233  0.27862067  0.74341867  1
  Se  Se56  1  0.17474833  0.89612767  0.74341867  1
  Se  Se57  1  0.84141500  0.61195400  0.57675200  1
  Se  Se58  1  0.77053900  0.15858500  0.57675200  1
  Se  Se59  1  0.38804600  0.22946100  0.57675200  1
  Se  Se60  1  0.38804600  0.15858500  0.07675200  1
  Se  Se61  1  0.77053900  0.61195400  0.07675200  1
  Se  Se62  1  0.84141500  0.22946100  0.07675200  1
  Se  Se63  1  0.50808167  0.94528733  0.91008533  1
  Se  Se64  1  0.43720567  0.49191833  0.91008533  1
  Se  Se65  1  0.05471267  0.56279433  0.91008533  1
  O  O66  1  0.19693433  0.14912767  0.06602567  1
  O  O67  1  0.95219333  0.80306567  0.06602567  1
  O  O68  1  0.85087233  0.04780667  0.06602567  1
  O  O69  1  0.18420567  0.46973233  0.23269233  1
  O  O70  1  0.28552667  0.81579433  0.23269233  1
  O  O71  1  0.53026767  0.71447333  0.23269233  1
  O  O72  1  0.15238900  0.95928900  0.17718300  1
  O  O73  1  0.80690000  0.84761100  0.17718300  1
  O  O74  1  0.04071100  0.19310000  0.17718300  1
  O  O75  1  0.37404433  0.51427767  0.34384967  1
  O  O76  1  0.14023333  0.62595567  0.34384967  1
  O  O77  1  0.48572233  0.85976667  0.34384967  1
  O  O78  1  0.13709967  0.62843333  0.47612333  1
  O  O79  1  0.49133367  0.86290033  0.47612333  1
  O  O80  1  0.37156667  0.50866633  0.47612333  1
  O  O81  1  0.37156667  0.86290033  0.97612333  1
  O  O82  1  0.49133367  0.62843333  0.97612333  1
  O  O83  1  0.13709967  0.50866633  0.97612333  1
  O  O84  1  0.19353533  0.71254967  0.09115667  1
  O  O85  1  0.51901433  0.80646467  0.09115667  1
  O  O86  1  0.28745033  0.48098567  0.09115667  1
  O  O87  1  0.62078367  0.47313133  0.25782333  1
  O  O88  1  0.85234767  0.37921633  0.25782333  1
  O  O89  1  0.52686867  0.14765233  0.25782333  1
  O  O90  1  0.86360100  0.48246100  0.39935900  1
  O  O91  1  0.61886000  0.13639900  0.39935900  1
  O  O92  1  0.51753900  0.38114000  0.39935900  1
  O  O93  1  0.85087233  0.80306567  0.56602567  1
  O  O94  1  0.95219333  0.14912767  0.56602567  1
  O  O95  1  0.19693433  0.04780667  0.56602567  1
  O  O96  1  0.81905567  0.29262233  0.51051633  1
  O  O97  1  0.47356667  0.18094433  0.51051633  1
  O  O98  1  0.70737767  0.52643333  0.51051633  1
  O  O99  1  0.04071100  0.84761100  0.67718300  1
  O  O100  1  0.80690000  0.95928900  0.67718300  1
  O  O101  1  0.15238900  0.19310000  0.67718300  1
  O  O102  1  0.80376633  0.96176667  0.80945667  1
  O  O103  1  0.15800033  0.19623367  0.80945667  1
  O  O104  1  0.03823333  0.84199967  0.80945667  1
  O  O105  1  0.03823333  0.19623367  0.30945667  1
  O  O106  1  0.15800033  0.96176667  0.30945667  1
  O  O107  1  0.80376633  0.84199967  0.30945667  1
  O  O108  1  0.86020200  0.04588300  0.42449000  1
  O  O109  1  0.18568100  0.13979800  0.42449000  1
  O  O110  1  0.95411700  0.81431900  0.42449000  1
  O  O111  1  0.28745033  0.80646467  0.59115667  1
  O  O112  1  0.51901433  0.71254967  0.59115667  1
  O  O113  1  0.19353533  0.48098567  0.59115667  1
  O  O114  1  0.53026767  0.81579433  0.73269233  1
  O  O115  1  0.28552667  0.46973233  0.73269233  1
  O  O116  1  0.18420567  0.71447333  0.73269233  1
  O  O117  1  0.51753900  0.13639900  0.89935900  1
  O  O118  1  0.61886000  0.48246100  0.89935900  1
  O  O119  1  0.86360100  0.38114000  0.89935900  1
  O  O120  1  0.48572233  0.62595567  0.84384967  1
  O  O121  1  0.14023333  0.51427767  0.84384967  1
  O  O122  1  0.37404433  0.85976667  0.84384967  1
  O  O123  1  0.70737767  0.18094433  0.01051633  1
  O  O124  1  0.47356667  0.29262233  0.01051633  1
  O  O125  1  0.81905567  0.52643333  0.01051633  1
  O  O126  1  0.47043300  0.29510000  0.14279000  1
  O  O127  1  0.82466700  0.52956700  0.14279000  1
  O  O128  1  0.70490000  0.17533300  0.14279000  1
  O  O129  1  0.70490000  0.52956700  0.64279000  1
  O  O130  1  0.82466700  0.29510000  0.64279000  1
  O  O131  1  0.47043300  0.17533300  0.64279000  1
  O  O132  1  0.52686867  0.37921633  0.75782333  1
  O  O133  1  0.85234767  0.47313133  0.75782333  1
  O  O134  1  0.62078367  0.14765233  0.75782333  1
  O  O135  1  0.95411700  0.13979800  0.92449000  1
  O  O136  1  0.18568100  0.04588300  0.92449000  1
  O  O137  1  0.86020200  0.81431900  0.92449000  1
