# generated using pymatgen
data_SiO2
_symmetry_space_group_name_H-M   'P 1'
_cell_length_a   4.76285000
_cell_length_b   9.51854600
_cell_length_c   14.85074800
_cell_angle_alpha   90.00000000
_cell_angle_beta   90.00000000
_cell_angle_gamma   90.00000000
_symmetry_Int_Tables_number   1
_chemical_formula_structural   SiO2
_chemical_formula_sum   'Si16 O32'
_cell_volume   673.26470210
_cell_formula_units_Z   16
loop_
 _symmetry_equiv_pos_site_id
 _symmetry_equiv_pos_as_xyz
  1  'x, y, z'
loop_
 _atom_site_type_symbol
 _atom_site_label
 _atom_site_symmetry_multiplicity
 _atom_site_fract_x
 _atom_site_fract_y
 _atom_site_fract_z
 _atom_site_occupancy
  Si  Si0  1  0.75000000  0.75000000  0.56317500  1
  Si  Si1  1  0.50000000  0.00000000  0.81317500  1
  Si  Si2  1  0.00000000  0.00000000  0.68682500  1
  Si  Si3  1  0.75000000  0.75000000  0.93682500  1
  Si  Si4  1  0.75000000  0.25000000  0.06317500  1
  Si  Si5  1  0.50000000  0.50000000  0.31317500  1
  Si  Si6  1  0.00000000  0.50000000  0.18682500  1
  Si  Si7  1  0.75000000  0.25000000  0.43682500  1
  Si  Si8  1  0.25000000  0.75000000  0.06317500  1
  Si  Si9  1  0.00000000  0.00000000  0.31317500  1
  Si  Si10  1  0.50000000  0.00000000  0.18682500  1
  Si  Si11  1  0.25000000  0.75000000  0.43682500  1
  Si  Si12  1  0.25000000  0.25000000  0.56317500  1
  Si  Si13  1  0.00000000  0.50000000  0.81317500  1
  Si  Si14  1  0.50000000  0.50000000  0.68682500  1
  Si  Si15  1  0.25000000  0.25000000  0.93682500  1
  O  O16  1  0.87500000  0.62500000  0.87500000  1
  O  O17  1  0.87500000  0.87500000  0.62500000  1
  O  O18  1  0.62500000  0.62500000  0.62500000  1
  O  O19  1  0.62500000  0.87500000  0.87500000  1
  O  O20  1  0.50000000  0.68621700  0.00000000  1
  O  O21  1  0.00000000  0.81378300  0.00000000  1
  O  O22  1  0.25000000  0.93621700  0.75000000  1
  O  O23  1  0.25000000  0.56378300  0.75000000  1
  O  O24  1  0.87500000  0.12500000  0.37500000  1
  O  O25  1  0.87500000  0.37500000  0.12500000  1
  O  O26  1  0.62500000  0.12500000  0.12500000  1
  O  O27  1  0.62500000  0.37500000  0.37500000  1
  O  O28  1  0.50000000  0.18621700  0.50000000  1
  O  O29  1  0.00000000  0.31378300  0.50000000  1
  O  O30  1  0.25000000  0.43621700  0.25000000  1
  O  O31  1  0.25000000  0.06378300  0.25000000  1
  O  O32  1  0.37500000  0.62500000  0.37500000  1
  O  O33  1  0.37500000  0.87500000  0.12500000  1
  O  O34  1  0.12500000  0.62500000  0.12500000  1
  O  O35  1  0.12500000  0.87500000  0.37500000  1
  O  O36  1  0.00000000  0.68621700  0.50000000  1
  O  O37  1  0.50000000  0.81378300  0.50000000  1
  O  O38  1  0.75000000  0.93621700  0.25000000  1
  O  O39  1  0.75000000  0.56378300  0.25000000  1
  O  O40  1  0.37500000  0.12500000  0.87500000  1
  O  O41  1  0.37500000  0.37500000  0.62500000  1
  O  O42  1  0.12500000  0.12500000  0.62500000  1
  O  O43  1  0.12500000  0.37500000  0.87500000  1
  O  O44  1  0.00000000  0.18621700  0.00000000  1
  O  O45  1  0.50000000  0.31378300  0.00000000  1
  O  O46  1  0.75000000  0.43621700  0.75000000  1
  O  O47  1  0.75000000  0.06378300  0.75000000  1
