# generated using pymatgen
data_K2Mn(PS3)2
_symmetry_space_group_name_H-M   'P 1'
_cell_length_a   6.19405000
_cell_length_b   12.33154400
_cell_length_c   8.84887198
_cell_angle_alpha   90.00000000
_cell_angle_beta   121.96853564
_cell_angle_gamma   90.00000000
_symmetry_Int_Tables_number   1
_chemical_formula_structural   K2Mn(PS3)2
_chemical_formula_sum   'K4 Mn2 P4 S12'
_cell_volume   573.38918424
_cell_formula_units_Z   2
loop_
 _symmetry_equiv_pos_site_id
 _symmetry_equiv_pos_as_xyz
  1  'x, y, z'
loop_
 _atom_site_type_symbol
 _atom_site_label
 _atom_site_symmetry_multiplicity
 _atom_site_fract_x
 _atom_site_fract_y
 _atom_site_fract_z
 _atom_site_occupancy
  K  K0  1  0.69122200  0.68280400  0.47059600  1
  K  K1  1  0.30877800  0.18280400  0.02940400  1
  K  K2  1  0.30877800  0.31719600  0.52940400  1
  K  K3  1  0.69122200  0.81719600  0.97059600  1
  Mn  Mn4  1  0.00000000  0.00000000  0.50000000  1
  Mn  Mn5  1  0.00000000  0.50000000  0.00000000  1
  P  P6  1  0.64912800  0.46375500  0.13063000  1
  P  P7  1  0.35087200  0.96375500  0.36937000  1
  P  P8  1  0.35087200  0.53624500  0.86937000  1
  P  P9  1  0.64912800  0.03624500  0.63063000  1
  S  S10  1  0.44939500  0.43428600  0.24905400  1
  S  S11  1  0.55060500  0.93428600  0.25094600  1
  S  S12  1  0.55060500  0.56571400  0.75094600  1
  S  S13  1  0.44939500  0.06571400  0.74905400  1
  S  S14  1  0.07032400  0.42289800  0.75219500  1
  S  S15  1  0.92967600  0.92289800  0.74780500  1
  S  S16  1  0.92967600  0.57710200  0.24780500  1
  S  S17  1  0.07032400  0.07710200  0.25219500  1
  S  S18  1  0.21466900  0.66735300  0.93228200  1
  S  S19  1  0.78533100  0.16735300  0.56771800  1
  S  S20  1  0.78533100  0.33264700  0.06771800  1
  S  S21  1  0.21466900  0.83264700  0.43228200  1
