# generated using pymatgen
data_Sr2Cu(BO3)2
_symmetry_space_group_name_H-M   'P 1'
_cell_length_a   7.81744500
_cell_length_b   10.84098600
_cell_length_c   13.70343300
_cell_angle_alpha   90.00000000
_cell_angle_beta   90.00000000
_cell_angle_gamma   90.00000000
_symmetry_Int_Tables_number   1
_chemical_formula_structural   Sr2Cu(BO3)2
_chemical_formula_sum   'Sr16 Cu8 B16 O48'
_cell_volume   1161.34966434
_cell_formula_units_Z   8
loop_
 _symmetry_equiv_pos_site_id
 _symmetry_equiv_pos_as_xyz
  1  'x, y, z'
loop_
 _atom_site_type_symbol
 _atom_site_label
 _atom_site_symmetry_multiplicity
 _atom_site_fract_x
 _atom_site_fract_y
 _atom_site_fract_z
 _atom_site_occupancy
  Sr  Sr0  1  0.38564100  0.25000000  0.95480700  1
  Sr  Sr1  1  0.66421200  0.47655100  0.78347800  1
  Sr  Sr2  1  0.83578800  0.97655100  0.28347800  1
  Sr  Sr3  1  0.16421200  0.02344900  0.71652200  1
  Sr  Sr4  1  0.33578800  0.97655100  0.21652200  1
  Sr  Sr5  1  0.66421200  0.02344900  0.78347800  1
  Sr  Sr6  1  0.33578800  0.52344900  0.21652200  1
  Sr  Sr7  1  0.50000000  0.50000000  0.50000000  1
  Sr  Sr8  1  0.61435900  0.75000000  0.04519300  1
  Sr  Sr9  1  0.16421200  0.47655100  0.71652200  1
  Sr  Sr10  1  0.00000000  0.00000000  0.00000000  1
  Sr  Sr11  1  0.50000000  0.00000000  0.50000000  1
  Sr  Sr12  1  0.83578800  0.52344900  0.28347800  1
  Sr  Sr13  1  0.00000000  0.50000000  0.00000000  1
  Sr  Sr14  1  0.11435900  0.75000000  0.45480700  1
  Sr  Sr15  1  0.88564100  0.25000000  0.54519300  1
  Cu  Cu16  1  0.53145800  0.25000000  0.20001000  1
  Cu  Cu17  1  0.96854200  0.75000000  0.70001000  1
  Cu  Cu18  1  0.80718400  0.25000000  0.92996500  1
  Cu  Cu19  1  0.46854200  0.75000000  0.79999000  1
  Cu  Cu20  1  0.69281600  0.75000000  0.42996500  1
  Cu  Cu21  1  0.03145800  0.25000000  0.29999000  1
  Cu  Cu22  1  0.30718400  0.25000000  0.57003500  1
  Cu  Cu23  1  0.19281600  0.75000000  0.07003500  1
  B  B24  1  0.63167800  0.43708200  0.06763000  1
  B  B25  1  0.98416300  0.25000000  0.78847400  1
  B  B26  1  0.92848200  0.75000000  0.87164700  1
  B  B27  1  0.36832200  0.56291800  0.93237000  1
  B  B28  1  0.57151800  0.25000000  0.37164700  1
  B  B29  1  0.36832200  0.93708200  0.93237000  1
  B  B30  1  0.63167800  0.06291800  0.06763000  1
  B  B31  1  0.86832200  0.93708200  0.56763000  1
  B  B32  1  0.48416300  0.25000000  0.71152600  1
  B  B33  1  0.01583700  0.75000000  0.21152600  1
  B  B34  1  0.86832200  0.56291800  0.56763000  1
  B  B35  1  0.13167800  0.06291800  0.43237000  1
  B  B36  1  0.42848200  0.75000000  0.62835300  1
  B  B37  1  0.07151800  0.25000000  0.12835300  1
  B  B38  1  0.13167800  0.43708200  0.43237000  1
  B  B39  1  0.51583700  0.75000000  0.28847400  1
  O  O40  1  0.56183300  0.64068900  0.33544300  1
  O  O41  1  0.19896300  0.39892400  0.52202000  1
  O  O42  1  0.79689000  0.03581300  0.61457400  1
  O  O43  1  0.01301100  0.87600600  0.60389700  1
  O  O44  1  0.06896500  0.25000000  0.70192700  1
  O  O45  1  0.48698900  0.12399400  0.10389700  1
  O  O46  1  0.30103700  0.89892400  0.02202000  1
  O  O47  1  0.06183300  0.64068900  0.16455700  1
  O  O48  1  0.93103500  0.75000000  0.29807300  1
  O  O49  1  0.06205500  0.14103900  0.18466700  1
  O  O50  1  0.29689000  0.46418700  0.88542600  1
  O  O51  1  0.08621600  0.25000000  0.02995700  1
  O  O52  1  0.19896300  0.10107600  0.52202000  1
  O  O53  1  0.80103700  0.60107600  0.47798000  1
  O  O54  1  0.93816700  0.14068900  0.83544300  1
  O  O55  1  0.56205500  0.14103900  0.31533300  1
  O  O56  1  0.51301100  0.62399400  0.89610300  1
  O  O57  1  0.56896500  0.25000000  0.79807300  1
  O  O58  1  0.93816700  0.35931100  0.83544300  1
  O  O59  1  0.56183300  0.85931100  0.33544300  1
  O  O60  1  0.06183300  0.85931100  0.16455700  1
  O  O61  1  0.98698900  0.12399400  0.39610300  1
  O  O62  1  0.56205500  0.35896100  0.31533300  1
  O  O63  1  0.98698900  0.37600600  0.39610300  1
  O  O64  1  0.01301100  0.62399400  0.60389700  1
  O  O65  1  0.30103700  0.60107600  0.02202000  1
  O  O66  1  0.48698900  0.37600600  0.10389700  1
  O  O67  1  0.58621600  0.25000000  0.47004300  1
  O  O68  1  0.69896300  0.10107600  0.97798000  1
  O  O69  1  0.91378400  0.75000000  0.97004300  1
  O  O70  1  0.20311000  0.53581300  0.38542600  1
  O  O71  1  0.43816700  0.14068900  0.66455700  1
  O  O72  1  0.69896300  0.39892400  0.97798000  1
  O  O73  1  0.70311000  0.96418700  0.11457400  1
  O  O74  1  0.43816700  0.35931100  0.66455700  1
  O  O75  1  0.93794500  0.85896100  0.81533300  1
  O  O76  1  0.43103500  0.75000000  0.20192700  1
  O  O77  1  0.29689000  0.03581300  0.88542600  1
  O  O78  1  0.20311000  0.96418700  0.38542600  1
  O  O79  1  0.93794500  0.64103900  0.81533300  1
  O  O80  1  0.51301100  0.87600600  0.89610300  1
  O  O81  1  0.06205500  0.35896100  0.18466700  1
  O  O82  1  0.80103700  0.89892400  0.47798000  1
  O  O83  1  0.70311000  0.53581300  0.11457400  1
  O  O84  1  0.43794500  0.85896100  0.68466700  1
  O  O85  1  0.41378400  0.75000000  0.52995700  1
  O  O86  1  0.43794500  0.64103900  0.68466700  1
  O  O87  1  0.79689000  0.46418700  0.61457400  1
