# generated using pymatgen
data_InBi2Se4Br
_symmetry_space_group_name_H-M   'P 1'
_cell_length_a   21.25881000
_cell_length_b   4.17206400
_cell_length_c   12.34930066
_cell_angle_alpha   90.00000000
_cell_angle_beta   119.05286554
_cell_angle_gamma   90.00000000
_symmetry_Int_Tables_number   1
_chemical_formula_structural   InBi2Se4Br
_chemical_formula_sum   'In4 Bi8 Se16 Br4'
_cell_volume   957.47881622
_cell_formula_units_Z   4
loop_
 _symmetry_equiv_pos_site_id
 _symmetry_equiv_pos_as_xyz
  1  'x, y, z'
loop_
 _atom_site_type_symbol
 _atom_site_label
 _atom_site_symmetry_multiplicity
 _atom_site_fract_x
 _atom_site_fract_y
 _atom_site_fract_z
 _atom_site_occupancy
  In  In0  1  0.16291000  0.00000000  0.43724900  1
  In  In1  1  0.83709000  0.00000000  0.56275100  1
  In  In2  1  0.66291000  0.50000000  0.43724900  1
  In  In3  1  0.33709000  0.50000000  0.56275100  1
  Bi  Bi4  1  0.29734100  0.50000000  0.90307800  1
  Bi  Bi5  1  0.70265900  0.50000000  0.09692200  1
  Bi  Bi6  1  0.04950500  0.50000000  0.77113700  1
  Bi  Bi7  1  0.95049500  0.50000000  0.22886300  1
  Bi  Bi8  1  0.79734100  0.00000000  0.90307800  1
  Bi  Bi9  1  0.20265900  0.00000000  0.09692200  1
  Bi  Bi10  1  0.54950500  0.00000000  0.77113700  1
  Bi  Bi11  1  0.45049500  0.00000000  0.22886300  1
  Se  Se12  1  0.03908100  0.00000000  0.22170100  1
  Se  Se13  1  0.82192800  0.00000000  0.14359200  1
  Se  Se14  1  0.28525900  0.00000000  0.65175400  1
  Se  Se15  1  0.40352400  0.00000000  0.97719300  1
  Se  Se16  1  0.59647600  0.00000000  0.02280700  1
  Se  Se17  1  0.17807200  0.00000000  0.85640800  1
  Se  Se18  1  0.96091900  0.00000000  0.77829900  1
  Se  Se19  1  0.71474100  0.00000000  0.34824600  1
  Se  Se20  1  0.53908100  0.50000000  0.22170100  1
  Se  Se21  1  0.32192800  0.50000000  0.14359200  1
  Se  Se22  1  0.78525900  0.50000000  0.65175400  1
  Se  Se23  1  0.90352400  0.50000000  0.97719300  1
  Se  Se24  1  0.09647600  0.50000000  0.02280700  1
  Se  Se25  1  0.67807200  0.50000000  0.85640800  1
  Se  Se26  1  0.46091900  0.50000000  0.77829900  1
  Se  Se27  1  0.21474100  0.50000000  0.34824600  1
  Br  Br28  1  0.10208800  0.50000000  0.52983400  1
  Br  Br29  1  0.89791200  0.50000000  0.47016600  1
  Br  Br30  1  0.60208800  0.00000000  0.52983400  1
  Br  Br31  1  0.39791200  0.00000000  0.47016600  1
