# generated using pymatgen
data_Nb2PbO6
_symmetry_space_group_name_H-M   'P 1'
_cell_length_a   10.73416034
_cell_length_b   10.73416034
_cell_length_c   11.79400869
_cell_angle_alpha   90.00000000
_cell_angle_beta   90.00000000
_cell_angle_gamma   120.00000000
_symmetry_Int_Tables_number   1
_chemical_formula_structural   Nb2PbO6
_chemical_formula_sum   'Nb18 Pb9 O54'
_cell_volume   1176.86929405
_cell_formula_units_Z   9
loop_
 _symmetry_equiv_pos_site_id
 _symmetry_equiv_pos_as_xyz
  1  'x, y, z'
loop_
 _atom_site_type_symbol
 _atom_site_label
 _atom_site_symmetry_multiplicity
 _atom_site_fract_x
 _atom_site_fract_y
 _atom_site_fract_z
 _atom_site_occupancy
  Nb  Nb0  1  0.66542133  0.98366467  0.49654167  1
  Nb  Nb1  1  0.01633533  0.68175667  0.49654167  1
  Nb  Nb2  1  0.31824333  0.33457867  0.49654167  1
  Nb  Nb3  1  0.66542133  0.68175667  0.49654167  1
  Nb  Nb4  1  0.31824333  0.98366467  0.49654167  1
  Nb  Nb5  1  0.01633533  0.33457867  0.49654167  1
  Nb  Nb6  1  0.33208800  0.31699800  0.82987500  1
  Nb  Nb7  1  0.68300200  0.01509000  0.82987500  1
  Nb  Nb8  1  0.98491000  0.66791200  0.82987500  1
  Nb  Nb9  1  0.33208800  0.01509000  0.82987500  1
  Nb  Nb10  1  0.98491000  0.31699800  0.82987500  1
  Nb  Nb11  1  0.68300200  0.66791200  0.82987500  1
  Nb  Nb12  1  0.99875467  0.65033133  0.16320833  1
  Nb  Nb13  1  0.34966867  0.34842333  0.16320833  1
  Nb  Nb14  1  0.65157667  0.00124533  0.16320833  1
  Nb  Nb15  1  0.99875467  0.34842333  0.16320833  1
  Nb  Nb16  1  0.65157667  0.65033133  0.16320833  1
  Nb  Nb17  1  0.34966867  0.00124533  0.16320833  1
  Pb  Pb18  1  0.00000000  0.00000000  0.99219900  1
  Pb  Pb19  1  0.00000000  0.00000000  0.64968800  1
  Pb  Pb20  1  0.00000000  0.00000000  0.35365700  1
  Pb  Pb21  1  0.66666667  0.33333333  0.32553233  1
  Pb  Pb22  1  0.66666667  0.33333333  0.98302133  1
  Pb  Pb23  1  0.66666667  0.33333333  0.68699033  1
  Pb  Pb24  1  0.33333333  0.66666667  0.65886567  1
  Pb  Pb25  1  0.33333333  0.66666667  0.31635467  1
  Pb  Pb26  1  0.33333333  0.66666667  0.02032367  1
  O  O27  1  0.30175133  0.15087567  0.20872767  1
  O  O28  1  0.84912433  0.15087567  0.20872767  1
  O  O29  1  0.84912433  0.69824867  0.20872767  1
  O  O30  1  0.28305800  0.28236400  0.67831100  1
  O  O31  1  0.71763600  0.00069400  0.67831100  1
  O  O32  1  0.99930600  0.71694200  0.67831100  1
  O  O33  1  0.28305800  0.00069400  0.67831100  1
  O  O34  1  0.99930600  0.28236400  0.67831100  1
  O  O35  1  0.71763600  0.71694200  0.67831100  1
  O  O36  1  0.09328667  0.18657333  0.48822033  1
  O  O37  1  0.81342667  0.90671333  0.48822033  1
  O  O38  1  0.09328667  0.90671333  0.48822033  1
  O  O39  1  0.52990133  0.76495067  0.53800267  1
  O  O40  1  0.23504933  0.76495067  0.53800267  1
  O  O41  1  0.23504933  0.47009867  0.53800267  1
  O  O42  1  0.35815667  0.17907833  0.48309533  1
  O  O43  1  0.82092167  0.17907833  0.48309533  1
  O  O44  1  0.82092167  0.64184333  0.48309533  1
  O  O45  1  0.96841800  0.48420900  0.54206100  1
  O  O46  1  0.51579100  0.48420900  0.54206100  1
  O  O47  1  0.51579100  0.03158200  0.54206100  1
  O  O48  1  0.94972467  0.61569733  0.01164433  1
  O  O49  1  0.38430267  0.33402733  0.01164433  1
  O  O50  1  0.66597267  0.05027533  0.01164433  1
  O  O51  1  0.94972467  0.33402733  0.01164433  1
  O  O52  1  0.66597267  0.61569733  0.01164433  1
  O  O53  1  0.38430267  0.05027533  0.01164433  1
  O  O54  1  0.75995333  0.51990667  0.82155367  1
  O  O55  1  0.48009333  0.24004667  0.82155367  1
  O  O56  1  0.75995333  0.24004667  0.82155367  1
  O  O57  1  0.19656800  0.09828400  0.87133600  1
  O  O58  1  0.90171600  0.09828400  0.87133600  1
  O  O59  1  0.90171600  0.80343200  0.87133600  1
  O  O60  1  0.02482333  0.51241167  0.81642867  1
  O  O61  1  0.48758833  0.51241167  0.81642867  1
  O  O62  1  0.48758833  0.97517667  0.81642867  1
  O  O63  1  0.63508467  0.81754233  0.87539433  1
  O  O64  1  0.18245767  0.81754233  0.87539433  1
  O  O65  1  0.18245767  0.36491533  0.87539433  1
  O  O66  1  0.61639133  0.94903067  0.34497767  1
  O  O67  1  0.05096933  0.66736067  0.34497767  1
  O  O68  1  0.33263933  0.38360867  0.34497767  1
  O  O69  1  0.61639133  0.66736067  0.34497767  1
  O  O70  1  0.33263933  0.94903067  0.34497767  1
  O  O71  1  0.05096933  0.38360867  0.34497767  1
  O  O72  1  0.42662000  0.85324000  0.15488700  1
  O  O73  1  0.14676000  0.57338000  0.15488700  1
  O  O74  1  0.42662000  0.57338000  0.15488700  1
  O  O75  1  0.86323467  0.43161733  0.20466933  1
  O  O76  1  0.56838267  0.43161733  0.20466933  1
  O  O77  1  0.56838267  0.13676533  0.20466933  1
  O  O78  1  0.69149000  0.84574500  0.14976200  1
  O  O79  1  0.15425500  0.84574500  0.14976200  1
  O  O80  1  0.15425500  0.30851000  0.14976200  1
