# generated using pymatgen
data_Sn4SI6
_symmetry_space_group_name_H-M   'P 1'
_cell_length_a   14.66477600
_cell_length_b   4.45897400
_cell_length_c   25.76732842
_cell_angle_alpha   90.00000000
_cell_angle_beta   93.86550347
_cell_angle_gamma   90.00000000
_symmetry_Int_Tables_number   1
_chemical_formula_structural   Sn4SI6
_chemical_formula_sum   'Sn16 S4 I24'
_cell_volume   1681.08875117
_cell_formula_units_Z   4
loop_
 _symmetry_equiv_pos_site_id
 _symmetry_equiv_pos_as_xyz
  1  'x, y, z'
loop_
 _atom_site_type_symbol
 _atom_site_label
 _atom_site_symmetry_multiplicity
 _atom_site_fract_x
 _atom_site_fract_y
 _atom_site_fract_z
 _atom_site_occupancy
  Sn  Sn0  1  0.70467800  0.00000000  0.14357000  1
  Sn  Sn1  1  0.79532200  0.50000000  0.85643000  1
  Sn  Sn2  1  0.77857200  0.00000000  0.58313000  1
  Sn  Sn3  1  0.72142800  0.50000000  0.41687000  1
  Sn  Sn4  1  0.63286400  0.00000000  0.98327900  1
  Sn  Sn5  1  0.86713600  0.50000000  0.01672100  1
  Sn  Sn6  1  0.96446300  0.50000000  0.28366400  1
  Sn  Sn7  1  0.53553700  0.00000000  0.71633600  1
  Sn  Sn8  1  0.20467800  0.50000000  0.14357000  1
  Sn  Sn9  1  0.29532200  0.00000000  0.85643000  1
  Sn  Sn10  1  0.27857200  0.50000000  0.58313000  1
  Sn  Sn11  1  0.22142800  0.00000000  0.41687000  1
  Sn  Sn12  1  0.13286400  0.50000000  0.98327900  1
  Sn  Sn13  1  0.36713600  0.00000000  0.01672100  1
  Sn  Sn14  1  0.46446300  0.00000000  0.28366400  1
  Sn  Sn15  1  0.03553700  0.50000000  0.71633600  1
  S  S16  1  0.72400300  0.50000000  0.94856700  1
  S  S17  1  0.77599700  0.00000000  0.05143300  1
  S  S18  1  0.22400300  0.00000000  0.94856700  1
  S  S19  1  0.27599700  0.50000000  0.05143300  1
  I  I20  1  0.57101300  0.50000000  0.08087500  1
  I  I21  1  0.92898700  0.00000000  0.91912500  1
  I  I22  1  0.85388600  0.00000000  0.47465800  1
  I  I23  1  0.64611400  0.50000000  0.52534200  1
  I  I24  1  0.82346300  0.00000000  0.31836200  1
  I  I25  1  0.67653700  0.50000000  0.68163800  1
  I  I26  1  0.56556400  0.00000000  0.39761800  1
  I  I27  1  0.93443600  0.50000000  0.60238200  1
  I  I28  1  0.59892300  0.50000000  0.24761900  1
  I  I29  1  0.90107700  0.00000000  0.75238100  1
  I  I30  1  0.85731400  0.50000000  0.16581900  1
  I  I31  1  0.64268600  0.00000000  0.83418100  1
  I  I32  1  0.07101300  0.00000000  0.08087500  1
  I  I33  1  0.42898700  0.50000000  0.91912500  1
  I  I34  1  0.35388600  0.50000000  0.47465800  1
  I  I35  1  0.14611400  0.00000000  0.52534200  1
  I  I36  1  0.32346300  0.50000000  0.31836200  1
  I  I37  1  0.17653700  0.00000000  0.68163800  1
  I  I38  1  0.06556400  0.50000000  0.39761800  1
  I  I39  1  0.43443600  0.00000000  0.60238200  1
  I  I40  1  0.09892300  0.00000000  0.24761900  1
  I  I41  1  0.40107700  0.50000000  0.75238100  1
  I  I42  1  0.35731400  0.00000000  0.16581900  1
  I  I43  1  0.14268600  0.50000000  0.83418100  1
