# generated using pymatgen
data_Ca4P2O9
_symmetry_space_group_name_H-M   'P 1'
_cell_length_a   7.06885500
_cell_length_b   12.10172300
_cell_length_c   9.55573770
_cell_angle_alpha   90.00000000
_cell_angle_beta   90.97647066
_cell_angle_gamma   90.00000000
_symmetry_Int_Tables_number   1
_chemical_formula_structural   Ca4P2O9
_chemical_formula_sum   'Ca16 P8 O36'
_cell_volume   817.32997722
_cell_formula_units_Z   4
loop_
 _symmetry_equiv_pos_site_id
 _symmetry_equiv_pos_as_xyz
  1  'x, y, z'
loop_
 _atom_site_type_symbol
 _atom_site_label
 _atom_site_symmetry_multiplicity
 _atom_site_fract_x
 _atom_site_fract_y
 _atom_site_fract_z
 _atom_site_occupancy
  Ca  Ca0  1  0.25016300  0.57918100  0.01171800  1
  Ca  Ca1  1  0.48460100  0.05302300  0.40989200  1
  Ca  Ca2  1  0.98974800  0.56962000  0.63456700  1
  Ca  Ca3  1  0.01025200  0.06962000  0.36543300  1
  Ca  Ca4  1  0.51539900  0.55302300  0.59010800  1
  Ca  Ca5  1  0.74983700  0.07918100  0.98828200  1
  Ca  Ca6  1  0.74110500  0.60501600  0.25867000  1
  Ca  Ca7  1  0.25889500  0.10501600  0.74133000  1
  Ca  Ca8  1  0.26986300  0.80027200  0.25126800  1
  Ca  Ca9  1  0.73013700  0.30027200  0.74873200  1
  Ca  Ca10  1  0.77034800  0.80336300  0.52845900  1
  Ca  Ca11  1  0.22965200  0.30336300  0.47154100  1
  Ca  Ca12  1  0.53275700  0.79711100  0.89713200  1
  Ca  Ca13  1  0.46724300  0.29711100  0.10286800  1
  Ca  Ca14  1  0.03299100  0.84357800  0.89574200  1
  Ca  Ca15  1  0.96700900  0.34357800  0.10425800  1
  P  P16  1  0.23268800  0.39149900  0.78553100  1
  P  P17  1  0.76731200  0.89149900  0.21446900  1
  P  P18  1  0.71051900  0.32463500  0.37620600  1
  P  P19  1  0.28948100  0.82463500  0.62379400  1
  P  P20  1  0.76317500  0.04096400  0.68206400  1
  P  P21  1  0.23682500  0.54096400  0.31793600  1
  P  P22  1  0.23557400  0.07704700  0.08985900  1
  P  P23  1  0.76442600  0.57704700  0.91014100  1
  O  O24  1  0.71437500  0.49888100  0.78576500  1
  O  O25  1  0.16086200  0.18578800  0.15842400  1
  O  O26  1  0.58860200  0.60608800  0.99909900  1
  O  O27  1  0.41139800  0.10608800  0.00090100  1
  O  O28  1  0.24469300  0.43401600  0.22620300  1
  O  O29  1  0.75530700  0.93401600  0.77379700  1
  O  O30  1  0.42041800  0.60926700  0.30614600  1
  O  O31  1  0.57958200  0.10926700  0.69385400  1
  O  O32  1  0.76705500  0.62790200  0.49090800  1
  O  O33  1  0.23294500  0.12790200  0.50909200  1
  O  O34  1  0.26580000  0.76163600  0.01570400  1
  O  O35  1  0.73420000  0.26163600  0.98429600  1
  O  O36  1  0.91904100  0.52649000  0.00737000  1
  O  O37  1  0.08095900  0.02649000  0.99263000  1
  O  O38  1  0.83913800  0.68578800  0.84157600  1
  O  O39  1  0.95614600  0.86702100  0.29370200  1
  O  O40  1  0.27038600  0.51915500  0.77429400  1
  O  O41  1  0.72961400  0.01915500  0.22570600  1
  O  O42  1  0.38628400  0.32248000  0.71167300  1
  O  O43  1  0.61371600  0.82248000  0.28832700  1
  O  O44  1  0.04385400  0.36702100  0.70629800  1
  O  O45  1  0.07691700  0.61705700  0.26359900  1
  O  O46  1  0.23011100  0.36394500  0.94423400  1
  O  O47  1  0.76988900  0.86394500  0.05576600  1
  O  O48  1  0.71371800  0.40887700  0.25105800  1
  O  O49  1  0.28628200  0.90887700  0.74894200  1
  O  O50  1  0.90417500  0.26297300  0.37694300  1
  O  O51  1  0.09582500  0.76297300  0.62305700  1
  O  O52  1  0.54236300  0.24313300  0.34204100  1
  O  O53  1  0.45763700  0.74313300  0.65795900  1
  O  O54  1  0.67252900  0.38215900  0.51642000  1
  O  O55  1  0.32747100  0.88215900  0.48358000  1
  O  O56  1  0.78489000  0.00400200  0.52676000  1
  O  O57  1  0.21511000  0.50400200  0.47324000  1
  O  O58  1  0.92308300  0.11705700  0.73640100  1
  O  O59  1  0.28562500  0.99888100  0.21423500  1
