# generated using pymatgen
data_P3IrO9
_symmetry_space_group_name_H-M   'P 1'
_cell_length_a   13.30491400
_cell_length_b   19.44744400
_cell_length_c   9.52493617
_cell_angle_alpha   90.00000000
_cell_angle_beta   127.25196032
_cell_angle_gamma   90.00000000
_symmetry_Int_Tables_number   1
_chemical_formula_structural   P3IrO9
_chemical_formula_sum   'P36 Ir12 O108'
_cell_volume   1961.73136566
_cell_formula_units_Z   12
loop_
 _symmetry_equiv_pos_site_id
 _symmetry_equiv_pos_as_xyz
  1  'x, y, z'
loop_
 _atom_site_type_symbol
 _atom_site_label
 _atom_site_symmetry_multiplicity
 _atom_site_fract_x
 _atom_site_fract_y
 _atom_site_fract_z
 _atom_site_occupancy
  P  P0  1  0.08745700  0.30349500  0.60730300  1
  P  P1  1  0.36001100  0.19684100  0.25374200  1
  P  P2  1  0.08383100  0.36269100  0.10681500  1
  P  P3  1  0.86285950  0.36456350  0.25899000  1
  P  P4  1  0.98477800  0.18661900  0.70383300  1
  P  P5  1  0.36285950  0.13543650  0.75899000  1
  P  P6  1  0.87962650  0.02591350  0.28862300  1
  P  P7  1  0.46042350  0.35473450  0.66434800  1
  P  P8  1  0.10162300  0.03217100  0.13361300  1
  P  P9  1  0.48477800  0.31338100  0.20383300  1
  P  P10  1  0.58383100  0.13730900  0.60681500  1
  P  P11  1  0.86001100  0.30315900  0.75374200  1
  P  P12  1  0.49937400  0.01896600  0.72165600  1
  P  P13  1  0.96042350  0.14526550  0.16434800  1
  P  P14  1  0.99937400  0.48103400  0.22165600  1
  P  P15  1  0.58745700  0.19650500  0.10730300  1
  P  P16  1  0.37962650  0.47408650  0.78862300  1
  P  P17  1  0.60162300  0.46782900  0.63361300  1
  P  P18  1  0.58745700  0.80349500  0.60730300  1
  P  P19  1  0.86001100  0.69684100  0.25374200  1
  P  P20  1  0.58383100  0.86269100  0.10681500  1
  P  P21  1  0.36285950  0.86456350  0.25899000  1
  P  P22  1  0.48477800  0.68661900  0.70383300  1
  P  P23  1  0.86285950  0.63543650  0.75899000  1
  P  P24  1  0.37962650  0.52591350  0.28862300  1
  P  P25  1  0.96042350  0.85473450  0.66434800  1
  P  P26  1  0.60162300  0.53217100  0.13361300  1
  P  P27  1  0.98477800  0.81338100  0.20383300  1
  P  P28  1  0.08383100  0.63730900  0.60681500  1
  P  P29  1  0.36001100  0.80315900  0.75374200  1
  P  P30  1  0.99937400  0.51896600  0.72165600  1
  P  P31  1  0.46042350  0.64526550  0.16434800  1
  P  P32  1  0.49937400  0.98103400  0.22165600  1
  P  P33  1  0.08745700  0.69650500  0.10730300  1
  P  P34  1  0.87962650  0.97408650  0.78862300  1
  P  P35  1  0.10162300  0.96782900  0.63361300  1
  Ir  Ir36  1  0.71576200  0.25548300  0.92095300  1
  Ir  Ir37  1  0.23757600  0.41225700  0.95423000  1
  Ir  Ir38  1  0.23489650  0.08046850  0.95031500  1
  Ir  Ir39  1  0.21576200  0.24451700  0.42095300  1
  Ir  Ir40  1  0.73757600  0.08774300  0.45423000  1
  Ir  Ir41  1  0.73489650  0.41953150  0.45031500  1
  Ir  Ir42  1  0.21576200  0.75548300  0.92095300  1
  Ir  Ir43  1  0.73757600  0.91225700  0.95423000  1
  Ir  Ir44  1  0.73489650  0.58046850  0.95031500  1
  Ir  Ir45  1  0.71576200  0.74451700  0.42095300  1
  Ir  Ir46  1  0.23757600  0.58774300  0.45423000  1
  Ir  Ir47  1  0.23489650  0.91953150  0.45031500  1
  O  O48  1  0.89417000  0.47970300  0.56501500  1
  O  O49  1  0.60353850  0.01690750  0.38919400  1
  O  O50  1  0.01542450  0.02215450  0.47783800  1
  O  O51  1  0.63500100  0.49487700  0.80552200  1
  O  O52  1  0.24440550  0.20921550  0.24471200  1
  O  O53  1  0.77655000  0.03202900  0.30911100  1
  O  O54  1  0.39417000  0.02029700  0.06501500  1
  O  O55  1  0.13500100  0.00512300  0.30552200  1
  O  O56  1  0.10353850  0.48309250  0.88919400  1
  O  O57  1  0.94517300  0.23605800  0.79985400  1
  O  O58  1  0.75606000  0.38745900  0.26216500  1
  O  O59  1  0.51542450  0.47784550  0.97783800  1
  O  O60  1  0.38929850  0.40258450  0.71496500  1
  O  O61  1  0.10390050  0.36085550  0.72518900  1
  O  O62  1  0.07099500  0.13453200  0.84138500  1
  O  O63  1  0.21357250  0.05142450  0.13838500  1
  O  O64  1  0.32758800  0.16714100  0.59083000  1
  O  O65  1  0.95315050  0.35323750  0.91497100  1
  O  O66  1  0.57099500  0.36546800  0.34138500  1
  O  O67  1  0.45315050  0.14676250  0.41497100  1
  O  O68  1  0.87027150  0.16327350  0.52510500  1
  O  O69  1  0.27655000  0.46797100  0.80911100  1
  O  O70  1  0.83260500  0.33256800  0.58713400  1
  O  O71  1  0.09090350  0.31357950  0.23445600  1
  O  O72  1  0.36433550  0.31038250  0.51098200  1
  O  O73  1  0.25606000  0.11254100  0.76216500  1
  O  O74  1  0.45428050  0.18735950  0.91834100  1
  O  O75  1  0.56225650  0.06213150  0.65014000  1
  O  O76  1  0.69383850  0.13876250  0.59976200  1
  O  O77  1  0.45404650  0.07249650  0.80072900  1
  O  O78  1  0.95404650  0.42750350  0.30072900  1
  O  O79  1  0.19383850  0.36123750  0.09976200  1
  O  O80  1  0.33260500  0.16743200  0.08713400  1
  O  O81  1  0.00621650  0.09495950  0.07836400  1
  O  O82  1  0.37027150  0.33672650  0.02510500  1
  O  O83  1  0.06225650  0.43786850  0.15014000  1
  O  O84  1  0.71357250  0.44857550  0.63838500  1
  O  O85  1  0.60390050  0.13914450  0.22518900  1
  O  O86  1  0.88929850  0.09741550  0.21496500  1
  O  O87  1  0.86433550  0.18961750  0.01098200  1
  O  O88  1  0.06647250  0.23259850  0.67001600  1
  O  O89  1  0.59090350  0.18642050  0.73445600  1
  O  O90  1  0.57003150  0.32334950  0.83490600  1
  O  O91  1  0.56647250  0.26740150  0.17001600  1
  O  O92  1  0.69334550  0.20883950  0.09455400  1
  O  O93  1  0.36905850  0.46719650  0.17783100  1
  O  O94  1  0.19334550  0.29116050  0.59455400  1
  O  O95  1  0.50621650  0.40504050  0.57836400  1
  O  O96  1  0.74440550  0.29078450  0.74471200  1
  O  O97  1  0.82758800  0.33285900  0.09083000  1
  O  O98  1  0.86905850  0.03280350  0.67783100  1
  O  O99  1  0.07003150  0.17665050  0.33490600  1
  O  O100  1  0.44517300  0.26394200  0.29985400  1
  O  O101  1  0.95428050  0.31264050  0.41834100  1
  O  O102  1  0.39417000  0.97970300  0.56501500  1
  O  O103  1  0.10353850  0.51690750  0.38919400  1
  O  O104  1  0.51542450  0.52215450  0.47783800  1
  O  O105  1  0.13500100  0.99487700  0.80552200  1
  O  O106  1  0.74440550  0.70921550  0.24471200  1
  O  O107  1  0.27655000  0.53202900  0.30911100  1
  O  O108  1  0.89417000  0.52029700  0.06501500  1
  O  O109  1  0.63500100  0.50512300  0.30552200  1
  O  O110  1  0.60353850  0.98309250  0.88919400  1
  O  O111  1  0.44517300  0.73605800  0.79985400  1
  O  O112  1  0.25606000  0.88745900  0.26216500  1
  O  O113  1  0.01542450  0.97784550  0.97783800  1
  O  O114  1  0.88929850  0.90258450  0.71496500  1
  O  O115  1  0.60390050  0.86085550  0.72518900  1
  O  O116  1  0.57099500  0.63453200  0.84138500  1
  O  O117  1  0.71357250  0.55142450  0.13838500  1
  O  O118  1  0.82758800  0.66714100  0.59083000  1
  O  O119  1  0.45315050  0.85323750  0.91497100  1
  O  O120  1  0.07099500  0.86546800  0.34138500  1
  O  O121  1  0.95315050  0.64676250  0.41497100  1
  O  O122  1  0.37027150  0.66327350  0.52510500  1
  O  O123  1  0.77655000  0.96797100  0.80911100  1
  O  O124  1  0.33260500  0.83256800  0.58713400  1
  O  O125  1  0.59090350  0.81357950  0.23445600  1
  O  O126  1  0.86433550  0.81038250  0.51098200  1
  O  O127  1  0.75606000  0.61254100  0.76216500  1
  O  O128  1  0.95428050  0.68735950  0.91834100  1
  O  O129  1  0.06225650  0.56213150  0.65014000  1
  O  O130  1  0.19383850  0.63876250  0.59976200  1
  O  O131  1  0.95404650  0.57249650  0.80072900  1
  O  O132  1  0.45404650  0.92750350  0.30072900  1
  O  O133  1  0.69383850  0.86123750  0.09976200  1
  O  O134  1  0.83260500  0.66743200  0.08713400  1
  O  O135  1  0.50621650  0.59495950  0.07836400  1
  O  O136  1  0.87027150  0.83672650  0.02510500  1
  O  O137  1  0.56225650  0.93786850  0.15014000  1
  O  O138  1  0.21357250  0.94857550  0.63838500  1
  O  O139  1  0.10390050  0.63914450  0.22518900  1
  O  O140  1  0.38929850  0.59741550  0.21496500  1
  O  O141  1  0.36433550  0.68961750  0.01098200  1
  O  O142  1  0.56647250  0.73259850  0.67001600  1
  O  O143  1  0.09090350  0.68642050  0.73445600  1
  O  O144  1  0.07003150  0.82334950  0.83490600  1
  O  O145  1  0.06647250  0.76740150  0.17001600  1
  O  O146  1  0.19334550  0.70883950  0.09455400  1
  O  O147  1  0.86905850  0.96719650  0.17783100  1
  O  O148  1  0.69334550  0.79116050  0.59455400  1
  O  O149  1  0.00621650  0.90504050  0.57836400  1
  O  O150  1  0.24440550  0.79078450  0.74471200  1
  O  O151  1  0.32758800  0.83285900  0.09083000  1
  O  O152  1  0.36905850  0.53280350  0.67783100  1
  O  O153  1  0.57003150  0.67665050  0.33490600  1
  O  O154  1  0.94517300  0.76394200  0.29985400  1
  O  O155  1  0.45428050  0.81264050  0.41834100  1
