# generated using pymatgen
data_BaCu(SiO3)2
_symmetry_space_group_name_H-M   'P 1'
_cell_length_a   7.18636807
_cell_length_b   7.18636807
_cell_length_c   11.19061857
_cell_angle_alpha   90.00000000
_cell_angle_beta   90.00000000
_cell_angle_gamma   90.00000000
_symmetry_Int_Tables_number   1
_chemical_formula_structural   BaCu(SiO3)2
_chemical_formula_sum   'Ba4 Cu4 Si8 O24'
_cell_volume   577.92703100
_cell_formula_units_Z   4
loop_
 _symmetry_equiv_pos_site_id
 _symmetry_equiv_pos_as_xyz
  1  'x, y, z'
loop_
 _atom_site_type_symbol
 _atom_site_label
 _atom_site_symmetry_multiplicity
 _atom_site_fract_x
 _atom_site_fract_y
 _atom_site_fract_z
 _atom_site_occupancy
  Ba  Ba0  1  0.50000000  0.00000000  0.25000000  1
  Ba  Ba1  1  0.00000000  0.50000000  0.25000000  1
  Ba  Ba2  1  0.00000000  0.50000000  0.75000000  1
  Ba  Ba3  1  0.50000000  0.00000000  0.75000000  1
  Cu  Cu4  1  0.00000000  0.00000000  0.12106629  1
  Cu  Cu5  1  0.50000000  0.50000000  0.37893371  1
  Cu  Cu6  1  0.50000000  0.50000000  0.62106629  1
  Cu  Cu7  1  0.00000000  0.00000000  0.87893371  1
  Si  Si8  1  0.77392328  0.22607672  0.50000000  1
  Si  Si9  1  0.27392328  0.27392328  0.00000000  1
  Si  Si10  1  0.72607672  0.27392328  0.00000000  1
  Si  Si11  1  0.22607672  0.22607672  0.50000000  1
  Si  Si12  1  0.27392328  0.72607672  0.00000000  1
  Si  Si13  1  0.77392328  0.77392328  0.50000000  1
  Si  Si14  1  0.22607672  0.77392328  0.50000000  1
  Si  Si15  1  0.72607672  0.72607672  0.00000000  1
  O  O16  1  0.23529577  0.50000000  0.00000000  1
  O  O17  1  0.69250035  0.30749965  0.37498005  1
  O  O18  1  0.69250035  0.69250035  0.37498005  1
  O  O19  1  0.00000000  0.73529577  0.50000000  1
  O  O20  1  0.80749965  0.19250035  0.12501995  1
  O  O21  1  0.76470423  0.50000000  0.00000000  1
  O  O22  1  0.00000000  0.26470423  0.50000000  1
  O  O23  1  0.30749965  0.69250035  0.37498005  1
  O  O24  1  0.19250035  0.19250035  0.12501995  1
  O  O25  1  0.80749965  0.80749965  0.12501995  1
  O  O26  1  0.19250035  0.80749965  0.12501995  1
  O  O27  1  0.30749965  0.30749965  0.37498005  1
  O  O28  1  0.73529577  0.00000000  0.50000000  1
  O  O29  1  0.19250035  0.80749965  0.87498005  1
  O  O30  1  0.19250035  0.19250035  0.87498005  1
  O  O31  1  0.50000000  0.23529577  0.00000000  1
  O  O32  1  0.30749965  0.69250035  0.62501995  1
  O  O33  1  0.26470423  0.00000000  0.50000000  1
  O  O34  1  0.50000000  0.76470423  0.00000000  1
  O  O35  1  0.80749965  0.19250035  0.87498005  1
  O  O36  1  0.69250035  0.69250035  0.62501995  1
  O  O37  1  0.30749965  0.30749965  0.62501995  1
  O  O38  1  0.69250035  0.30749965  0.62501995  1
  O  O39  1  0.80749965  0.80749965  0.87498005  1
