# generated using pymatgen
data_KCa12Si4S2O26F
_symmetry_space_group_name_H-M   'P 1'
_cell_length_a   7.24729832
_cell_length_b   7.24729832
_cell_length_c   41.64160131
_cell_angle_alpha   90.00000000
_cell_angle_beta   90.00000000
_cell_angle_gamma   120.00000000
_symmetry_Int_Tables_number   1
_chemical_formula_structural   KCa12Si4S2O26F
_chemical_formula_sum   'K3 Ca36 Si12 S6 O78 F3'
_cell_volume   1894.13239093
_cell_formula_units_Z   3
loop_
 _symmetry_equiv_pos_site_id
 _symmetry_equiv_pos_as_xyz
  1  'x, y, z'
loop_
 _atom_site_type_symbol
 _atom_site_label
 _atom_site_symmetry_multiplicity
 _atom_site_fract_x
 _atom_site_fract_y
 _atom_site_fract_z
 _atom_site_occupancy
  K  K0  1  0.00000000  0.00000000  0.00000000  1
  K  K1  1  0.66666667  0.33333333  0.33333333  1
  K  K2  1  0.33333333  0.66666667  0.66666667  1
  Ca  Ca3  1  0.17578100  0.35156200  0.26843900  1
  Ca  Ca4  1  0.17881700  0.35763400  0.13273900  1
  Ca  Ca5  1  0.64843800  0.82421900  0.26843900  1
  Ca  Ca6  1  0.17881700  0.82118300  0.13273900  1
  Ca  Ca7  1  0.48784967  0.51215033  0.20059433  1
  Ca  Ca8  1  0.49088567  0.50911433  0.06489433  1
  Ca  Ca9  1  0.17578100  0.82421900  0.26843900  1
  Ca  Ca10  1  0.01822867  0.50911433  0.06489433  1
  Ca  Ca11  1  0.48784967  0.97569933  0.20059433  1
  Ca  Ca12  1  0.64236600  0.82118300  0.13273900  1
  Ca  Ca13  1  0.02430067  0.51215033  0.20059433  1
  Ca  Ca14  1  0.49088567  0.98177133  0.06489433  1
  Ca  Ca15  1  0.84244767  0.68489533  0.60177233  1
  Ca  Ca16  1  0.84548367  0.69096733  0.46607233  1
  Ca  Ca17  1  0.31510467  0.15755233  0.60177233  1
  Ca  Ca18  1  0.84548367  0.15451633  0.46607233  1
  Ca  Ca19  1  0.15451633  0.84548367  0.53392767  1
  Ca  Ca20  1  0.15755233  0.84244767  0.39822767  1
  Ca  Ca21  1  0.84244767  0.15755233  0.60177233  1
  Ca  Ca22  1  0.68489533  0.84244767  0.39822767  1
  Ca  Ca23  1  0.15451633  0.30903267  0.53392767  1
  Ca  Ca24  1  0.30903267  0.15451633  0.46607233  1
  Ca  Ca25  1  0.69096733  0.84548367  0.53392767  1
  Ca  Ca26  1  0.15755233  0.31510467  0.39822767  1
  Ca  Ca27  1  0.50911433  0.01822867  0.93510567  1
  Ca  Ca28  1  0.51215033  0.02430067  0.79940567  1
  Ca  Ca29  1  0.98177133  0.49088567  0.93510567  1
  Ca  Ca30  1  0.51215033  0.48784967  0.79940567  1
  Ca  Ca31  1  0.82118300  0.17881700  0.86726100  1
  Ca  Ca32  1  0.82421900  0.17578100  0.73156100  1
  Ca  Ca33  1  0.50911433  0.49088567  0.93510567  1
  Ca  Ca34  1  0.35156200  0.17578100  0.73156100  1
  Ca  Ca35  1  0.82118300  0.64236600  0.86726100  1
  Ca  Ca36  1  0.97569933  0.48784967  0.79940567  1
  Ca  Ca37  1  0.35763400  0.17881700  0.86726100  1
  Ca  Ca38  1  0.82421900  0.64843800  0.73156100  1
  Si  Si39  1  0.00000000  0.00000000  0.20471000  1
  Si  Si40  1  0.66666667  0.33333333  0.25040433  1
  Si  Si41  1  0.00000000  0.00000000  0.08292900  1
  Si  Si42  1  0.66666667  0.33333333  0.12862333  1
  Si  Si43  1  0.66666667  0.33333333  0.53804333  1
  Si  Si44  1  0.33333333  0.66666667  0.58373767  1
  Si  Si45  1  0.66666667  0.33333333  0.41626233  1
  Si  Si46  1  0.33333333  0.66666667  0.46195667  1
  Si  Si47  1  0.33333333  0.66666667  0.87137667  1
  Si  Si48  1  0.00000000  0.00000000  0.91707100  1
  Si  Si49  1  0.33333333  0.66666667  0.74959567  1
  Si  Si50  1  0.00000000  0.00000000  0.79529000  1
  S  S51  1  0.00000000  0.00000000  0.32357000  1
  S  S52  1  0.66666667  0.33333333  0.00976333  1
  S  S53  1  0.66666667  0.33333333  0.65690333  1
  S  S54  1  0.33333333  0.66666667  0.34309667  1
  S  S55  1  0.33333333  0.66666667  0.99023667  1
  S  S56  1  0.00000000  0.00000000  0.67643000  1
  O  O57  1  0.00000000  0.00000000  0.12315300  1
  O  O58  1  0.22321200  0.11160600  0.31129000  1
  O  O59  1  0.91810000  0.45905000  0.14064900  1
  O  O60  1  0.33333333  0.66666667  0.09828867  1
  O  O61  1  0.77827267  0.22172733  0.02204333  1
  O  O62  1  0.44345467  0.22172733  0.02204333  1
  O  O63  1  0.54021733  0.45978267  0.26043267  1
  O  O64  1  0.54095000  0.45905000  0.14064900  1
  O  O65  1  0.77827267  0.55654533  0.02204333  1
  O  O66  1  0.12571667  0.25143333  0.19268433  1
  O  O67  1  0.54021733  0.08043467  0.26043267  1
  O  O68  1  0.88839400  0.11160600  0.31129000  1
  O  O69  1  0.12644933  0.25289867  0.07290067  1
  O  O70  1  0.91956533  0.45978267  0.26043267  1
  O  O71  1  0.33333333  0.66666667  0.23504467  1
  O  O72  1  0.54095000  0.08190000  0.14064900  1
  O  O73  1  0.33333333  0.66666667  0.30693067  1
  O  O74  1  0.00000000  0.00000000  0.24498700  1
  O  O75  1  0.88839400  0.77678800  0.31129000  1
  O  O76  1  0.74710133  0.87355067  0.07290067  1
  O  O77  1  0.12644933  0.87355067  0.07290067  1
  O  O78  1  0.66666667  0.33333333  0.21018033  1
  O  O79  1  0.33333333  0.66666667  0.02640267  1
  O  O80  1  0.74856667  0.87428333  0.19268433  1
  O  O81  1  0.66666667  0.33333333  0.08834633  1
  O  O82  1  0.12571667  0.87428333  0.19268433  1
  O  O83  1  0.66666667  0.33333333  0.45648633  1
  O  O84  1  0.88987867  0.44493933  0.64462333  1
  O  O85  1  0.58476667  0.79238333  0.47398233  1
  O  O86  1  0.00000000  0.00000000  0.43162200  1
  O  O87  1  0.44493933  0.55506067  0.35537667  1
  O  O88  1  0.11012133  0.55506067  0.35537667  1
  O  O89  1  0.20688400  0.79311600  0.59376600  1
  O  O90  1  0.20761667  0.79238333  0.47398233  1
  O  O91  1  0.44493933  0.88987867  0.35537667  1
  O  O92  1  0.79238333  0.58476667  0.52601767  1
  O  O93  1  0.20688400  0.41376800  0.59376600  1
  O  O94  1  0.55506067  0.44493933  0.64462333  1
  O  O95  1  0.79311600  0.58623200  0.40623400  1
  O  O96  1  0.58623200  0.79311600  0.59376600  1
  O  O97  1  0.00000000  0.00000000  0.56837800  1
  O  O98  1  0.20761667  0.41523333  0.47398233  1
  O  O99  1  0.00000000  0.00000000  0.64026400  1
  O  O100  1  0.66666667  0.33333333  0.57832033  1
  O  O101  1  0.55506067  0.11012133  0.64462333  1
  O  O102  1  0.41376800  0.20688400  0.40623400  1
  O  O103  1  0.79311600  0.20688400  0.40623400  1
  O  O104  1  0.33333333  0.66666667  0.54351367  1
  O  O105  1  0.00000000  0.00000000  0.35973600  1
  O  O106  1  0.41523333  0.20761667  0.52601767  1
  O  O107  1  0.33333333  0.66666667  0.42167967  1
  O  O108  1  0.79238333  0.20761667  0.52601767  1
  O  O109  1  0.33333333  0.66666667  0.78981967  1
  O  O110  1  0.55654533  0.77827267  0.97795667  1
  O  O111  1  0.25143333  0.12571667  0.80731567  1
  O  O112  1  0.66666667  0.33333333  0.76495533  1
  O  O113  1  0.11160600  0.88839400  0.68871000  1
  O  O114  1  0.77678800  0.88839400  0.68871000  1
  O  O115  1  0.87355067  0.12644933  0.92709933  1
  O  O116  1  0.87428333  0.12571667  0.80731567  1
  O  O117  1  0.11160600  0.22321200  0.68871000  1
  O  O118  1  0.45905000  0.91810000  0.85935100  1
  O  O119  1  0.87355067  0.74710133  0.92709933  1
  O  O120  1  0.22172733  0.77827267  0.97795667  1
  O  O121  1  0.45978267  0.91956533  0.73956733  1
  O  O122  1  0.25289867  0.12644933  0.92709933  1
  O  O123  1  0.66666667  0.33333333  0.90171133  1
  O  O124  1  0.87428333  0.74856667  0.80731567  1
  O  O125  1  0.66666667  0.33333333  0.97359733  1
  O  O126  1  0.33333333  0.66666667  0.91165367  1
  O  O127  1  0.22172733  0.44345467  0.97795667  1
  O  O128  1  0.08043467  0.54021733  0.73956733  1
  O  O129  1  0.45978267  0.54021733  0.73956733  1
  O  O130  1  0.00000000  0.00000000  0.87684700  1
  O  O131  1  0.66666667  0.33333333  0.69306933  1
  O  O132  1  0.08190000  0.54095000  0.85935100  1
  O  O133  1  0.00000000  0.00000000  0.75501300  1
  O  O134  1  0.45905000  0.54095000  0.85935100  1
  F  F135  1  0.33333333  0.66666667  0.16666667  1
  F  F136  1  1.00000000  1.00000000  0.50000000  1
  F  F137  1  0.66666667  0.33333333  0.83333333  1
