# generated using pymatgen
data_NaNbO3
_symmetry_space_group_name_H-M   'P 1'
_cell_length_a   5.56653800
_cell_length_b   5.64486300
_cell_length_c   15.93417900
_cell_angle_alpha   90.00000000
_cell_angle_beta   90.00000000
_cell_angle_gamma   90.00000000
_symmetry_Int_Tables_number   1
_chemical_formula_structural   NaNbO3
_chemical_formula_sum   'Na8 Nb8 O24'
_cell_volume   500.68926018
_cell_formula_units_Z   8
loop_
 _symmetry_equiv_pos_site_id
 _symmetry_equiv_pos_as_xyz
  1  'x, y, z'
loop_
 _atom_site_type_symbol
 _atom_site_label
 _atom_site_symmetry_multiplicity
 _atom_site_fract_x
 _atom_site_fract_y
 _atom_site_fract_z
 _atom_site_occupancy
  Na  Na0  1  0.24014800  0.78161400  0.12360000  1
  Na  Na1  1  0.24014800  0.71838600  0.62360000  1
  Na  Na2  1  0.75514200  0.22396600  0.37137300  1
  Na  Na3  1  0.24485800  0.77603400  0.87137300  1
  Na  Na4  1  0.75514200  0.27603400  0.87137300  1
  Na  Na5  1  0.75985200  0.21838600  0.62360000  1
  Na  Na6  1  0.75985200  0.28161400  0.12360000  1
  Na  Na7  1  0.24485800  0.72396600  0.37137300  1
  Nb  Nb8  1  0.25160900  0.27127000  0.99768700  1
  Nb  Nb9  1  0.25826600  0.24178800  0.74729300  1
  Nb  Nb10  1  0.74839100  0.77127000  0.99768700  1
  Nb  Nb11  1  0.25826600  0.25821200  0.24729300  1
  Nb  Nb12  1  0.74173400  0.74178800  0.74729300  1
  Nb  Nb13  1  0.25160900  0.22873000  0.49768700  1
  Nb  Nb14  1  0.74839100  0.72873000  0.49768700  1
  Nb  Nb15  1  0.74173400  0.75821200  0.24729300  1
  O  O16  1  0.18350400  0.24781000  0.38043600  1
  O  O17  1  0.96316400  0.02576500  0.02331800  1
  O  O18  1  0.68137300  0.77510000  0.63018500  1
  O  O19  1  0.03683600  0.97423500  0.52331800  1
  O  O20  1  0.54153100  0.45148200  0.98930100  1
  O  O21  1  0.03683600  0.52576500  0.02331800  1
  O  O22  1  0.18350400  0.25219000  0.88043600  1
  O  O23  1  0.31862700  0.27510000  0.63018500  1
  O  O24  1  0.54153100  0.04851800  0.48930100  1
  O  O25  1  0.81649600  0.74781000  0.38043600  1
  O  O26  1  0.03138300  0.51536000  0.23844100  1
  O  O27  1  0.53403600  0.04581200  0.77276500  1
  O  O28  1  0.96316400  0.47423500  0.52331800  1
  O  O29  1  0.96861700  0.01536000  0.23844100  1
  O  O30  1  0.68137300  0.72490000  0.13018500  1
  O  O31  1  0.45846900  0.54851800  0.48930100  1
  O  O32  1  0.45846900  0.95148200  0.98930100  1
  O  O33  1  0.53403600  0.45418800  0.27276500  1
  O  O34  1  0.31862700  0.22490000  0.13018500  1
  O  O35  1  0.03138300  0.98464000  0.73844100  1
  O  O36  1  0.46596400  0.54581200  0.77276500  1
  O  O37  1  0.46596400  0.95418800  0.27276500  1
  O  O38  1  0.96861700  0.48464000  0.73844100  1
  O  O39  1  0.81649600  0.75219000  0.88043600  1
