# generated using pymatgen
data_CaH12CO9
_symmetry_space_group_name_H-M   'P 1'
_cell_length_a   8.84557200
_cell_length_b   8.33046600
_cell_length_c   10.98610495
_cell_angle_alpha   90.00000000
_cell_angle_beta   109.04298518
_cell_angle_gamma   90.00000000
_symmetry_Int_Tables_number   1
_chemical_formula_structural   CaH12CO9
_chemical_formula_sum   'Ca4 H48 C4 O36'
_cell_volume   765.23830410
_cell_formula_units_Z   4
loop_
 _symmetry_equiv_pos_site_id
 _symmetry_equiv_pos_as_xyz
  1  'x, y, z'
loop_
 _atom_site_type_symbol
 _atom_site_label
 _atom_site_symmetry_multiplicity
 _atom_site_fract_x
 _atom_site_fract_y
 _atom_site_fract_z
 _atom_site_occupancy
  Ca  Ca0  1  0.00000000  0.14146900  0.25000000  1
  Ca  Ca1  1  0.00000000  0.85853100  0.75000000  1
  Ca  Ca2  1  0.50000000  0.64146900  0.25000000  1
  Ca  Ca3  1  0.50000000  0.35853100  0.75000000  1
  H  H4  1  0.06934650  0.18907050  0.99911900  1
  H  H5  1  0.93065350  0.18907050  0.50088100  1
  H  H6  1  0.93065350  0.81092950  0.00088100  1
  H  H7  1  0.06934650  0.81092950  0.49911900  1
  H  H8  1  0.15305150  0.33309050  0.09320500  1
  H  H9  1  0.84694850  0.33309050  0.40679500  1
  H  H10  1  0.84694850  0.66690950  0.90679500  1
  H  H11  1  0.15305150  0.66690950  0.59320500  1
  H  H12  1  0.86843200  0.59496000  0.35022000  1
  H  H13  1  0.13156800  0.59496000  0.14978000  1
  H  H14  1  0.13156800  0.40504000  0.64978000  1
  H  H15  1  0.86843200  0.40504000  0.85022000  1
  H  H16  1  0.80900550  0.58651850  0.47348300  1
  H  H17  1  0.19099450  0.58651850  0.02651700  1
  H  H18  1  0.19099450  0.41348150  0.52651700  1
  H  H19  1  0.80900550  0.41348150  0.97348300  1
  H  H20  1  0.28040250  0.38072650  0.35666200  1
  H  H21  1  0.71959750  0.38072650  0.14333800  1
  H  H22  1  0.71959750  0.61927350  0.64333800  1
  H  H23  1  0.28040250  0.61927350  0.85666200  1
  H  H24  1  0.12508200  0.48757300  0.33293100  1
  H  H25  1  0.87491800  0.48757300  0.16706900  1
  H  H26  1  0.87491800  0.51242700  0.66706900  1
  H  H27  1  0.12508200  0.51242700  0.83293100  1
  H  H28  1  0.56934650  0.68907050  0.99911900  1
  H  H29  1  0.43065350  0.68907050  0.50088100  1
  H  H30  1  0.43065350  0.31092950  0.00088100  1
  H  H31  1  0.56934650  0.31092950  0.49911900  1
  H  H32  1  0.65305150  0.83309050  0.09320500  1
  H  H33  1  0.34694850  0.83309050  0.40679500  1
  H  H34  1  0.34694850  0.16690950  0.90679500  1
  H  H35  1  0.65305150  0.16690950  0.59320500  1
  H  H36  1  0.36843200  0.09496000  0.35022000  1
  H  H37  1  0.63156800  0.09496000  0.14978000  1
  H  H38  1  0.63156800  0.90504000  0.64978000  1
  H  H39  1  0.36843200  0.90504000  0.85022000  1
  H  H40  1  0.30900550  0.08651850  0.47348300  1
  H  H41  1  0.69099450  0.08651850  0.02651700  1
  H  H42  1  0.69099450  0.91348150  0.52651700  1
  H  H43  1  0.30900550  0.91348150  0.97348300  1
  H  H44  1  0.78040250  0.88072650  0.35666200  1
  H  H45  1  0.21959750  0.88072650  0.14333800  1
  H  H46  1  0.21959750  0.11927350  0.64333800  1
  H  H47  1  0.78040250  0.11927350  0.85666200  1
  H  H48  1  0.62508200  0.98757300  0.33293100  1
  H  H49  1  0.37491800  0.98757300  0.16706900  1
  H  H50  1  0.37491800  0.01242700  0.66706900  1
  H  H51  1  0.62508200  0.01242700  0.83293100  1
  C  C52  1  0.00000000  0.79702100  0.25000000  1
  C  C53  1  0.00000000  0.20297900  0.75000000  1
  C  C54  1  0.50000000  0.29702100  0.25000000  1
  C  C55  1  0.50000000  0.70297900  0.75000000  1
  O  O56  1  0.00000000  0.64113300  0.25000000  1
  O  O57  1  0.00000000  0.35886700  0.75000000  1
  O  O58  1  0.02966350  0.87714150  0.15861800  1
  O  O59  1  0.97033650  0.87714150  0.34138200  1
  O  O60  1  0.97033650  0.12285850  0.84138200  1
  O  O61  1  0.02966350  0.12285850  0.65861800  1
  O  O62  1  0.11739450  0.22013050  0.09126800  1
  O  O63  1  0.88260550  0.22013050  0.40873200  1
  O  O64  1  0.88260550  0.77986950  0.90873200  1
  O  O65  1  0.11739450  0.77986950  0.59126800  1
  O  O66  1  0.78658250  0.54753650  0.38321000  1
  O  O67  1  0.21341750  0.54753650  0.11679000  1
  O  O68  1  0.21341750  0.45246350  0.61679000  1
  O  O69  1  0.78658250  0.45246350  0.88321000  1
  O  O70  1  0.17150150  0.38109650  0.36529200  1
  O  O71  1  0.82849850  0.38109650  0.13470800  1
  O  O72  1  0.82849850  0.61890350  0.63470800  1
  O  O73  1  0.17150150  0.61890350  0.86529200  1
  O  O74  1  0.50000000  0.14113300  0.25000000  1
  O  O75  1  0.50000000  0.85886700  0.75000000  1
  O  O76  1  0.52966350  0.37714150  0.15861800  1
  O  O77  1  0.47033650  0.37714150  0.34138200  1
  O  O78  1  0.47033650  0.62285850  0.84138200  1
  O  O79  1  0.52966350  0.62285850  0.65861800  1
  O  O80  1  0.61739450  0.72013050  0.09126800  1
  O  O81  1  0.38260550  0.72013050  0.40873200  1
  O  O82  1  0.38260550  0.27986950  0.90873200  1
  O  O83  1  0.61739450  0.27986950  0.59126800  1
  O  O84  1  0.28658250  0.04753650  0.38321000  1
  O  O85  1  0.71341750  0.04753650  0.11679000  1
  O  O86  1  0.71341750  0.95246350  0.61679000  1
  O  O87  1  0.28658250  0.95246350  0.88321000  1
  O  O88  1  0.67150150  0.88109650  0.36529200  1
  O  O89  1  0.32849850  0.88109650  0.13470800  1
  O  O90  1  0.32849850  0.11890350  0.63470800  1
  O  O91  1  0.67150150  0.11890350  0.86529200  1
