# generated using pymatgen
data_In2Ge2O7
_symmetry_space_group_name_H-M   'P 1'
_cell_length_a   6.76170600
_cell_length_b   8.96837400
_cell_length_c   5.00987122
_cell_angle_alpha   90.00000000
_cell_angle_beta   102.52129046
_cell_angle_gamma   90.00000000
_symmetry_Int_Tables_number   1
_chemical_formula_structural   In2Ge2O7
_chemical_formula_sum   'In4 Ge4 O14'
_cell_volume   296.58027356
_cell_formula_units_Z   2
loop_
 _symmetry_equiv_pos_site_id
 _symmetry_equiv_pos_as_xyz
  1  'x, y, z'
loop_
 _atom_site_type_symbol
 _atom_site_label
 _atom_site_symmetry_multiplicity
 _atom_site_fract_x
 _atom_site_fract_y
 _atom_site_fract_z
 _atom_site_occupancy
  In  In0  1  0.50000000  0.19196400  0.00000000  1
  In  In1  1  0.50000000  0.80803600  0.00000000  1
  In  In2  1  0.00000000  0.69196400  0.00000000  1
  In  In3  1  0.00000000  0.30803600  0.00000000  1
  Ge  Ge4  1  0.76673200  0.00000000  0.59452500  1
  Ge  Ge5  1  0.23326800  0.00000000  0.40547500  1
  Ge  Ge6  1  0.26673200  0.50000000  0.59452500  1
  Ge  Ge7  1  0.73326800  0.50000000  0.40547500  1
  O  O8  1  0.23929700  0.83488200  0.21075900  1
  O  O9  1  0.76070300  0.83488200  0.78924100  1
  O  O10  1  0.76070300  0.16511800  0.78924100  1
  O  O11  1  0.23929700  0.16511800  0.21075900  1
  O  O12  1  0.00000000  0.00000000  0.50000000  1
  O  O13  1  0.40957500  0.00000000  0.72554900  1
  O  O14  1  0.59042500  0.00000000  0.27445100  1
  O  O15  1  0.73929700  0.33488200  0.21075900  1
  O  O16  1  0.26070300  0.33488200  0.78924100  1
  O  O17  1  0.26070300  0.66511800  0.78924100  1
  O  O18  1  0.73929700  0.66511800  0.21075900  1
  O  O19  1  0.50000000  0.50000000  0.50000000  1
  O  O20  1  0.90957500  0.50000000  0.72554900  1
  O  O21  1  0.09042500  0.50000000  0.27445100  1
