# generated using pymatgen
data_NaZn(PO3)3
_symmetry_space_group_name_H-M   'P 1'
_cell_length_a   14.74085400
_cell_length_b   14.74085400
_cell_length_c   14.74085400
_cell_angle_alpha   90.00000000
_cell_angle_beta   90.00000000
_cell_angle_gamma   90.00000000
_symmetry_Int_Tables_number   1
_chemical_formula_structural   NaZn(PO3)3
_chemical_formula_sum   'Na16 Zn16 P48 O144'
_cell_volume   3203.08109584
_cell_formula_units_Z   16
loop_
 _symmetry_equiv_pos_site_id
 _symmetry_equiv_pos_as_xyz
  1  'x, y, z'
loop_
 _atom_site_type_symbol
 _atom_site_label
 _atom_site_symmetry_multiplicity
 _atom_site_fract_x
 _atom_site_fract_y
 _atom_site_fract_z
 _atom_site_occupancy
  Na  Na0  1  0.85991800  0.14008200  0.64008200  1
  Na  Na1  1  0.39008200  0.10991800  0.89008200  1
  Na  Na2  1  0.10991800  0.89008200  0.39008200  1
  Na  Na3  1  0.64008200  0.85991800  0.14008200  1
  Na  Na4  1  0.35991800  0.35991800  0.35991800  1
  Na  Na5  1  0.89008200  0.39008200  0.10991800  1
  Na  Na6  1  0.14008200  0.64008200  0.85991800  1
  Na  Na7  1  0.10991800  0.10991800  0.10991800  1
  Na  Na8  1  0.35991800  0.64008200  0.14008200  1
  Na  Na9  1  0.89008200  0.60991800  0.39008200  1
  Na  Na10  1  0.60991800  0.39008200  0.89008200  1
  Na  Na11  1  0.14008200  0.35991800  0.64008200  1
  Na  Na12  1  0.85991800  0.85991800  0.85991800  1
  Na  Na13  1  0.39008200  0.89008200  0.60991800  1
  Na  Na14  1  0.64008200  0.14008200  0.35991800  1
  Na  Na15  1  0.60991800  0.60991800  0.60991800  1
  Zn  Zn16  1  0.23495100  0.76504900  0.26504900  1
  Zn  Zn17  1  0.51504900  0.98495100  0.01504900  1
  Zn  Zn18  1  0.23495100  0.23495100  0.23495100  1
  Zn  Zn19  1  0.01504900  0.51504900  0.98495100  1
  Zn  Zn20  1  0.48495100  0.48495100  0.48495100  1
  Zn  Zn21  1  0.76504900  0.26504900  0.23495100  1
  Zn  Zn22  1  0.98495100  0.01504900  0.51504900  1
  Zn  Zn23  1  0.26504900  0.23495100  0.76504900  1
  Zn  Zn24  1  0.73495100  0.26504900  0.76504900  1
  Zn  Zn25  1  0.01504900  0.48495100  0.51504900  1
  Zn  Zn26  1  0.73495100  0.73495100  0.73495100  1
  Zn  Zn27  1  0.51504900  0.01504900  0.48495100  1
  Zn  Zn28  1  0.98495100  0.98495100  0.98495100  1
  Zn  Zn29  1  0.26504900  0.76504900  0.73495100  1
  Zn  Zn30  1  0.48495100  0.51504900  0.01504900  1
  Zn  Zn31  1  0.76504900  0.73495100  0.26504900  1
  P  P32  1  0.32815250  0.39149450  0.11404450  1
  P  P33  1  0.88595550  0.17184750  0.39149450  1
  P  P34  1  0.38595550  0.32815250  0.60850550  1
  P  P35  1  0.11404450  0.32815250  0.39149450  1
  P  P36  1  0.36404450  0.64149450  0.57815250  1
  P  P37  1  0.39149450  0.88595550  0.17184750  1
  P  P38  1  0.36404450  0.35850550  0.92184750  1
  P  P39  1  0.07815250  0.13595550  0.35850550  1
  P  P40  1  0.35850550  0.92184750  0.36404450  1
  P  P41  1  0.67184750  0.10850550  0.11404450  1
  P  P42  1  0.17184750  0.39149450  0.88595550  1
  P  P43  1  0.63595550  0.14149450  0.92184750  1
  P  P44  1  0.10850550  0.11404450  0.67184750  1
  P  P45  1  0.57815250  0.36404450  0.64149450  1
  P  P46  1  0.64149450  0.57815250  0.36404450  1
  P  P47  1  0.92184750  0.63595550  0.14149450  1
  P  P48  1  0.92184750  0.36404450  0.35850550  1
  P  P49  1  0.39149450  0.11404450  0.32815250  1
  P  P50  1  0.60850550  0.38595550  0.32815250  1
  P  P51  1  0.13595550  0.35850550  0.07815250  1
  P  P52  1  0.14149450  0.92184750  0.63595550  1
  P  P53  1  0.32815250  0.60850550  0.38595550  1
  P  P54  1  0.11404450  0.67184750  0.10850550  1
  P  P55  1  0.35850550  0.07815250  0.13595550  1
  P  P56  1  0.82815250  0.89149450  0.61404450  1
  P  P57  1  0.38595550  0.67184750  0.89149450  1
  P  P58  1  0.88595550  0.82815250  0.10850550  1
  P  P59  1  0.61404450  0.82815250  0.89149450  1
  P  P60  1  0.86404450  0.14149450  0.07815250  1
  P  P61  1  0.89149450  0.38595550  0.67184750  1
  P  P62  1  0.86404450  0.85850550  0.42184750  1
  P  P63  1  0.57815250  0.63595550  0.85850550  1
  P  P64  1  0.85850550  0.42184750  0.86404450  1
  P  P65  1  0.17184750  0.60850550  0.61404450  1
  P  P66  1  0.67184750  0.89149450  0.38595550  1
  P  P67  1  0.13595550  0.64149450  0.42184750  1
  P  P68  1  0.60850550  0.61404450  0.17184750  1
  P  P69  1  0.07815250  0.86404450  0.14149450  1
  P  P70  1  0.14149450  0.07815250  0.86404450  1
  P  P71  1  0.42184750  0.13595550  0.64149450  1
  P  P72  1  0.42184750  0.86404450  0.85850550  1
  P  P73  1  0.89149450  0.61404450  0.82815250  1
  P  P74  1  0.10850550  0.88595550  0.82815250  1
  P  P75  1  0.63595550  0.85850550  0.57815250  1
  P  P76  1  0.64149450  0.42184750  0.13595550  1
  P  P77  1  0.82815250  0.10850550  0.88595550  1
  P  P78  1  0.61404450  0.17184750  0.60850550  1
  P  P79  1  0.85850550  0.57815250  0.63595550  1
  O  O80  1  0.66590450  0.83204050  0.30341650  1
  O  O81  1  0.42207600  0.09849800  0.22319900  1
  O  O82  1  0.19658350  0.66590450  0.16795950  1
  O  O83  1  0.27318950  0.86642750  0.36035850  1
  O  O84  1  0.32792400  0.97319900  0.15150200  1
  O  O85  1  0.72681050  0.63357250  0.36035850  1
  O  O86  1  0.47681050  0.88964150  0.11642750  1
  O  O87  1  0.77680100  0.07792400  0.09849800  1
  O  O88  1  0.11642750  0.47681050  0.88964150  1
  O  O89  1  0.47319900  0.34849800  0.67207600  1
  O  O90  1  0.05341650  0.41795950  0.08409550  1
  O  O91  1  0.13357250  0.13964150  0.27318950  1
  O  O92  1  0.22681050  0.86642750  0.63964150  1
  O  O93  1  0.83409550  0.16795950  0.80341650  1
  O  O94  1  0.38357250  0.52318950  0.38964150  1
  O  O95  1  0.11035850  0.61642750  0.02318950  1
  O  O96  1  0.41795950  0.08409550  0.05341650  1
  O  O97  1  0.02680100  0.34849800  0.32792400  1
  O  O98  1  0.08409550  0.05341650  0.41795950  1
  O  O99  1  0.66590450  0.16795950  0.19658350  1
  O  O100  1  0.16795950  0.80341650  0.83409550  1
  O  O101  1  0.16795950  0.19658350  0.66590450  1
  O  O102  1  0.67207600  0.47319900  0.34849800  1
  O  O103  1  0.09849800  0.77680100  0.07792400  1
  O  O104  1  0.41795950  0.91590450  0.44658350  1
  O  O105  1  0.91590450  0.44658350  0.41795950  1
  O  O106  1  0.22319900  0.42207600  0.09849800  1
  O  O107  1  0.38964150  0.38357250  0.52318950  1
  O  O108  1  0.08409550  0.94658350  0.08204050  1
  O  O109  1  0.86642750  0.63964150  0.22681050  1
  O  O110  1  0.86642750  0.36035850  0.27318950  1
  O  O111  1  0.80341650  0.83409550  0.16795950  1
  O  O112  1  0.09849800  0.22319900  0.42207600  1
  O  O113  1  0.33409550  0.33204050  0.19658350  1
  O  O114  1  0.58204050  0.41590450  0.05341650  1
  O  O115  1  0.65150200  0.17207600  0.02680100  1
  O  O116  1  0.30341650  0.66590450  0.83204050  1
  O  O117  1  0.02680100  0.65150200  0.17207600  1
  O  O118  1  0.52318950  0.38964150  0.38357250  1
  O  O119  1  0.90150200  0.27680100  0.42207600  1
  O  O120  1  0.36035850  0.72681050  0.63357250  1
  O  O121  1  0.32792400  0.02680100  0.34849800  1
  O  O122  1  0.97319900  0.15150200  0.32792400  1
  O  O123  1  0.41590450  0.05341650  0.58204050  1
  O  O124  1  0.57792400  0.40150200  0.22319900  1
  O  O125  1  0.88964150  0.11642750  0.47681050  1
  O  O126  1  0.11035850  0.38357250  0.47681050  1
  O  O127  1  0.19658350  0.33409550  0.33204050  1
  O  O128  1  0.22319900  0.57792400  0.40150200  1
  O  O129  1  0.63357250  0.36035850  0.72681050  1
  O  O130  1  0.63964150  0.22681050  0.86642750  1
  O  O131  1  0.02318950  0.11035850  0.61642750  1
  O  O132  1  0.15150200  0.32792400  0.97319900  1
  O  O133  1  0.40150200  0.22319900  0.57792400  1
  O  O134  1  0.27680100  0.42207600  0.90150200  1
  O  O135  1  0.33204050  0.19658350  0.33409550  1
  O  O136  1  0.44658350  0.41795950  0.91590450  1
  O  O137  1  0.07792400  0.09849800  0.77680100  1
  O  O138  1  0.94658350  0.08204050  0.08409550  1
  O  O139  1  0.36035850  0.27318950  0.86642750  1
  O  O140  1  0.13964150  0.27318950  0.13357250  1
  O  O141  1  0.42207600  0.90150200  0.27680100  1
  O  O142  1  0.17207600  0.02680100  0.65150200  1
  O  O143  1  0.38357250  0.47681050  0.11035850  1
  O  O144  1  0.05341650  0.58204050  0.41590450  1
  O  O145  1  0.27318950  0.13357250  0.13964150  1
  O  O146  1  0.34849800  0.32792400  0.02680100  1
  O  O147  1  0.08204050  0.08409550  0.94658350  1
  O  O148  1  0.34849800  0.67207600  0.47319900  1
  O  O149  1  0.61642750  0.02318950  0.11035850  1
  O  O150  1  0.47681050  0.11035850  0.38357250  1
  O  O151  1  0.83204050  0.30341650  0.66590450  1
  O  O152  1  0.16590450  0.33204050  0.80341650  1
  O  O153  1  0.92207600  0.59849800  0.72319900  1
  O  O154  1  0.69658350  0.16590450  0.66795950  1
  O  O155  1  0.77318950  0.36642750  0.86035850  1
  O  O156  1  0.82792400  0.47319900  0.65150200  1
  O  O157  1  0.22681050  0.13357250  0.86035850  1
  O  O158  1  0.97681050  0.38964150  0.61642750  1
  O  O159  1  0.27680100  0.57792400  0.59849800  1
  O  O160  1  0.61642750  0.97681050  0.38964150  1
  O  O161  1  0.97319900  0.84849800  0.17207600  1
  O  O162  1  0.55341650  0.91795950  0.58409550  1
  O  O163  1  0.63357250  0.63964150  0.77318950  1
  O  O164  1  0.72681050  0.36642750  0.13964150  1
  O  O165  1  0.33409550  0.66795950  0.30341650  1
  O  O166  1  0.88357250  0.02318950  0.88964150  1
  O  O167  1  0.61035850  0.11642750  0.52318950  1
  O  O168  1  0.91795950  0.58409550  0.55341650  1
  O  O169  1  0.52680100  0.84849800  0.82792400  1
  O  O170  1  0.58409550  0.55341650  0.91795950  1
  O  O171  1  0.16590450  0.66795950  0.69658350  1
  O  O172  1  0.66795950  0.30341650  0.33409550  1
  O  O173  1  0.66795950  0.69658350  0.16590450  1
  O  O174  1  0.17207600  0.97319900  0.84849800  1
  O  O175  1  0.59849800  0.27680100  0.57792400  1
  O  O176  1  0.91795950  0.41590450  0.94658350  1
  O  O177  1  0.41590450  0.94658350  0.91795950  1
  O  O178  1  0.72319900  0.92207600  0.59849800  1
  O  O179  1  0.88964150  0.88357250  0.02318950  1
  O  O180  1  0.58409550  0.44658350  0.58204050  1
  O  O181  1  0.36642750  0.13964150  0.72681050  1
  O  O182  1  0.36642750  0.86035850  0.77318950  1
  O  O183  1  0.30341650  0.33409550  0.66795950  1
  O  O184  1  0.59849800  0.72319900  0.92207600  1
  O  O185  1  0.83409550  0.83204050  0.69658350  1
  O  O186  1  0.08204050  0.91590450  0.55341650  1
  O  O187  1  0.15150200  0.67207600  0.52680100  1
  O  O188  1  0.80341650  0.16590450  0.33204050  1
  O  O189  1  0.52680100  0.15150200  0.67207600  1
  O  O190  1  0.02318950  0.88964150  0.88357250  1
  O  O191  1  0.40150200  0.77680100  0.92207600  1
  O  O192  1  0.86035850  0.22681050  0.13357250  1
  O  O193  1  0.82792400  0.52680100  0.84849800  1
  O  O194  1  0.47319900  0.65150200  0.82792400  1
  O  O195  1  0.91590450  0.55341650  0.08204050  1
  O  O196  1  0.07792400  0.90150200  0.72319900  1
  O  O197  1  0.38964150  0.61642750  0.97681050  1
  O  O198  1  0.61035850  0.88357250  0.97681050  1
  O  O199  1  0.69658350  0.83409550  0.83204050  1
  O  O200  1  0.72319900  0.07792400  0.90150200  1
  O  O201  1  0.13357250  0.86035850  0.22681050  1
  O  O202  1  0.13964150  0.72681050  0.36642750  1
  O  O203  1  0.52318950  0.61035850  0.11642750  1
  O  O204  1  0.65150200  0.82792400  0.47319900  1
  O  O205  1  0.90150200  0.72319900  0.07792400  1
  O  O206  1  0.77680100  0.92207600  0.40150200  1
  O  O207  1  0.83204050  0.69658350  0.83409550  1
  O  O208  1  0.94658350  0.91795950  0.41590450  1
  O  O209  1  0.57792400  0.59849800  0.27680100  1
  O  O210  1  0.44658350  0.58204050  0.58409550  1
  O  O211  1  0.86035850  0.77318950  0.36642750  1
  O  O212  1  0.63964150  0.77318950  0.63357250  1
  O  O213  1  0.92207600  0.40150200  0.77680100  1
  O  O214  1  0.67207600  0.52680100  0.15150200  1
  O  O215  1  0.88357250  0.97681050  0.61035850  1
  O  O216  1  0.55341650  0.08204050  0.91590450  1
  O  O217  1  0.77318950  0.63357250  0.63964150  1
  O  O218  1  0.84849800  0.82792400  0.52680100  1
  O  O219  1  0.58204050  0.58409550  0.44658350  1
  O  O220  1  0.84849800  0.17207600  0.97319900  1
  O  O221  1  0.11642750  0.52318950  0.61035850  1
  O  O222  1  0.97681050  0.61035850  0.88357250  1
  O  O223  1  0.33204050  0.80341650  0.16590450  1
