# generated using pymatgen
data_NaPr(Si3O7)2
_symmetry_space_group_name_H-M   'P 1'
_cell_length_a   7.77308800
_cell_length_b   15.63615200
_cell_length_c   19.98164200
_cell_angle_alpha   90.00000000
_cell_angle_beta   90.00000000
_cell_angle_gamma   90.00000000
_symmetry_Int_Tables_number   1
_chemical_formula_structural   NaPr(Si3O7)2
_chemical_formula_sum   'Na8 Pr8 Si48 O112'
_cell_volume   2428.59245646
_cell_formula_units_Z   8
loop_
 _symmetry_equiv_pos_site_id
 _symmetry_equiv_pos_as_xyz
  1  'x, y, z'
loop_
 _atom_site_type_symbol
 _atom_site_label
 _atom_site_symmetry_multiplicity
 _atom_site_fract_x
 _atom_site_fract_y
 _atom_site_fract_z
 _atom_site_occupancy
  Na  Na0  1  0.50000000  0.50000000  0.25000000  1
  Na  Na1  1  0.00000000  0.50000000  0.00000000  1
  Na  Na2  1  0.50000000  0.50000000  0.75000000  1
  Na  Na3  1  0.50000000  0.00000000  0.00000000  1
  Na  Na4  1  0.00000000  0.00000000  0.75000000  1
  Na  Na5  1  0.50000000  0.00000000  0.50000000  1
  Na  Na6  1  0.00000000  0.00000000  0.25000000  1
  Na  Na7  1  0.00000000  0.50000000  0.50000000  1
  Pr  Pr8  1  0.50000000  0.27156300  0.75000000  1
  Pr  Pr9  1  0.50000000  0.27156300  0.25000000  1
  Pr  Pr10  1  0.50000000  0.72843700  0.25000000  1
  Pr  Pr11  1  0.50000000  0.72843700  0.75000000  1
  Pr  Pr12  1  0.00000000  0.77156300  0.25000000  1
  Pr  Pr13  1  0.00000000  0.77156300  0.75000000  1
  Pr  Pr14  1  0.00000000  0.22843700  0.75000000  1
  Pr  Pr15  1  0.00000000  0.22843700  0.25000000  1
  Si  Si16  1  0.15055250  0.61953750  0.85310150  1
  Si  Si17  1  0.15055250  0.38046250  0.64689850  1
  Si  Si18  1  0.73177300  0.33348700  0.00000000  1
  Si  Si19  1  0.15055250  0.61953750  0.14689850  1
  Si  Si20  1  0.67740100  0.63378600  0.00000000  1
  Si  Si21  1  0.23838100  0.42206000  0.85382400  1
  Si  Si22  1  0.15055250  0.38046250  0.35310150  1
  Si  Si23  1  0.17740100  0.86621400  0.00000000  1
  Si  Si24  1  0.23838100  0.57794000  0.64617600  1
  Si  Si25  1  0.84944750  0.61953750  0.35310150  1
  Si  Si26  1  0.76161900  0.42206000  0.35382400  1
  Si  Si27  1  0.23177300  0.16651300  0.00000000  1
  Si  Si28  1  0.76161900  0.42206000  0.64617600  1
  Si  Si29  1  0.76822700  0.83348700  0.00000000  1
  Si  Si30  1  0.84944750  0.61953750  0.64689850  1
  Si  Si31  1  0.23838100  0.42206000  0.14617600  1
  Si  Si32  1  0.84944750  0.38046250  0.14689850  1
  Si  Si33  1  0.26822700  0.66651300  0.00000000  1
  Si  Si34  1  0.23838100  0.57794000  0.35382400  1
  Si  Si35  1  0.82259900  0.13378600  0.00000000  1
  Si  Si36  1  0.76161900  0.57794000  0.14617600  1
  Si  Si37  1  0.32259900  0.36621400  0.00000000  1
  Si  Si38  1  0.76161900  0.57794000  0.85382400  1
  Si  Si39  1  0.84944750  0.38046250  0.85310150  1
  Si  Si40  1  0.65055250  0.11953750  0.35310150  1
  Si  Si41  1  0.65055250  0.88046250  0.14689850  1
  Si  Si42  1  0.23177300  0.83348700  0.50000000  1
  Si  Si43  1  0.65055250  0.11953750  0.64689850  1
  Si  Si44  1  0.17740100  0.13378600  0.50000000  1
  Si  Si45  1  0.73838100  0.92206000  0.35382400  1
  Si  Si46  1  0.65055250  0.88046250  0.85310150  1
  Si  Si47  1  0.67740100  0.36621400  0.50000000  1
  Si  Si48  1  0.73838100  0.07794000  0.14617600  1
  Si  Si49  1  0.34944750  0.11953750  0.85310150  1
  Si  Si50  1  0.26161900  0.92206000  0.85382400  1
  Si  Si51  1  0.73177300  0.66651300  0.50000000  1
  Si  Si52  1  0.26161900  0.92206000  0.14617600  1
  Si  Si53  1  0.26822700  0.33348700  0.50000000  1
  Si  Si54  1  0.34944750  0.11953750  0.14689850  1
  Si  Si55  1  0.73838100  0.92206000  0.64617600  1
  Si  Si56  1  0.34944750  0.88046250  0.64689850  1
  Si  Si57  1  0.76822700  0.16651300  0.50000000  1
  Si  Si58  1  0.73838100  0.07794000  0.85382400  1
  Si  Si59  1  0.32259900  0.63378600  0.50000000  1
  Si  Si60  1  0.26161900  0.07794000  0.64617600  1
  Si  Si61  1  0.82259900  0.86621400  0.50000000  1
  Si  Si62  1  0.26161900  0.07794000  0.35382400  1
  Si  Si63  1  0.34944750  0.88046250  0.35310150  1
  O  O64  1  0.23809900  0.69556700  0.18813600  1
  O  O65  1  0.26190100  0.19556700  0.18813600  1
  O  O66  1  0.74690650  0.07942850  0.06308650  1
  O  O67  1  0.59708500  0.38423400  0.31798800  1
  O  O68  1  0.78793700  0.52312000  0.33310400  1
  O  O69  1  0.66782550  0.87436750  0.93576850  1
  O  O70  1  0.59708500  0.61576600  0.18201200  1
  O  O71  1  0.59708500  0.38423400  0.68201200  1
  O  O72  1  0.25761100  0.77006900  0.00000000  1
  O  O73  1  0.75309350  0.57942850  0.06308650  1
  O  O74  1  0.83217450  0.37436750  0.93576850  1
  O  O75  1  0.33217450  0.12563250  0.06423150  1
  O  O76  1  0.76190100  0.30443300  0.18813600  1
  O  O77  1  0.73809900  0.80443300  0.18813600  1
  O  O78  1  0.25309350  0.92057150  0.93691350  1
  O  O79  1  0.33217450  0.12563250  0.93576850  1
  O  O80  1  0.03105300  0.13758900  0.00000000  1
  O  O81  1  0.05755550  0.37055150  0.83470450  1
  O  O82  1  0.16782550  0.62563250  0.06423150  1
  O  O83  1  0.53105300  0.36241100  0.00000000  1
  O  O84  1  0.76190100  0.30443300  0.81186400  1
  O  O85  1  0.21206300  0.52312000  0.16689600  1
  O  O86  1  0.73809900  0.80443300  0.81186400  1
  O  O87  1  0.24690650  0.42057150  0.06308650  1
  O  O88  1  0.40291500  0.38423400  0.81798800  1
  O  O89  1  0.40291500  0.61576600  0.31798800  1
  O  O90  1  0.25309350  0.92057150  0.06308650  1
  O  O91  1  0.21206300  0.52312000  0.83310400  1
  O  O92  1  0.16782550  0.62563250  0.93576850  1
  O  O93  1  0.75761100  0.72993100  0.00000000  1
  O  O94  1  0.26190100  0.19556700  0.81186400  1
  O  O95  1  0.21206300  0.47688000  0.33310400  1
  O  O96  1  0.05755550  0.62944850  0.66529550  1
  O  O97  1  0.96894700  0.86241100  0.00000000  1
  O  O98  1  0.74238900  0.22993100  0.00000000  1
  O  O99  1  0.40291500  0.61576600  0.68201200  1
  O  O100  1  0.74690650  0.07942850  0.93691350  1
  O  O101  1  0.40291500  0.38423400  0.18201200  1
  O  O102  1  0.78793700  0.52312000  0.66689600  1
  O  O103  1  0.05755550  0.62944850  0.33470450  1
  O  O104  1  0.94244450  0.37055150  0.66529550  1
  O  O105  1  0.78793700  0.47688000  0.16689600  1
  O  O106  1  0.94244450  0.37055150  0.33470450  1
  O  O107  1  0.59708500  0.61576600  0.81798800  1
  O  O108  1  0.05755550  0.37055150  0.16529550  1
  O  O109  1  0.75309350  0.57942850  0.93691350  1
  O  O110  1  0.24238900  0.27006900  0.00000000  1
  O  O111  1  0.23809900  0.69556700  0.81186400  1
  O  O112  1  0.78793700  0.47688000  0.83310400  1
  O  O113  1  0.94244450  0.62944850  0.83470450  1
  O  O114  1  0.94244450  0.62944850  0.16529550  1
  O  O115  1  0.24690650  0.42057150  0.93691350  1
  O  O116  1  0.21206300  0.47688000  0.66689600  1
  O  O117  1  0.46894700  0.63758900  0.00000000  1
  O  O118  1  0.83217450  0.37436750  0.06423150  1
  O  O119  1  0.66782550  0.87436750  0.06423150  1
  O  O120  1  0.73809900  0.19556700  0.68813600  1
  O  O121  1  0.76190100  0.69556700  0.68813600  1
  O  O122  1  0.24690650  0.57942850  0.56308650  1
  O  O123  1  0.09708500  0.88423400  0.81798800  1
  O  O124  1  0.28793700  0.02312000  0.83310400  1
  O  O125  1  0.16782550  0.37436750  0.43576850  1
  O  O126  1  0.09708500  0.11576600  0.68201200  1
  O  O127  1  0.09708500  0.88423400  0.18201200  1
  O  O128  1  0.75761100  0.27006900  0.50000000  1
  O  O129  1  0.25309350  0.07942850  0.56308650  1
  O  O130  1  0.33217450  0.87436750  0.43576850  1
  O  O131  1  0.83217450  0.62563250  0.56423150  1
  O  O132  1  0.26190100  0.80443300  0.68813600  1
  O  O133  1  0.23809900  0.30443300  0.68813600  1
  O  O134  1  0.75309350  0.42057150  0.43691350  1
  O  O135  1  0.83217450  0.62563250  0.43576850  1
  O  O136  1  0.53105300  0.63758900  0.50000000  1
  O  O137  1  0.55755550  0.87055150  0.33470450  1
  O  O138  1  0.66782550  0.12563250  0.56423150  1
  O  O139  1  0.03105300  0.86241100  0.50000000  1
  O  O140  1  0.26190100  0.80443300  0.31186400  1
  O  O141  1  0.71206300  0.02312000  0.66689600  1
  O  O142  1  0.23809900  0.30443300  0.31186400  1
  O  O143  1  0.74690650  0.92057150  0.56308650  1
  O  O144  1  0.90291500  0.88423400  0.31798800  1
  O  O145  1  0.90291500  0.11576600  0.81798800  1
  O  O146  1  0.75309350  0.42057150  0.56308650  1
  O  O147  1  0.71206300  0.02312000  0.33310400  1
  O  O148  1  0.66782550  0.12563250  0.43576850  1
  O  O149  1  0.25761100  0.22993100  0.50000000  1
  O  O150  1  0.76190100  0.69556700  0.31186400  1
  O  O151  1  0.71206300  0.97688000  0.83310400  1
  O  O152  1  0.55755550  0.12944850  0.16529550  1
  O  O153  1  0.46894700  0.36241100  0.50000000  1
  O  O154  1  0.24238900  0.72993100  0.50000000  1
  O  O155  1  0.90291500  0.11576600  0.18201200  1
  O  O156  1  0.24690650  0.57942850  0.43691350  1
  O  O157  1  0.90291500  0.88423400  0.68201200  1
  O  O158  1  0.28793700  0.02312000  0.16689600  1
  O  O159  1  0.55755550  0.12944850  0.83470450  1
  O  O160  1  0.44244450  0.87055150  0.16529550  1
  O  O161  1  0.28793700  0.97688000  0.66689600  1
  O  O162  1  0.44244450  0.87055150  0.83470450  1
  O  O163  1  0.09708500  0.11576600  0.31798800  1
  O  O164  1  0.55755550  0.87055150  0.66529550  1
  O  O165  1  0.25309350  0.07942850  0.43691350  1
  O  O166  1  0.74238900  0.77006900  0.50000000  1
  O  O167  1  0.73809900  0.19556700  0.31186400  1
  O  O168  1  0.28793700  0.97688000  0.33310400  1
  O  O169  1  0.44244450  0.12944850  0.33470450  1
  O  O170  1  0.44244450  0.12944850  0.66529550  1
  O  O171  1  0.74690650  0.92057150  0.43691350  1
  O  O172  1  0.71206300  0.97688000  0.16689600  1
  O  O173  1  0.96894700  0.13758900  0.50000000  1
  O  O174  1  0.33217450  0.87436750  0.56423150  1
  O  O175  1  0.16782550  0.37436750  0.56423150  1
