# generated using pymatgen
data_Sc2Si2O7
_symmetry_space_group_name_H-M   'P 1'
_cell_length_a   6.55774600
_cell_length_b   8.59106000
_cell_length_c   4.73692347
_cell_angle_alpha   90.00000000
_cell_angle_beta   102.87506321
_cell_angle_gamma   90.00000000
_symmetry_Int_Tables_number   1
_chemical_formula_structural   Sc2Si2O7
_chemical_formula_sum   'Sc4 Si4 O14'
_cell_volume   260.15920103
_cell_formula_units_Z   2
loop_
 _symmetry_equiv_pos_site_id
 _symmetry_equiv_pos_as_xyz
  1  'x, y, z'
loop_
 _atom_site_type_symbol
 _atom_site_label
 _atom_site_symmetry_multiplicity
 _atom_site_fract_x
 _atom_site_fract_y
 _atom_site_fract_z
 _atom_site_occupancy
  Sc  Sc0  1  0.50000000  0.18972800  0.00000000  1
  Sc  Sc1  1  0.50000000  0.81027200  0.00000000  1
  Sc  Sc2  1  0.00000000  0.68972800  0.00000000  1
  Sc  Sc3  1  0.00000000  0.31027200  0.00000000  1
  Si  Si4  1  0.22371400  0.00000000  0.40663500  1
  Si  Si5  1  0.77628600  0.00000000  0.59336500  1
  Si  Si6  1  0.72371400  0.50000000  0.40663500  1
  Si  Si7  1  0.27628600  0.50000000  0.59336500  1
  O  O8  1  0.76516150  0.84253950  0.78845600  1
  O  O9  1  0.23483850  0.84253950  0.21154400  1
  O  O10  1  0.23483850  0.15746050  0.21154400  1
  O  O11  1  0.76516150  0.15746050  0.78845600  1
  O  O12  1  0.00000000  0.00000000  0.50000000  1
  O  O13  1  0.60537600  0.00000000  0.28036200  1
  O  O14  1  0.39462400  0.00000000  0.71963800  1
  O  O15  1  0.26516150  0.34253950  0.78845600  1
  O  O16  1  0.73483850  0.34253950  0.21154400  1
  O  O17  1  0.73483850  0.65746050  0.21154400  1
  O  O18  1  0.26516150  0.65746050  0.78845600  1
  O  O19  1  0.50000000  0.50000000  0.50000000  1
  O  O20  1  0.10537600  0.50000000  0.28036200  1
  O  O21  1  0.89462400  0.50000000  0.71963800  1
