# generated using pymatgen
data_ScBiO3
_symmetry_space_group_name_H-M   'P 1'
_cell_length_a   9.98085800
_cell_length_b   5.89362400
_cell_length_c   10.14259118
_cell_angle_alpha   90.00000000
_cell_angle_beta   108.91579422
_cell_angle_gamma   90.00000000
_symmetry_Int_Tables_number   1
_chemical_formula_structural   ScBiO3
_chemical_formula_sum   'Sc8 Bi8 O24'
_cell_volume   564.40199098
_cell_formula_units_Z   8
loop_
 _symmetry_equiv_pos_site_id
 _symmetry_equiv_pos_as_xyz
  1  'x, y, z'
loop_
 _atom_site_type_symbol
 _atom_site_label
 _atom_site_symmetry_multiplicity
 _atom_site_fract_x
 _atom_site_fract_y
 _atom_site_fract_z
 _atom_site_occupancy
  Sc  Sc0  1  0.25000000  0.75000000  0.00000000  1
  Sc  Sc1  1  0.00000000  0.74954700  0.25000000  1
  Sc  Sc2  1  0.75000000  0.75000000  0.50000000  1
  Sc  Sc3  1  0.00000000  0.25045300  0.75000000  1
  Sc  Sc4  1  0.75000000  0.25000000  0.00000000  1
  Sc  Sc5  1  0.50000000  0.24954700  0.25000000  1
  Sc  Sc6  1  0.25000000  0.25000000  0.50000000  1
  Sc  Sc7  1  0.50000000  0.75045300  0.75000000  1
  Bi  Bi8  1  0.86651450  0.17997350  0.36665500  1
  Bi  Bi9  1  0.86651450  0.82002650  0.86665500  1
  Bi  Bi10  1  0.13348550  0.82002650  0.63334500  1
  Bi  Bi11  1  0.13348550  0.17997350  0.13334500  1
  Bi  Bi12  1  0.36651450  0.67997350  0.36665500  1
  Bi  Bi13  1  0.36651450  0.32002650  0.86665500  1
  Bi  Bi14  1  0.63348550  0.32002650  0.63334500  1
  Bi  Bi15  1  0.63348550  0.67997350  0.13334500  1
  O  O16  1  0.35383600  0.52906400  0.16352900  1
  O  O17  1  0.08093450  0.81233750  0.08129200  1
  O  O18  1  0.84207950  0.47046050  0.63604700  1
  O  O19  1  0.64616400  0.52906400  0.33647100  1
  O  O20  1  0.15792050  0.47046050  0.86395300  1
  O  O21  1  0.15792050  0.52953950  0.36395300  1
  O  O22  1  0.08093450  0.18766250  0.58129200  1
  O  O23  1  0.91906550  0.81233750  0.41870800  1
  O  O24  1  0.64616400  0.47093600  0.83647100  1
  O  O25  1  0.84207950  0.52953950  0.13604700  1
  O  O26  1  0.91906550  0.18766250  0.91870800  1
  O  O27  1  0.35383600  0.47093600  0.66352900  1
  O  O28  1  0.85383600  0.02906400  0.16352900  1
  O  O29  1  0.58093450  0.31233750  0.08129200  1
  O  O30  1  0.34207950  0.97046050  0.63604700  1
  O  O31  1  0.14616400  0.02906400  0.33647100  1
  O  O32  1  0.65792050  0.97046050  0.86395300  1
  O  O33  1  0.65792050  0.02953950  0.36395300  1
  O  O34  1  0.58093450  0.68766250  0.58129200  1
  O  O35  1  0.41906550  0.31233750  0.41870800  1
  O  O36  1  0.14616400  0.97093600  0.83647100  1
  O  O37  1  0.34207950  0.02953950  0.13604700  1
  O  O38  1  0.41906550  0.68766250  0.91870800  1
  O  O39  1  0.85383600  0.97093600  0.66352900  1
