# generated using pymatgen
data_K2SmP2S7
_symmetry_space_group_name_H-M   'P 1'
_cell_length_a   22.93834800
_cell_length_b   6.78220200
_cell_length_c   9.05142618
_cell_angle_alpha   90.00000000
_cell_angle_beta   97.04980274
_cell_angle_gamma   90.00000000
_symmetry_Int_Tables_number   1
_chemical_formula_structural   K2SmP2S7
_chemical_formula_sum   'K8 Sm4 P8 S28'
_cell_volume   1397.50723219
_cell_formula_units_Z   4
loop_
 _symmetry_equiv_pos_site_id
 _symmetry_equiv_pos_as_xyz
  1  'x, y, z'
loop_
 _atom_site_type_symbol
 _atom_site_label
 _atom_site_symmetry_multiplicity
 _atom_site_fract_x
 _atom_site_fract_y
 _atom_site_fract_z
 _atom_site_occupancy
  K  K0  1  0.55748300  0.87091500  0.69771700  1
  K  K1  1  0.81414100  0.36818600  0.87932700  1
  K  K2  1  0.94251700  0.37091500  0.30228300  1
  K  K3  1  0.68585900  0.86818600  0.12067300  1
  K  K4  1  0.05748300  0.37091500  0.69771700  1
  K  K5  1  0.31414100  0.86818600  0.87932700  1
  K  K6  1  0.44251700  0.87091500  0.30228300  1
  K  K7  1  0.18585900  0.36818600  0.12067300  1
  Sm  Sm8  1  0.66034200  0.38945200  0.53339100  1
  Sm  Sm9  1  0.83965800  0.88945200  0.46660900  1
  Sm  Sm10  1  0.16034200  0.88945200  0.53339100  1
  Sm  Sm11  1  0.33965800  0.38945200  0.46660900  1
  P  P12  1  0.72770750  0.84989550  0.70725300  1
  P  P13  1  0.77229250  0.34989550  0.29274700  1
  P  P14  1  0.51510900  0.37034500  0.38699400  1
  P  P15  1  0.98489100  0.87034500  0.61300600  1
  P  P16  1  0.22770750  0.34989550  0.70725300  1
  P  P17  1  0.27229250  0.84989550  0.29274700  1
  P  P18  1  0.01510900  0.87034500  0.38699400  1
  P  P19  1  0.48489100  0.37034500  0.61300600  1
  S  S20  1  0.94089350  0.86847850  0.24330200  1
  S  S21  1  0.71431500  0.79141500  0.48103300  1
  S  S22  1  0.78568500  0.29141500  0.51896700  1
  S  S23  1  0.80956100  0.11575100  0.19519000  1
  S  S24  1  0.55910650  0.36847850  0.75669800  1
  S  S25  1  0.81463000  0.59766000  0.23067100  1
  S  S26  1  0.93425950  0.11843350  0.61636400  1
  S  S27  1  0.68537000  0.09766000  0.76932900  1
  S  S28  1  0.81597650  0.86639150  0.76940300  1
  S  S29  1  0.56574050  0.61843350  0.38363600  1
  S  S30  1  0.56860250  0.12994250  0.38826100  1
  S  S31  1  0.68402350  0.36639150  0.23059700  1
  S  S32  1  0.93139750  0.62994250  0.61173900  1
  S  S33  1  0.69043900  0.61575100  0.80481000  1
  S  S34  1  0.44089350  0.36847850  0.24330200  1
  S  S35  1  0.21431500  0.29141500  0.48103300  1
  S  S36  1  0.28568500  0.79141500  0.51896700  1
  S  S37  1  0.30956100  0.61575100  0.19519000  1
  S  S38  1  0.05910650  0.86847850  0.75669800  1
  S  S39  1  0.31463000  0.09766000  0.23067100  1
  S  S40  1  0.43425950  0.61843350  0.61636400  1
  S  S41  1  0.18537000  0.59766000  0.76932900  1
  S  S42  1  0.31597650  0.36639150  0.76940300  1
  S  S43  1  0.06574050  0.11843350  0.38363600  1
  S  S44  1  0.06860250  0.62994250  0.38826100  1
  S  S45  1  0.18402350  0.86639150  0.23059700  1
  S  S46  1  0.43139750  0.12994250  0.61173900  1
  S  S47  1  0.19043900  0.11575100  0.80481000  1
