# generated using pymatgen
data_SrLuCuSe3
_symmetry_space_group_name_H-M   'P 1'
_cell_length_a   4.05943000
_cell_length_b   13.54762800
_cell_length_c   10.44620200
_cell_angle_alpha   90.00000000
_cell_angle_beta   90.00000000
_cell_angle_gamma   90.00000000
_symmetry_Int_Tables_number   1
_chemical_formula_structural   SrLuCuSe3
_chemical_formula_sum   'Sr4 Lu4 Cu4 Se12'
_cell_volume   574.49564324
_cell_formula_units_Z   4
loop_
 _symmetry_equiv_pos_site_id
 _symmetry_equiv_pos_as_xyz
  1  'x, y, z'
loop_
 _atom_site_type_symbol
 _atom_site_label
 _atom_site_symmetry_multiplicity
 _atom_site_fract_x
 _atom_site_fract_y
 _atom_site_fract_z
 _atom_site_occupancy
  Sr  Sr0  1  0.00000000  0.24870500  0.75000000  1
  Sr  Sr1  1  0.50000000  0.25129500  0.25000000  1
  Sr  Sr2  1  0.50000000  0.74870500  0.75000000  1
  Sr  Sr3  1  0.00000000  0.75129500  0.25000000  1
  Lu  Lu4  1  0.00000000  0.00000000  0.50000000  1
  Lu  Lu5  1  0.00000000  0.00000000  0.00000000  1
  Lu  Lu6  1  0.50000000  0.50000000  0.50000000  1
  Lu  Lu7  1  0.50000000  0.50000000  0.00000000  1
  Cu  Cu8  1  0.00000000  0.47076200  0.25000000  1
  Cu  Cu9  1  0.50000000  0.02923800  0.75000000  1
  Cu  Cu10  1  0.50000000  0.97076200  0.25000000  1
  Cu  Cu11  1  0.00000000  0.52923800  0.75000000  1
  Se  Se12  1  0.50000000  0.13779400  0.93847000  1
  Se  Se13  1  0.00000000  0.07741500  0.25000000  1
  Se  Se14  1  0.00000000  0.36220600  0.43847000  1
  Se  Se15  1  0.50000000  0.13779400  0.56153000  1
  Se  Se16  1  0.50000000  0.42258500  0.75000000  1
  Se  Se17  1  0.00000000  0.36220600  0.06153000  1
  Se  Se18  1  0.00000000  0.63779400  0.93847000  1
  Se  Se19  1  0.50000000  0.57741500  0.25000000  1
  Se  Se20  1  0.50000000  0.86220600  0.43847000  1
  Se  Se21  1  0.00000000  0.63779400  0.56153000  1
  Se  Se22  1  0.00000000  0.92258500  0.75000000  1
  Se  Se23  1  0.50000000  0.86220600  0.06153000  1
