# generated using pymatgen
data_YPO4
_symmetry_space_group_name_H-M   'P 1'
_cell_length_a   6.98227400
_cell_length_b   6.98227400
_cell_length_c   6.07170800
_cell_angle_alpha   90.00000000
_cell_angle_beta   90.00000000
_cell_angle_gamma   90.00000000
_symmetry_Int_Tables_number   1
_chemical_formula_structural   YPO4
_chemical_formula_sum   'Y4 P4 O16'
_cell_volume   296.00882045
_cell_formula_units_Z   4
loop_
 _symmetry_equiv_pos_site_id
 _symmetry_equiv_pos_as_xyz
  1  'x, y, z'
loop_
 _atom_site_type_symbol
 _atom_site_label
 _atom_site_symmetry_multiplicity
 _atom_site_fract_x
 _atom_site_fract_y
 _atom_site_fract_z
 _atom_site_occupancy
  Y  Y0  1  0.50000000  0.00000000  0.75000000  1
  Y  Y1  1  0.00000000  0.00000000  0.50000000  1
  Y  Y2  1  0.00000000  0.50000000  0.25000000  1
  Y  Y3  1  0.50000000  0.50000000  0.00000000  1
  P  P4  1  0.50000000  0.50000000  0.50000000  1
  P  P5  1  0.50000000  0.00000000  0.25000000  1
  P  P6  1  0.00000000  0.00000000  0.00000000  1
  P  P7  1  0.00000000  0.50000000  0.75000000  1
  O  O8  1  0.00000000  0.32605200  0.59011600  1
  O  O9  1  0.67394800  0.50000000  0.34011600  1
  O  O10  1  0.82605200  0.00000000  0.84011600  1
  O  O11  1  0.00000000  0.67394800  0.59011600  1
  O  O12  1  0.32605200  0.00000000  0.40988400  1
  O  O13  1  0.00000000  0.17394800  0.15988400  1
  O  O14  1  0.50000000  0.32605200  0.65988400  1
  O  O15  1  0.67394800  0.00000000  0.40988400  1
  O  O16  1  0.50000000  0.82605200  0.09011600  1
  O  O17  1  0.17394800  0.00000000  0.84011600  1
  O  O18  1  0.32605200  0.50000000  0.34011600  1
  O  O19  1  0.50000000  0.17394800  0.09011600  1
  O  O20  1  0.82605200  0.50000000  0.90988400  1
  O  O21  1  0.50000000  0.67394800  0.65988400  1
  O  O22  1  0.00000000  0.82605200  0.15988400  1
  O  O23  1  0.17394800  0.50000000  0.90988400  1
