# generated using pymatgen
data_Ba2CaMgAl2F14
_symmetry_space_group_name_H-M   'P 1'
_cell_length_a   13.79811600
_cell_length_b   5.28404600
_cell_length_c   14.81682458
_cell_angle_alpha   90.00000000
_cell_angle_beta   91.92669886
_cell_angle_gamma   90.00000000
_symmetry_Int_Tables_number   1
_chemical_formula_structural   Ba2CaMgAl2F14
_chemical_formula_sum   'Ba8 Ca4 Mg4 Al8 F56'
_cell_volume   1079.68216159
_cell_formula_units_Z   4
loop_
 _symmetry_equiv_pos_site_id
 _symmetry_equiv_pos_as_xyz
  1  'x, y, z'
loop_
 _atom_site_type_symbol
 _atom_site_label
 _atom_site_symmetry_multiplicity
 _atom_site_fract_x
 _atom_site_fract_y
 _atom_site_fract_z
 _atom_site_occupancy
  Ba  Ba0  1  0.69129100  0.45953700  0.61803200  1
  Ba  Ba1  1  0.80870900  0.95953700  0.88196800  1
  Ba  Ba2  1  0.80870900  0.04046300  0.38196800  1
  Ba  Ba3  1  0.69129100  0.54046300  0.11803200  1
  Ba  Ba4  1  0.19129100  0.95953700  0.61803200  1
  Ba  Ba5  1  0.30870900  0.45953700  0.88196800  1
  Ba  Ba6  1  0.30870900  0.54046300  0.38196800  1
  Ba  Ba7  1  0.19129100  0.04046300  0.11803200  1
  Ca  Ca8  1  0.00000000  0.43940300  0.75000000  1
  Ca  Ca9  1  0.00000000  0.56059700  0.25000000  1
  Ca  Ca10  1  0.50000000  0.93940300  0.75000000  1
  Ca  Ca11  1  0.50000000  0.06059700  0.25000000  1
  Mg  Mg12  1  0.00000000  0.50000000  0.00000000  1
  Mg  Mg13  1  0.00000000  0.50000000  0.50000000  1
  Mg  Mg14  1  0.50000000  0.00000000  0.00000000  1
  Mg  Mg15  1  0.50000000  0.00000000  0.50000000  1
  Al  Al16  1  0.61610950  0.49483950  0.87825600  1
  Al  Al17  1  0.88389050  0.99483950  0.62174400  1
  Al  Al18  1  0.88389050  0.00516050  0.12174400  1
  Al  Al19  1  0.61610950  0.50516050  0.37825600  1
  Al  Al20  1  0.11610950  0.99483950  0.87825600  1
  Al  Al21  1  0.38389050  0.49483950  0.62174400  1
  Al  Al22  1  0.38389050  0.50516050  0.12174400  1
  Al  Al23  1  0.11610950  0.00516050  0.37825600  1
  F  F24  1  0.74006600  0.45712600  0.92109700  1
  F  F25  1  0.75993400  0.95712600  0.57890300  1
  F  F26  1  0.75993400  0.04287400  0.07890300  1
  F  F27  1  0.74006600  0.54287400  0.42109700  1
  F  F28  1  0.92152050  0.18834350  0.02427400  1
  F  F29  1  0.57847950  0.68834350  0.47572600  1
  F  F30  1  0.57847950  0.31165650  0.97572600  1
  F  F31  1  0.92152050  0.81165650  0.52427400  1
  F  F32  1  0.61293050  0.21299450  0.44945000  1
  F  F33  1  0.88706950  0.71299450  0.05055000  1
  F  F34  1  0.88706950  0.28700550  0.55055000  1
  F  F35  1  0.61293050  0.78700550  0.94945000  1
  F  F36  1  0.99350900  0.06273200  0.84116600  1
  F  F37  1  0.50649100  0.56273200  0.65883400  1
  F  F38  1  0.50649100  0.43726800  0.15883400  1
  F  F39  1  0.99350900  0.93726800  0.34116600  1
  F  F40  1  0.65945800  0.30173800  0.28499100  1
  F  F41  1  0.84054200  0.80173800  0.21500900  1
  F  F42  1  0.84054200  0.19826200  0.71500900  1
  F  F43  1  0.65945800  0.69826200  0.78499100  1
  F  F44  1  0.87373200  0.27972000  0.19449600  1
  F  F45  1  0.62626800  0.77972000  0.30550400  1
  F  F46  1  0.62626800  0.22028000  0.80550400  1
  F  F47  1  0.87373200  0.72028000  0.69449600  1
  F  F48  1  0.56555950  0.05344550  0.61926100  1
  F  F49  1  0.93444050  0.55344550  0.88073900  1
  F  F50  1  0.93444050  0.44655450  0.38073900  1
  F  F51  1  0.56555950  0.94655450  0.11926100  1
  F  F52  1  0.24006600  0.95712600  0.92109700  1
  F  F53  1  0.25993400  0.45712600  0.57890300  1
  F  F54  1  0.25993400  0.54287400  0.07890300  1
  F  F55  1  0.24006600  0.04287400  0.42109700  1
  F  F56  1  0.42152050  0.68834350  0.02427400  1
  F  F57  1  0.07847950  0.18834350  0.47572600  1
  F  F58  1  0.07847950  0.81165650  0.97572600  1
  F  F59  1  0.42152050  0.31165650  0.52427400  1
  F  F60  1  0.11293050  0.71299450  0.44945000  1
  F  F61  1  0.38706950  0.21299450  0.05055000  1
  F  F62  1  0.38706950  0.78700550  0.55055000  1
  F  F63  1  0.11293050  0.28700550  0.94945000  1
  F  F64  1  0.49350900  0.56273200  0.84116600  1
  F  F65  1  0.00649100  0.06273200  0.65883400  1
  F  F66  1  0.00649100  0.93726800  0.15883400  1
  F  F67  1  0.49350900  0.43726800  0.34116600  1
  F  F68  1  0.15945800  0.80173800  0.28499100  1
  F  F69  1  0.34054200  0.30173800  0.21500900  1
  F  F70  1  0.34054200  0.69826200  0.71500900  1
  F  F71  1  0.15945800  0.19826200  0.78499100  1
  F  F72  1  0.37373200  0.77972000  0.19449600  1
  F  F73  1  0.12626800  0.27972000  0.30550400  1
  F  F74  1  0.12626800  0.72028000  0.80550400  1
  F  F75  1  0.37373200  0.22028000  0.69449600  1
  F  F76  1  0.06555950  0.55344550  0.61926100  1
  F  F77  1  0.43444050  0.05344550  0.88073900  1
  F  F78  1  0.43444050  0.94655450  0.38073900  1
  F  F79  1  0.06555950  0.44655450  0.11926100  1
