# generated using pymatgen
data_Na3Dy(Si2O5)3
_symmetry_space_group_name_H-M   'P 1'
_cell_length_a   14.80025400
_cell_length_b   18.00021000
_cell_length_c   10.63756700
_cell_angle_alpha   90.00000000
_cell_angle_beta   90.00000000
_cell_angle_gamma   90.00000000
_symmetry_Int_Tables_number   1
_chemical_formula_structural   Na3Dy(Si2O5)3
_chemical_formula_sum   'Na24 Dy8 Si48 O120'
_cell_volume   2833.92954588
_cell_formula_units_Z   8
loop_
 _symmetry_equiv_pos_site_id
 _symmetry_equiv_pos_as_xyz
  1  'x, y, z'
loop_
 _atom_site_type_symbol
 _atom_site_label
 _atom_site_symmetry_multiplicity
 _atom_site_fract_x
 _atom_site_fract_y
 _atom_site_fract_z
 _atom_site_occupancy
  Na  Na0  1  0.50000000  0.57219500  0.75047700  1
  Na  Na1  1  0.76182200  0.00000000  0.00000000  1
  Na  Na2  1  0.25000000  0.77703400  0.75000000  1
  Na  Na3  1  0.75000000  0.22296600  0.25000000  1
  Na  Na4  1  0.50000000  0.07219500  0.74952300  1
  Na  Na5  1  0.75000000  0.77703400  0.75000000  1
  Na  Na6  1  0.26182200  0.00000000  0.50000000  1
  Na  Na7  1  0.25000000  0.22296600  0.25000000  1
  Na  Na8  1  0.23817800  0.00000000  0.00000000  1
  Na  Na9  1  0.50000000  0.92780500  0.25047700  1
  Na  Na10  1  0.50000000  0.42780500  0.24952300  1
  Na  Na11  1  0.73817800  0.00000000  0.50000000  1
  Na  Na12  1  0.00000000  0.07219500  0.75047700  1
  Na  Na13  1  0.26182200  0.50000000  0.00000000  1
  Na  Na14  1  0.75000000  0.27703400  0.75000000  1
  Na  Na15  1  0.25000000  0.72296600  0.25000000  1
  Na  Na16  1  0.00000000  0.57219500  0.74952300  1
  Na  Na17  1  0.25000000  0.27703400  0.75000000  1
  Na  Na18  1  0.76182200  0.50000000  0.50000000  1
  Na  Na19  1  0.75000000  0.72296600  0.25000000  1
  Na  Na20  1  0.73817800  0.50000000  0.00000000  1
  Na  Na21  1  0.00000000  0.42780500  0.25047700  1
  Na  Na22  1  0.00000000  0.92780500  0.24952300  1
  Na  Na23  1  0.23817800  0.50000000  0.50000000  1
  Dy  Dy24  1  0.25000000  0.91006200  0.25000000  1
  Dy  Dy25  1  0.25000000  0.08993800  0.75000000  1
  Dy  Dy26  1  0.75000000  0.91006200  0.25000000  1
  Dy  Dy27  1  0.75000000  0.08993800  0.75000000  1
  Dy  Dy28  1  0.75000000  0.41006200  0.25000000  1
  Dy  Dy29  1  0.75000000  0.58993800  0.75000000  1
  Dy  Dy30  1  0.25000000  0.41006200  0.25000000  1
  Dy  Dy31  1  0.25000000  0.58993800  0.75000000  1
  Si  Si32  1  0.60977000  0.91797600  0.70031300  1
  Si  Si33  1  0.89023000  0.91797600  0.79968700  1
  Si  Si34  1  0.60673200  0.13504200  0.02011200  1
  Si  Si35  1  0.39326800  0.13504200  0.02011200  1
  Si  Si36  1  0.60977000  0.08202400  0.29968700  1
  Si  Si37  1  0.60647600  0.19004000  0.53401200  1
  Si  Si38  1  0.60673200  0.63504200  0.47988800  1
  Si  Si39  1  0.39023000  0.08202400  0.29968700  1
  Si  Si40  1  0.39352400  0.19004000  0.53401200  1
  Si  Si41  1  0.60673200  0.86495800  0.97988800  1
  Si  Si42  1  0.60647600  0.80996000  0.46598800  1
  Si  Si43  1  0.39326800  0.86495800  0.97988800  1
  Si  Si44  1  0.60673200  0.36495800  0.52011200  1
  Si  Si45  1  0.10977000  0.91797600  0.79968700  1
  Si  Si46  1  0.39352400  0.69004000  0.96598800  1
  Si  Si47  1  0.39023000  0.91797600  0.70031300  1
  Si  Si48  1  0.39352400  0.80996000  0.46598800  1
  Si  Si49  1  0.39352400  0.30996000  0.03401200  1
  Si  Si50  1  0.60647600  0.30996000  0.03401200  1
  Si  Si51  1  0.60647600  0.69004000  0.96598800  1
  Si  Si52  1  0.89023000  0.08202400  0.20031300  1
  Si  Si53  1  0.10977000  0.08202400  0.20031300  1
  Si  Si54  1  0.39326800  0.63504200  0.47988800  1
  Si  Si55  1  0.39326800  0.36495800  0.52011200  1
  Si  Si56  1  0.10977000  0.41797600  0.70031300  1
  Si  Si57  1  0.39023000  0.41797600  0.79968700  1
  Si  Si58  1  0.10673200  0.63504200  0.02011200  1
  Si  Si59  1  0.89326800  0.63504200  0.02011200  1
  Si  Si60  1  0.10977000  0.58202400  0.29968700  1
  Si  Si61  1  0.10647600  0.69004000  0.53401200  1
  Si  Si62  1  0.10673200  0.13504200  0.47988800  1
  Si  Si63  1  0.89023000  0.58202400  0.29968700  1
  Si  Si64  1  0.89352400  0.69004000  0.53401200  1
  Si  Si65  1  0.10673200  0.36495800  0.97988800  1
  Si  Si66  1  0.10647600  0.30996000  0.46598800  1
  Si  Si67  1  0.89326800  0.36495800  0.97988800  1
  Si  Si68  1  0.10673200  0.86495800  0.52011200  1
  Si  Si69  1  0.60977000  0.41797600  0.79968700  1
  Si  Si70  1  0.89352400  0.19004000  0.96598800  1
  Si  Si71  1  0.89023000  0.41797600  0.70031300  1
  Si  Si72  1  0.89352400  0.30996000  0.46598800  1
  Si  Si73  1  0.89352400  0.80996000  0.03401200  1
  Si  Si74  1  0.10647600  0.80996000  0.03401200  1
  Si  Si75  1  0.10647600  0.19004000  0.96598800  1
  Si  Si76  1  0.39023000  0.58202400  0.20031300  1
  Si  Si77  1  0.60977000  0.58202400  0.20031300  1
  Si  Si78  1  0.89326800  0.13504200  0.47988800  1
  Si  Si79  1  0.89326800  0.86495800  0.52011200  1
  O  O80  1  0.16448550  0.08641650  0.57580800  1
  O  O81  1  0.50000000  0.11047300  0.00818000  1
  O  O82  1  0.61438600  0.22377800  0.98638800  1
  O  O83  1  0.65432400  0.99828200  0.68153000  1
  O  O84  1  0.65432400  0.00171800  0.31847000  1
  O  O85  1  0.64027600  0.87501100  0.83147400  1
  O  O86  1  0.66522950  0.82414150  0.34228200  1
  O  O87  1  0.66448550  0.91358350  0.07580800  1
  O  O88  1  0.33551450  0.91358350  0.07580800  1
  O  O89  1  0.15432400  0.00171800  0.18153000  1
  O  O90  1  0.64038000  0.85990900  0.58810100  1
  O  O91  1  0.50000000  0.42840600  0.79764000  1
  O  O92  1  0.16448550  0.91358350  0.42419200  1
  O  O93  1  0.38561400  0.27622200  0.48638800  1
  O  O94  1  0.38561400  0.77622200  0.01361200  1
  O  O95  1  0.61438600  0.72377800  0.51361200  1
  O  O96  1  0.50000000  0.38952700  0.50818000  1
  O  O97  1  0.50000000  0.16748100  0.56332900  1
  O  O98  1  0.66522950  0.67585850  0.84228200  1
  O  O99  1  0.85972400  0.87501100  0.66852600  1
  O  O100  1  0.35962000  0.14009100  0.41189900  1
  O  O101  1  0.64038000  0.14009100  0.41189900  1
  O  O102  1  0.35972400  0.87501100  0.83147400  1
  O  O103  1  0.83551450  0.08641650  0.57580800  1
  O  O104  1  0.33477050  0.67585850  0.84228200  1
  O  O105  1  0.34567600  0.99828200  0.68153000  1
  O  O106  1  0.14027600  0.87501100  0.66852600  1
  O  O107  1  0.84567600  0.99828200  0.81847000  1
  O  O108  1  0.64027600  0.12498900  0.16852600  1
  O  O109  1  0.85972400  0.12498900  0.33147400  1
  O  O110  1  0.50000000  0.61047300  0.49182000  1
  O  O111  1  0.83551450  0.91358350  0.42419200  1
  O  O112  1  0.14027600  0.12498900  0.33147400  1
  O  O113  1  0.14038000  0.85990900  0.91189900  1
  O  O114  1  0.50000000  0.57159400  0.20236000  1
  O  O115  1  0.84567600  0.00171800  0.18153000  1
  O  O116  1  0.38561400  0.72377800  0.51361200  1
  O  O117  1  0.61438600  0.27622200  0.48638800  1
  O  O118  1  0.33477050  0.82414150  0.34228200  1
  O  O119  1  0.50000000  0.33251900  0.06332900  1
  O  O120  1  0.66448550  0.08641650  0.92419200  1
  O  O121  1  0.33477050  0.17585850  0.65771800  1
  O  O122  1  0.85962000  0.85990900  0.91189900  1
  O  O123  1  0.50000000  0.83251900  0.43667100  1
  O  O124  1  0.66522950  0.17585850  0.65771800  1
  O  O125  1  0.61438600  0.77622200  0.01361200  1
  O  O126  1  0.38561400  0.22377800  0.98638800  1
  O  O127  1  0.50000000  0.92840600  0.70236000  1
  O  O128  1  0.50000000  0.66748100  0.93667100  1
  O  O129  1  0.85962000  0.14009100  0.08810100  1
  O  O130  1  0.50000000  0.88952700  0.99182000  1
  O  O131  1  0.35962000  0.85990900  0.58810100  1
  O  O132  1  0.33477050  0.32414150  0.15771800  1
  O  O133  1  0.33551450  0.08641650  0.92419200  1
  O  O134  1  0.35972400  0.12498900  0.16852600  1
  O  O135  1  0.66522950  0.32414150  0.15771800  1
  O  O136  1  0.14038000  0.14009100  0.08810100  1
  O  O137  1  0.34567600  0.00171800  0.31847000  1
  O  O138  1  0.15432400  0.99828200  0.81847000  1
  O  O139  1  0.50000000  0.07159400  0.29764000  1
  O  O140  1  0.66448550  0.58641650  0.57580800  1
  O  O141  1  0.00000000  0.61047300  0.00818000  1
  O  O142  1  0.11438600  0.72377800  0.98638800  1
  O  O143  1  0.15432400  0.49828200  0.68153000  1
  O  O144  1  0.15432400  0.50171800  0.31847000  1
  O  O145  1  0.14027600  0.37501100  0.83147400  1
  O  O146  1  0.16522950  0.32414150  0.34228200  1
  O  O147  1  0.16448550  0.41358350  0.07580800  1
  O  O148  1  0.83551450  0.41358350  0.07580800  1
  O  O149  1  0.65432400  0.50171800  0.18153000  1
  O  O150  1  0.14038000  0.35990900  0.58810100  1
  O  O151  1  0.00000000  0.92840600  0.79764000  1
  O  O152  1  0.66448550  0.41358350  0.42419200  1
  O  O153  1  0.88561400  0.77622200  0.48638800  1
  O  O154  1  0.88561400  0.27622200  0.01361200  1
  O  O155  1  0.11438600  0.22377800  0.51361200  1
  O  O156  1  0.00000000  0.88952700  0.50818000  1
  O  O157  1  0.00000000  0.66748100  0.56332900  1
  O  O158  1  0.16522950  0.17585850  0.84228200  1
  O  O159  1  0.35972400  0.37501100  0.66852600  1
  O  O160  1  0.85962000  0.64009100  0.41189900  1
  O  O161  1  0.14038000  0.64009100  0.41189900  1
  O  O162  1  0.85972400  0.37501100  0.83147400  1
  O  O163  1  0.33551450  0.58641650  0.57580800  1
  O  O164  1  0.83477050  0.17585850  0.84228200  1
  O  O165  1  0.84567600  0.49828200  0.68153000  1
  O  O166  1  0.64027600  0.37501100  0.66852600  1
  O  O167  1  0.34567600  0.49828200  0.81847000  1
  O  O168  1  0.14027600  0.62498900  0.16852600  1
  O  O169  1  0.35972400  0.62498900  0.33147400  1
  O  O170  1  0.00000000  0.11047300  0.49182000  1
  O  O171  1  0.33551450  0.41358350  0.42419200  1
  O  O172  1  0.64027600  0.62498900  0.33147400  1
  O  O173  1  0.64038000  0.35990900  0.91189900  1
  O  O174  1  0.00000000  0.07159400  0.20236000  1
  O  O175  1  0.34567600  0.50171800  0.18153000  1
  O  O176  1  0.88561400  0.22377800  0.51361200  1
  O  O177  1  0.11438600  0.77622200  0.48638800  1
  O  O178  1  0.83477050  0.32414150  0.34228200  1
  O  O179  1  0.00000000  0.83251900  0.06332900  1
  O  O180  1  0.16448550  0.58641650  0.92419200  1
  O  O181  1  0.83477050  0.67585850  0.65771800  1
  O  O182  1  0.35962000  0.35990900  0.91189900  1
  O  O183  1  0.00000000  0.33251900  0.43667100  1
  O  O184  1  0.16522950  0.67585850  0.65771800  1
  O  O185  1  0.11438600  0.27622200  0.01361200  1
  O  O186  1  0.88561400  0.72377800  0.98638800  1
  O  O187  1  0.00000000  0.42840600  0.70236000  1
  O  O188  1  0.00000000  0.16748100  0.93667100  1
  O  O189  1  0.35962000  0.64009100  0.08810100  1
  O  O190  1  0.00000000  0.38952700  0.99182000  1
  O  O191  1  0.85962000  0.35990900  0.58810100  1
  O  O192  1  0.83477050  0.82414150  0.15771800  1
  O  O193  1  0.83551450  0.58641650  0.92419200  1
  O  O194  1  0.85972400  0.62498900  0.16852600  1
  O  O195  1  0.16522950  0.82414150  0.15771800  1
  O  O196  1  0.64038000  0.64009100  0.08810100  1
  O  O197  1  0.84567600  0.50171800  0.31847000  1
  O  O198  1  0.65432400  0.49828200  0.81847000  1
  O  O199  1  0.00000000  0.57159400  0.29764000  1
