# generated using pymatgen
data_C3N4
_symmetry_space_group_name_H-M   'P 1'
_cell_length_a   4.78443383
_cell_length_b   4.78443383
_cell_length_c   10.70667964
_cell_angle_alpha   90.00000000
_cell_angle_beta   90.00000000
_cell_angle_gamma   120.00000000
_symmetry_Int_Tables_number   1
_chemical_formula_structural   C3N4
_chemical_formula_sum   'C9 N12'
_cell_volume   212.24943576
_cell_formula_units_Z   3
loop_
 _symmetry_equiv_pos_site_id
 _symmetry_equiv_pos_as_xyz
  1  'x, y, z'
loop_
 _atom_site_type_symbol
 _atom_site_label
 _atom_site_symmetry_multiplicity
 _atom_site_fract_x
 _atom_site_fract_y
 _atom_site_fract_z
 _atom_site_occupancy
  C  C0  1  0.49024633  0.98049267  0.99982067  1
  C  C1  1  0.49024633  0.50975367  0.99982067  1
  C  C2  1  0.01950733  0.50975367  0.99982067  1
  C  C3  1  0.15691300  0.31382600  0.33315400  1
  C  C4  1  0.15691300  0.84308700  0.33315400  1
  C  C5  1  0.68617400  0.84308700  0.33315400  1
  C  C6  1  0.82357967  0.64715933  0.66648733  1
  C  C7  1  0.82357967  0.17642033  0.66648733  1
  C  C8  1  0.35284067  0.17642033  0.66648733  1
  N  N9  1  0.65972467  0.82986233  0.99997733  1
  N  N10  1  0.17013767  0.34027533  0.99997733  1
  N  N11  1  0.33333333  0.66666667  0.33227167  1
  N  N12  1  0.17013767  0.82986233  0.99997733  1
  N  N13  1  0.32639133  0.16319567  0.33331067  1
  N  N14  1  0.83680433  0.67360867  0.33331067  1
  N  N15  1  0.00000000  0.00000000  0.66560500  1
  N  N16  1  0.83680433  0.16319567  0.33331067  1
  N  N17  1  0.99305800  0.49652900  0.66664400  1
  N  N18  1  0.50347100  0.00694200  0.66664400  1
  N  N19  1  0.66666667  0.33333333  0.99893833  1
  N  N20  1  0.50347100  0.49652900  0.66664400  1
