# generated using pymatgen
data_Al(HO)3
_symmetry_space_group_name_H-M   'P 1'
_cell_length_a   5.05972100
_cell_length_b   6.28532992
_cell_length_c   7.03810342
_cell_angle_alpha   83.38455526
_cell_angle_beta   80.88951139
_cell_angle_gamma   81.40865668
_symmetry_Int_Tables_number   1
_chemical_formula_structural   Al(HO)3
_chemical_formula_sum   'Al4 H12 O12'
_cell_volume   217.55950026
_cell_formula_units_Z   4
loop_
 _symmetry_equiv_pos_site_id
 _symmetry_equiv_pos_as_xyz
  1  'x, y, z'
loop_
 _atom_site_type_symbol
 _atom_site_label
 _atom_site_symmetry_multiplicity
 _atom_site_fract_x
 _atom_site_fract_y
 _atom_site_fract_z
 _atom_site_occupancy
  Al  Al0  1  0.01924300  0.66507700  0.33626000  1
  Al  Al1  1  0.53026100  0.83524600  0.16580300  1
  Al  Al2  1  0.98075700  0.33492300  0.66374000  1
  Al  Al3  1  0.46973900  0.16475400  0.83419700  1
  H  H4  1  0.88034700  0.92106200  0.87871400  1
  H  H5  1  0.36002600  0.52002300  0.11326100  1
  H  H6  1  0.11965300  0.07893800  0.12128600  1
  H  H7  1  0.21915800  0.26746500  0.32193300  1
  H  H8  1  0.23497700  0.97168700  0.62192100  1
  H  H9  1  0.63997400  0.47997700  0.88673900  1
  H  H10  1  0.40437800  0.69408500  0.49896300  1
  H  H11  1  0.78084200  0.73253500  0.67806700  1
  H  H12  1  0.76502300  0.02831300  0.37807900  1
  H  H13  1  0.20622000  0.54074400  0.87333400  1
  H  H14  1  0.59562200  0.30591500  0.50103700  1
  H  H15  1  0.79378000  0.45925600  0.12666600  1
  O  O16  1  0.69939100  0.19912700  0.58335500  1
  O  O17  1  0.17816100  0.37834800  0.41397500  1
  O  O18  1  0.75414800  0.57117300  0.21711500  1
  O  O19  1  0.82183900  0.62165200  0.58602500  1
  O  O20  1  0.27099700  0.66839200  0.09453300  1
  O  O21  1  0.30060900  0.80087300  0.41664500  1
  O  O22  1  0.72900300  0.33160800  0.90546700  1
  O  O23  1  0.81250900  0.93724100  0.26857600  1
  O  O24  1  0.18749100  0.06275900  0.73142400  1
  O  O25  1  0.31082000  0.10279000  0.10139500  1
  O  O26  1  0.68918000  0.89721000  0.89860500  1
  O  O27  1  0.24585200  0.42882700  0.78288500  1
