# generated using pymatgen
data_Ca11Si4SO18
_symmetry_space_group_name_H-M   'P 1'
_cell_length_a   10.54048000
_cell_length_b   10.54048000
_cell_length_c   8.90769000
_cell_angle_alpha   90.00000000
_cell_angle_beta   90.00000000
_cell_angle_gamma   90.00000000
_symmetry_Int_Tables_number   1
_chemical_formula_structural   Ca11Si4SO18
_chemical_formula_sum   'Ca22 Si8 S2 O36'
_cell_volume   989.65966803
_cell_formula_units_Z   2
loop_
 _symmetry_equiv_pos_site_id
 _symmetry_equiv_pos_as_xyz
  1  'x, y, z'
loop_
 _atom_site_type_symbol
 _atom_site_label
 _atom_site_symmetry_multiplicity
 _atom_site_fract_x
 _atom_site_fract_y
 _atom_site_fract_z
 _atom_site_occupancy
  Ca  Ca0  1  0.50000000  0.00000000  0.49646500  1
  Ca  Ca1  1  0.24549350  0.50000000  0.29440850  1
  Ca  Ca2  1  0.24231400  0.00000000  0.19201200  1
  Ca  Ca3  1  0.50000000  0.25768600  0.30798800  1
  Ca  Ca4  1  0.00000000  0.00000000  0.50000000  1
  Ca  Ca5  1  0.50000000  0.00000000  0.00353500  1
  Ca  Ca6  1  0.75450650  0.50000000  0.29440850  1
  Ca  Ca7  1  0.00000000  0.74549350  0.20559150  1
  Ca  Ca8  1  0.75768600  0.00000000  0.19201200  1
  Ca  Ca9  1  0.50000000  0.74231400  0.30798800  1
  Ca  Ca10  1  0.00000000  0.25450650  0.20559150  1
  Ca  Ca11  1  0.00000000  0.50000000  0.99646500  1
  Ca  Ca12  1  0.74549350  0.00000000  0.79440850  1
  Ca  Ca13  1  0.74231400  0.50000000  0.69201200  1
  Ca  Ca14  1  0.00000000  0.75768600  0.80798800  1
  Ca  Ca15  1  0.50000000  0.50000000  0.00000000  1
  Ca  Ca16  1  0.00000000  0.50000000  0.50353500  1
  Ca  Ca17  1  0.25450650  0.00000000  0.79440850  1
  Ca  Ca18  1  0.50000000  0.24549350  0.70559150  1
  Ca  Ca19  1  0.25768600  0.50000000  0.69201200  1
  Ca  Ca20  1  0.00000000  0.24231400  0.80798800  1
  Ca  Ca21  1  0.50000000  0.75450650  0.70559150  1
  Si  Si22  1  0.78909200  0.21090800  0.50000000  1
  Si  Si23  1  0.28909200  0.28909200  0.00000000  1
  Si  Si24  1  0.21090800  0.21090800  0.50000000  1
  Si  Si25  1  0.21090800  0.78909200  0.50000000  1
  Si  Si26  1  0.28909200  0.71090800  0.00000000  1
  Si  Si27  1  0.78909200  0.78909200  0.50000000  1
  Si  Si28  1  0.71090800  0.71090800  0.00000000  1
  Si  Si29  1  0.71090800  0.28909200  0.00000000  1
  S  S30  1  0.00000000  0.00000000  0.00000000  1
  S  S31  1  0.50000000  0.50000000  0.50000000  1
  O  O32  1  0.85602250  0.14541450  0.64928150  1
  O  O33  1  0.35602250  0.35458550  0.14928150  1
  O  O34  1  0.35458550  0.35602250  0.85071850  1
  O  O35  1  0.68168550  0.13555750  0.99581050  1
  O  O36  1  0.35458550  0.64397750  0.85071850  1
  O  O37  1  0.18168550  0.36444250  0.49581050  1
  O  O38  1  0.14541450  0.85602250  0.35071850  1
  O  O39  1  0.31831450  0.13555750  0.99581050  1
  O  O40  1  0.13555750  0.68168550  0.00418950  1
  O  O41  1  0.50000000  0.00000000  0.25000000  1
  O  O42  1  0.81831450  0.36444250  0.49581050  1
  O  O43  1  0.14397750  0.14541450  0.64928150  1
  O  O44  1  0.36444250  0.18168550  0.50418950  1
  O  O45  1  0.36444250  0.81831450  0.50418950  1
  O  O46  1  0.64397750  0.35458550  0.14928150  1
  O  O47  1  0.13555750  0.31831450  0.00418950  1
  O  O48  1  0.14541450  0.14397750  0.35071850  1
  O  O49  1  0.00000000  0.50000000  0.25000000  1
  O  O50  1  0.35602250  0.64541450  0.14928150  1
  O  O51  1  0.85602250  0.85458550  0.64928150  1
  O  O52  1  0.85458550  0.85602250  0.35071850  1
  O  O53  1  0.18168550  0.63555750  0.49581050  1
  O  O54  1  0.85458550  0.14397750  0.35071850  1
  O  O55  1  0.68168550  0.86444250  0.99581050  1
  O  O56  1  0.64541450  0.35602250  0.85071850  1
  O  O57  1  0.81831450  0.63555750  0.49581050  1
  O  O58  1  0.63555750  0.18168550  0.50418950  1
  O  O59  1  0.00000000  0.50000000  0.75000000  1
  O  O60  1  0.31831450  0.86444250  0.99581050  1
  O  O61  1  0.64397750  0.64541450  0.14928150  1
  O  O62  1  0.86444250  0.68168550  0.00418950  1
  O  O63  1  0.86444250  0.31831450  0.00418950  1
  O  O64  1  0.14397750  0.85458550  0.64928150  1
  O  O65  1  0.63555750  0.81831450  0.50418950  1
  O  O66  1  0.64541450  0.64397750  0.85071850  1
  O  O67  1  0.50000000  0.00000000  0.75000000  1
