# generated using pymatgen
data_Na4Sr(SiO3)3
_symmetry_space_group_name_H-M   'P 1'
_cell_length_a   10.95034117
_cell_length_b   10.95034117
_cell_length_c   6.68464732
_cell_angle_alpha   90.00000000
_cell_angle_beta   90.00000000
_cell_angle_gamma   120.00000000
_symmetry_Int_Tables_number   1
_chemical_formula_structural   Na4Sr(SiO3)3
_chemical_formula_sum   'Na12 Sr3 Si9 O27'
_cell_volume   694.16774690
_cell_formula_units_Z   3
loop_
 _symmetry_equiv_pos_site_id
 _symmetry_equiv_pos_as_xyz
  1  'x, y, z'
loop_
 _atom_site_type_symbol
 _atom_site_label
 _atom_site_symmetry_multiplicity
 _atom_site_fract_x
 _atom_site_fract_y
 _atom_site_fract_z
 _atom_site_occupancy
  Na  Na0  1  0.33333333  0.66666667  0.16666667  1
  Na  Na1  1  0.80520633  0.66666667  0.66666667  1
  Na  Na2  1  0.66666667  0.80520633  0.33333333  1
  Na  Na3  1  0.52812700  0.52812700  0.00000000  1
  Na  Na4  1  0.00000000  0.00000000  0.50000000  1
  Na  Na5  1  0.47187300  0.00000000  0.00000000  1
  Na  Na6  1  0.33333333  0.13853967  0.66666667  1
  Na  Na7  1  0.19479367  0.86146033  0.33333333  1
  Na  Na8  1  0.66666667  0.33333333  0.83333333  1
  Na  Na9  1  0.13853967  0.33333333  0.33333333  1
  Na  Na10  1  0.00000000  0.47187300  0.00000000  1
  Na  Na11  1  0.86146033  0.19479367  0.66666667  1
  Sr  Sr12  1  0.33333333  0.66666667  0.66666667  1
  Sr  Sr13  1  0.00000000  0.00000000  0.00000000  1
  Sr  Sr14  1  0.66666667  0.33333333  0.33333333  1
  Si  Si15  1  0.13003217  0.79669883  0.83333333  1
  Si  Si16  1  0.86996783  0.66666667  0.16666667  1
  Si  Si17  1  1.00000000  0.53663450  0.50000000  1
  Si  Si18  1  0.79669883  0.13003217  0.16666667  1
  Si  Si19  1  0.53663450  0.00000000  0.50000000  1
  Si  Si20  1  0.66666667  0.86996783  0.83333333  1
  Si  Si21  1  0.46336550  0.46336550  0.50000000  1
  Si  Si22  1  0.20330117  0.33333333  0.83333333  1
  Si  Si23  1  0.33333333  0.20330117  0.16666667  1
  O  O24  1  0.92565217  0.59231883  0.33333333  1
  O  O25  1  0.13122400  0.53086800  0.40875000  1
  O  O26  1  0.53544267  0.73297733  0.92458333  1
  O  O27  1  0.26702267  0.80246533  0.92458333  1
  O  O28  1  0.46913200  0.60035600  0.40875000  1
  O  O29  1  0.19478433  0.46311467  0.93955367  1
  O  O30  1  0.00000000  0.74101450  0.00000000  1
  O  O31  1  0.07434783  0.66666667  0.66666667  1
  O  O32  1  0.39964400  0.86877600  0.40875000  1
  O  O33  1  0.59231883  0.92565217  0.66666667  1
  O  O34  1  0.79789067  0.86420133  0.74208333  1
  O  O35  1  0.20210933  0.06631067  0.25791667  1
  O  O36  1  0.93368933  0.13579867  0.25791667  1
  O  O37  1  0.13579867  0.93368933  0.74208333  1
  O  O38  1  0.86145100  0.79644800  0.27288700  1
  O  O39  1  0.66666667  0.07434783  0.33333333  1
  O  O40  1  0.74101450  0.00000000  0.00000000  1
  O  O41  1  0.06631067  0.20210933  0.74208333  1
  O  O42  1  0.25898550  0.25898550  0.00000000  1
  O  O43  1  0.46455733  0.19753467  0.07541667  1
  O  O44  1  0.86877600  0.39964400  0.59125000  1
  O  O45  1  0.60035600  0.46913200  0.59125000  1
  O  O46  1  0.80246533  0.26702267  0.07541667  1
  O  O47  1  0.52811767  0.12978133  0.60622033  1
  O  O48  1  0.33333333  0.40768117  0.66666667  1
  O  O49  1  0.40768117  0.33333333  0.33333333  1
  O  O50  1  0.73297733  0.53544267  0.07541667  1
