# generated using pymatgen
data_BaCu2Te2(ClO3)2
_symmetry_space_group_name_H-M   'P 1'
_cell_length_a   7.52783800
_cell_length_b   7.57540800
_cell_length_c   8.37710851
_cell_angle_alpha   90.00000000
_cell_angle_beta   97.35979441
_cell_angle_gamma   90.00000000
_symmetry_Int_Tables_number   1
_chemical_formula_structural   BaCu2Te2(ClO3)2
_chemical_formula_sum   'Ba2 Cu4 Te4 Cl4 O12'
_cell_volume   473.78094491
_cell_formula_units_Z   2
loop_
 _symmetry_equiv_pos_site_id
 _symmetry_equiv_pos_as_xyz
  1  'x, y, z'
loop_
 _atom_site_type_symbol
 _atom_site_label
 _atom_site_symmetry_multiplicity
 _atom_site_fract_x
 _atom_site_fract_y
 _atom_site_fract_z
 _atom_site_occupancy
  Ba  Ba0  1  0.13615800  0.34118200  0.06748100  1
  Ba  Ba1  1  0.86384200  0.84118200  0.93251900  1
  Cu  Cu2  1  0.35950200  0.84332200  0.08511600  1
  Cu  Cu3  1  0.31091100  0.31444800  0.59664400  1
  Cu  Cu4  1  0.68908900  0.81444800  0.40335600  1
  Cu  Cu5  1  0.64049800  0.34332200  0.91488400  1
  Te  Te6  1  0.13133000  0.97117600  0.39263800  1
  Te  Te7  1  0.65791500  0.18962800  0.23393800  1
  Te  Te8  1  0.34208500  0.68962800  0.76606200  1
  Te  Te9  1  0.86867000  0.47117600  0.60736200  1
  Cl  Cl10  1  0.45360000  0.61424200  0.38328100  1
  Cl  Cl11  1  0.11456300  0.08054800  0.76263500  1
  Cl  Cl12  1  0.88543700  0.58054800  0.23736500  1
  Cl  Cl13  1  0.54640000  0.11424200  0.61671900  1
  O  O14  1  0.52217500  0.77603800  0.93238500  1
  O  O15  1  0.18604000  0.21619300  0.39701800  1
  O  O16  1  0.87494600  0.99825800  0.36772300  1
  O  O17  1  0.55085800  0.95483100  0.23313700  1
  O  O18  1  0.47782500  0.27603800  0.06761500  1
  O  O19  1  0.12505400  0.49825800  0.63227700  1
  O  O20  1  0.44914200  0.45483100  0.76686300  1
  O  O21  1  0.80057600  0.17811300  0.05772300  1
  O  O22  1  0.19942400  0.67811300  0.94227700  1
  O  O23  1  0.84604000  0.45322100  0.83191700  1
  O  O24  1  0.15396000  0.95322100  0.16808300  1
  O  O25  1  0.81396000  0.71619300  0.60298200  1
