# generated using pymatgen
data_TaF5
_symmetry_space_group_name_H-M   'P 1'
_cell_length_a   9.87231200
_cell_length_b   14.77359200
_cell_length_c   5.25134645
_cell_angle_alpha   90.00000000
_cell_angle_beta   96.02520953
_cell_angle_gamma   90.00000000
_symmetry_Int_Tables_number   1
_chemical_formula_structural   TaF5
_chemical_formula_sum   'Ta8 F40'
_cell_volume   761.67529034
_cell_formula_units_Z   8
loop_
 _symmetry_equiv_pos_site_id
 _symmetry_equiv_pos_as_xyz
  1  'x, y, z'
loop_
 _atom_site_type_symbol
 _atom_site_label
 _atom_site_symmetry_multiplicity
 _atom_site_fract_x
 _atom_site_fract_y
 _atom_site_fract_z
 _atom_site_occupancy
  Ta  Ta0  1  0.50000000  0.70025700  0.50000000  1
  Ta  Ta1  1  0.25589000  0.00000000  0.24852300  1
  Ta  Ta2  1  0.74411000  0.00000000  0.75147700  1
  Ta  Ta3  1  0.50000000  0.29974300  0.50000000  1
  Ta  Ta4  1  0.00000000  0.20025700  0.50000000  1
  Ta  Ta5  1  0.75589000  0.50000000  0.24852300  1
  Ta  Ta6  1  0.24411000  0.50000000  0.75147700  1
  Ta  Ta7  1  0.00000000  0.79974300  0.50000000  1
  F  F8  1  0.63679300  0.09425700  0.84966900  1
  F  F9  1  0.66716300  0.00000000  0.40582900  1
  F  F10  1  0.63679300  0.90574300  0.84966900  1
  F  F11  1  0.87999750  0.09464850  0.62057800  1
  F  F12  1  0.33283700  0.00000000  0.59417100  1
  F  F13  1  0.36320700  0.09425700  0.15033100  1
  F  F14  1  0.13217800  0.00000000  0.95092100  1
  F  F15  1  0.12000250  0.90535150  0.37942200  1
  F  F16  1  0.61707050  0.21617450  0.37521700  1
  F  F17  1  0.39428200  0.68302100  0.18308500  1
  F  F18  1  0.61707050  0.78382550  0.37521700  1
  F  F19  1  0.38292950  0.78382550  0.62478300  1
  F  F20  1  0.12000250  0.09464850  0.37942200  1
  F  F21  1  0.60571800  0.68302100  0.81691500  1
  F  F22  1  0.87999750  0.90535150  0.62057800  1
  F  F23  1  0.38292950  0.21617450  0.62478300  1
  F  F24  1  0.86782200  0.00000000  0.04907900  1
  F  F25  1  0.36320700  0.90574300  0.15033100  1
  F  F26  1  0.39428200  0.31697900  0.18308500  1
  F  F27  1  0.60571800  0.31697900  0.81691500  1
  F  F28  1  0.13679300  0.59425700  0.84966900  1
  F  F29  1  0.16716300  0.50000000  0.40582900  1
  F  F30  1  0.13679300  0.40574300  0.84966900  1
  F  F31  1  0.37999750  0.59464850  0.62057800  1
  F  F32  1  0.83283700  0.50000000  0.59417100  1
  F  F33  1  0.86320700  0.59425700  0.15033100  1
  F  F34  1  0.63217800  0.50000000  0.95092100  1
  F  F35  1  0.62000250  0.40535150  0.37942200  1
  F  F36  1  0.11707050  0.71617450  0.37521700  1
  F  F37  1  0.89428200  0.18302100  0.18308500  1
  F  F38  1  0.11707050  0.28382550  0.37521700  1
  F  F39  1  0.88292950  0.28382550  0.62478300  1
  F  F40  1  0.62000250  0.59464850  0.37942200  1
  F  F41  1  0.10571800  0.18302100  0.81691500  1
  F  F42  1  0.37999750  0.40535150  0.62057800  1
  F  F43  1  0.88292950  0.71617450  0.62478300  1
  F  F44  1  0.36782200  0.50000000  0.04907900  1
  F  F45  1  0.86320700  0.40574300  0.15033100  1
  F  F46  1  0.89428200  0.81697900  0.18308500  1
  F  F47  1  0.10571800  0.81697900  0.81691500  1
