# generated using pymatgen
data_Cs3CuTeS9
_symmetry_space_group_name_H-M   'P 1'
_cell_length_a   13.54461000
_cell_length_b   21.87846000
_cell_length_c   12.32958400
_cell_angle_alpha   90.00000000
_cell_angle_beta   90.00000000
_cell_angle_gamma   90.00000000
_symmetry_Int_Tables_number   1
_chemical_formula_structural   Cs3CuTeS9
_chemical_formula_sum   'Cs24 Cu8 Te8 S72'
_cell_volume   3653.68984043
_cell_formula_units_Z   8
loop_
 _symmetry_equiv_pos_site_id
 _symmetry_equiv_pos_as_xyz
  1  'x, y, z'
loop_
 _atom_site_type_symbol
 _atom_site_label
 _atom_site_symmetry_multiplicity
 _atom_site_fract_x
 _atom_site_fract_y
 _atom_site_fract_z
 _atom_site_occupancy
  Cs  Cs0  1  0.29620450  0.15033650  0.17622700  1
  Cs  Cs1  1  0.46375500  0.00000000  0.66595500  1
  Cs  Cs2  1  0.29620450  0.84966350  0.17622700  1
  Cs  Cs3  1  0.79620450  0.15033650  0.32377300  1
  Cs  Cs4  1  0.70379550  0.84966350  0.82377300  1
  Cs  Cs5  1  0.20379550  0.84966350  0.67622700  1
  Cs  Cs6  1  0.96375500  0.00000000  0.83404500  1
  Cs  Cs7  1  0.53624500  0.00000000  0.33404500  1
  Cs  Cs8  1  0.70379550  0.15033650  0.82377300  1
  Cs  Cs9  1  0.79620450  0.84966350  0.32377300  1
  Cs  Cs10  1  0.03624500  0.00000000  0.16595500  1
  Cs  Cs11  1  0.20379550  0.15033650  0.67622700  1
  Cs  Cs12  1  0.79620450  0.65033650  0.17622700  1
  Cs  Cs13  1  0.96375500  0.50000000  0.66595500  1
  Cs  Cs14  1  0.79620450  0.34966350  0.17622700  1
  Cs  Cs15  1  0.29620450  0.65033650  0.32377300  1
  Cs  Cs16  1  0.20379550  0.34966350  0.82377300  1
  Cs  Cs17  1  0.70379550  0.34966350  0.67622700  1
  Cs  Cs18  1  0.46375500  0.50000000  0.83404500  1
  Cs  Cs19  1  0.03624500  0.50000000  0.33404500  1
  Cs  Cs20  1  0.20379550  0.65033650  0.82377300  1
  Cs  Cs21  1  0.29620450  0.34966350  0.32377300  1
  Cs  Cs22  1  0.53624500  0.50000000  0.16595500  1
  Cs  Cs23  1  0.70379550  0.65033650  0.67622700  1
  Cu  Cu24  1  0.50000000  0.93182700  0.00000000  1
  Cu  Cu25  1  0.50000000  0.43182700  0.50000000  1
  Cu  Cu26  1  0.50000000  0.06817300  0.00000000  1
  Cu  Cu27  1  0.50000000  0.56817300  0.50000000  1
  Cu  Cu28  1  0.00000000  0.43182700  0.00000000  1
  Cu  Cu29  1  0.00000000  0.93182700  0.50000000  1
  Cu  Cu30  1  0.00000000  0.56817300  0.00000000  1
  Cu  Cu31  1  0.00000000  0.06817300  0.50000000  1
  Te  Te32  1  0.26869700  0.00000000  0.92517700  1
  Te  Te33  1  0.23130300  0.00000000  0.42517700  1
  Te  Te34  1  0.76869700  0.00000000  0.57482300  1
  Te  Te35  1  0.73130300  0.00000000  0.07482300  1
  Te  Te36  1  0.76869700  0.50000000  0.92517700  1
  Te  Te37  1  0.73130300  0.50000000  0.42517700  1
  Te  Te38  1  0.26869700  0.50000000  0.57482300  1
  Te  Te39  1  0.23130300  0.50000000  0.07482300  1
  S  S40  1  0.37182500  0.79615800  0.90266800  1
  S  S41  1  0.33648600  0.91613900  0.45567200  1
  S  S42  1  0.44094300  0.87611100  0.85626100  1
  S  S43  1  0.66351400  0.91613900  0.54432800  1
  S  S44  1  0.55905700  0.37611100  0.35626100  1
  S  S45  1  0.37182500  0.70384200  0.59733200  1
  S  S46  1  0.83648600  0.91613900  0.04432800  1
  S  S47  1  0.47598250  0.22722150  0.58089500  1
  S  S48  1  0.62817500  0.79615800  0.09733200  1
  S  S49  1  0.33648600  0.08386100  0.45567200  1
  S  S50  1  0.16351400  0.08386100  0.95567200  1
  S  S51  1  0.52401750  0.72722150  0.08089500  1
  S  S52  1  0.52401750  0.77277850  0.41910500  1
  S  S53  1  0.52401750  0.22722150  0.41910500  1
  S  S54  1  0.83648600  0.08386100  0.04432800  1
  S  S55  1  0.47598250  0.27277850  0.91910500  1
  S  S56  1  0.47598250  0.77277850  0.58089500  1
  S  S57  1  0.55905700  0.87611100  0.14373900  1
  S  S58  1  0.61788200  0.00000000  0.91931100  1
  S  S59  1  0.62817500  0.29615800  0.40266800  1
  S  S60  1  0.88211800  0.00000000  0.41931100  1
  S  S61  1  0.37182500  0.20384200  0.90266800  1
  S  S62  1  0.62817500  0.70384200  0.40266800  1
  S  S63  1  0.44094300  0.62388900  0.64373900  1
  S  S64  1  0.16351400  0.91613900  0.95567200  1
  S  S65  1  0.11788200  0.00000000  0.58068900  1
  S  S66  1  0.55905700  0.62388900  0.35626100  1
  S  S67  1  0.66351400  0.08386100  0.54432800  1
  S  S68  1  0.44094300  0.37611100  0.64373900  1
  S  S69  1  0.44094300  0.12388900  0.85626100  1
  S  S70  1  0.38211800  0.00000000  0.08068900  1
  S  S71  1  0.37182500  0.29615800  0.59733200  1
  S  S72  1  0.62817500  0.20384200  0.09733200  1
  S  S73  1  0.52401750  0.27277850  0.08089500  1
  S  S74  1  0.55905700  0.12388900  0.14373900  1
  S  S75  1  0.47598250  0.72722150  0.91910500  1
  S  S76  1  0.87182500  0.29615800  0.90266800  1
  S  S77  1  0.83648600  0.41613900  0.45567200  1
  S  S78  1  0.94094300  0.37611100  0.85626100  1
  S  S79  1  0.16351400  0.41613900  0.54432800  1
  S  S80  1  0.05905700  0.87611100  0.35626100  1
  S  S81  1  0.87182500  0.20384200  0.59733200  1
  S  S82  1  0.33648600  0.41613900  0.04432800  1
  S  S83  1  0.97598250  0.72722150  0.58089500  1
  S  S84  1  0.12817500  0.29615800  0.09733200  1
  S  S85  1  0.83648600  0.58386100  0.45567200  1
  S  S86  1  0.66351400  0.58386100  0.95567200  1
  S  S87  1  0.02401750  0.22722150  0.08089500  1
  S  S88  1  0.02401750  0.27277850  0.41910500  1
  S  S89  1  0.02401750  0.72722150  0.41910500  1
  S  S90  1  0.33648600  0.58386100  0.04432800  1
  S  S91  1  0.97598250  0.77277850  0.91910500  1
  S  S92  1  0.97598250  0.27277850  0.58089500  1
  S  S93  1  0.05905700  0.37611100  0.14373900  1
  S  S94  1  0.11788200  0.50000000  0.91931100  1
  S  S95  1  0.12817500  0.79615800  0.40266800  1
  S  S96  1  0.38211800  0.50000000  0.41931100  1
  S  S97  1  0.87182500  0.70384200  0.90266800  1
  S  S98  1  0.12817500  0.20384200  0.40266800  1
  S  S99  1  0.94094300  0.12388900  0.64373900  1
  S  S100  1  0.66351400  0.41613900  0.95567200  1
  S  S101  1  0.61788200  0.50000000  0.58068900  1
  S  S102  1  0.05905700  0.12388900  0.35626100  1
  S  S103  1  0.16351400  0.58386100  0.54432800  1
  S  S104  1  0.94094300  0.87611100  0.64373900  1
  S  S105  1  0.94094300  0.62388900  0.85626100  1
  S  S106  1  0.88211800  0.50000000  0.08068900  1
  S  S107  1  0.87182500  0.79615800  0.59733200  1
  S  S108  1  0.12817500  0.70384200  0.09733200  1
  S  S109  1  0.02401750  0.77277850  0.08089500  1
  S  S110  1  0.05905700  0.62388900  0.14373900  1
  S  S111  1  0.97598250  0.22722150  0.91910500  1
