# generated using pymatgen
data_Ag4Se(IO2)2
_symmetry_space_group_name_H-M   'P 1'
_cell_length_a   7.28181200
_cell_length_b   9.52658900
_cell_length_c   13.24164300
_cell_angle_alpha   90.00000000
_cell_angle_beta   90.00000000
_cell_angle_gamma   90.00000000
_symmetry_Int_Tables_number   1
_chemical_formula_structural   Ag4Se(IO2)2
_chemical_formula_sum   'Ag16 Se4 I8 O16'
_cell_volume   918.58376679
_cell_formula_units_Z   4
loop_
 _symmetry_equiv_pos_site_id
 _symmetry_equiv_pos_as_xyz
  1  'x, y, z'
loop_
 _atom_site_type_symbol
 _atom_site_label
 _atom_site_symmetry_multiplicity
 _atom_site_fract_x
 _atom_site_fract_y
 _atom_site_fract_z
 _atom_site_occupancy
  Ag  Ag0  1  0.78381500  0.12470300  0.41715900  1
  Ag  Ag1  1  0.03832000  0.01885000  0.01601300  1
  Ag  Ag2  1  0.43240000  0.76356400  0.80703500  1
  Ag  Ag3  1  0.53832000  0.48115000  0.51601300  1
  Ag  Ag4  1  0.93240000  0.73643600  0.30703500  1
  Ag  Ag5  1  0.43240000  0.26356400  0.69296500  1
  Ag  Ag6  1  0.78381500  0.62470300  0.08284100  1
  Ag  Ag7  1  0.93240000  0.23643600  0.19296500  1
  Ag  Ag8  1  0.28381500  0.87529700  0.58284100  1
  Ag  Ag9  1  0.86687600  0.04191700  0.75865300  1
  Ag  Ag10  1  0.03832000  0.51885000  0.48398700  1
  Ag  Ag11  1  0.53832000  0.98115000  0.98398700  1
  Ag  Ag12  1  0.86687600  0.54191700  0.74134700  1
  Ag  Ag13  1  0.36687600  0.45808300  0.25865300  1
  Ag  Ag14  1  0.36687600  0.95808300  0.24134700  1
  Ag  Ag15  1  0.28381500  0.37529700  0.91715900  1
  Se  Se16  1  0.78163600  0.31663500  0.92913600  1
  Se  Se17  1  0.28163600  0.18336500  0.42913600  1
  Se  Se18  1  0.28163600  0.68336500  0.07086400  1
  Se  Se19  1  0.78163600  0.81663500  0.57086400  1
  I  I20  1  0.27350000  0.54312600  0.68557500  1
  I  I21  1  0.79884700  0.26639500  0.61109100  1
  I  I22  1  0.77350000  0.95687400  0.18557500  1
  I  I23  1  0.77350000  0.45687400  0.31442500  1
  I  I24  1  0.29884700  0.73360500  0.38890900  1
  I  I25  1  0.29884700  0.23360500  0.11109100  1
  I  I26  1  0.79884700  0.76639500  0.88890900  1
  I  I27  1  0.27350000  0.04312600  0.81442500  1
  O  O28  1  0.28500500  0.86426400  0.07550900  1
  O  O29  1  0.46983300  0.12440500  0.36767500  1
  O  O30  1  0.96983300  0.37559500  0.86767500  1
  O  O31  1  0.96983300  0.87559500  0.63232500  1
  O  O32  1  0.78054800  0.36631200  0.05061000  1
  O  O33  1  0.78500500  0.63573600  0.57550900  1
  O  O34  1  0.78054800  0.86631200  0.44939000  1
  O  O35  1  0.78500500  0.13573600  0.92449100  1
  O  O36  1  0.59854100  0.37721400  0.86546200  1
  O  O37  1  0.28500500  0.36426400  0.42449100  1
  O  O38  1  0.59854100  0.87721400  0.63453800  1
  O  O39  1  0.09854100  0.62278600  0.13453800  1
  O  O40  1  0.28054800  0.13368800  0.55061000  1
  O  O41  1  0.28054800  0.63368800  0.94939000  1
  O  O42  1  0.46983300  0.62440500  0.13232500  1
  O  O43  1  0.09854100  0.12278600  0.36546200  1
