# generated using pymatgen
data_KNaCu3S3O13
_symmetry_space_group_name_H-M   'P 1'
_cell_length_a   18.72292758
_cell_length_b   9.53704400
_cell_length_c   14.61258419
_cell_angle_alpha   90.00000000
_cell_angle_beta   114.26679458
_cell_angle_gamma   90.00000000
_symmetry_Int_Tables_number   1
_chemical_formula_structural   KNaCu3S3O13
_chemical_formula_sum   'K8 Na8 Cu24 S24 O104'
_cell_volume   2378.69473636
_cell_formula_units_Z   8
loop_
 _symmetry_equiv_pos_site_id
 _symmetry_equiv_pos_as_xyz
  1  'x, y, z'
loop_
 _atom_site_type_symbol
 _atom_site_label
 _atom_site_symmetry_multiplicity
 _atom_site_fract_x
 _atom_site_fract_y
 _atom_site_fract_z
 _atom_site_occupancy
  K  K0  1  0.19239550  0.74207350  0.12847900  1
  K  K1  1  0.30760450  0.24207350  0.37152100  1
  K  K2  1  0.80760450  0.25792650  0.87152100  1
  K  K3  1  0.69239550  0.75792650  0.62847900  1
  K  K4  1  0.69239550  0.24207350  0.12847900  1
  K  K5  1  0.80760450  0.74207350  0.37152100  1
  K  K6  1  0.30760450  0.75792650  0.87152100  1
  K  K7  1  0.19239550  0.25792650  0.62847900  1
  Na  Na8  1  0.32517200  0.76677000  0.45371100  1
  Na  Na9  1  0.82517200  0.73323000  0.95371100  1
  Na  Na10  1  0.67482800  0.23323000  0.54628900  1
  Na  Na11  1  0.17482800  0.26677000  0.04628900  1
  Na  Na12  1  0.82517200  0.26677000  0.45371100  1
  Na  Na13  1  0.32517200  0.23323000  0.95371100  1
  Na  Na14  1  0.17482800  0.73323000  0.54628900  1
  Na  Na15  1  0.67482800  0.76677000  0.04628900  1
  Cu  Cu16  1  0.41750100  0.25530700  0.70553800  1
  Cu  Cu17  1  0.51609400  0.47087400  0.35957000  1
  Cu  Cu18  1  0.48390600  0.47087400  0.14043000  1
  Cu  Cu19  1  0.41750100  0.74469300  0.20553800  1
  Cu  Cu20  1  0.51609400  0.52912600  0.85957000  1
  Cu  Cu21  1  0.51631550  0.02056150  0.15749000  1
  Cu  Cu22  1  0.51631550  0.97943850  0.65749000  1
  Cu  Cu23  1  0.58249900  0.74469300  0.29446200  1
  Cu  Cu24  1  0.58249900  0.25530700  0.79446200  1
  Cu  Cu25  1  0.48368450  0.97943850  0.84251000  1
  Cu  Cu26  1  0.48368450  0.02056150  0.34251000  1
  Cu  Cu27  1  0.48390600  0.52912600  0.64043000  1
  Cu  Cu28  1  0.91750100  0.75530700  0.70553800  1
  Cu  Cu29  1  0.01609400  0.97087400  0.35957000  1
  Cu  Cu30  1  0.98390600  0.97087400  0.14043000  1
  Cu  Cu31  1  0.91750100  0.24469300  0.20553800  1
  Cu  Cu32  1  0.01609400  0.02912600  0.85957000  1
  Cu  Cu33  1  0.01631550  0.52056150  0.15749000  1
  Cu  Cu34  1  0.01631550  0.47943850  0.65749000  1
  Cu  Cu35  1  0.08249900  0.24469300  0.29446200  1
  Cu  Cu36  1  0.08249900  0.75530700  0.79446200  1
  Cu  Cu37  1  0.98368450  0.47943850  0.84251000  1
  Cu  Cu38  1  0.98368450  0.52056150  0.34251000  1
  Cu  Cu39  1  0.98390600  0.02912600  0.64043000  1
  S  S40  1  0.49758150  0.24829650  0.98508500  1
  S  S41  1  0.84577350  0.04234350  0.70625800  1
  S  S42  1  0.65555350  0.97055750  0.86821400  1
  S  S43  1  0.15422650  0.95765650  0.29374200  1
  S  S44  1  0.34444650  0.02944250  0.13178600  1
  S  S45  1  0.34577350  0.45765650  0.20625800  1
  S  S46  1  0.65422650  0.54234350  0.79374200  1
  S  S47  1  0.65555350  0.02944250  0.36821400  1
  S  S48  1  0.49758150  0.75170350  0.48508500  1
  S  S49  1  0.34444650  0.97055750  0.63178600  1
  S  S50  1  0.50241850  0.75170350  0.01491500  1
  S  S51  1  0.50241850  0.24829650  0.51491500  1
  S  S52  1  0.99758150  0.74829650  0.98508500  1
  S  S53  1  0.34577350  0.54234350  0.70625800  1
  S  S54  1  0.15555350  0.47055750  0.86821400  1
  S  S55  1  0.65422650  0.45765650  0.29374200  1
  S  S56  1  0.84444650  0.52944250  0.13178600  1
  S  S57  1  0.84577350  0.95765650  0.20625800  1
  S  S58  1  0.15422650  0.04234350  0.79374200  1
  S  S59  1  0.15555350  0.52944250  0.36821400  1
  S  S60  1  0.99758150  0.25170350  0.48508500  1
  S  S61  1  0.84444650  0.47055750  0.63178600  1
  S  S62  1  0.00241850  0.25170350  0.01491500  1
  S  S63  1  0.00241850  0.74829650  0.51491500  1
  O  O64  1  0.16833500  0.11304900  0.31230100  1
  O  O65  1  0.38090700  0.40175800  0.13835100  1
  O  O66  1  0.95735250  0.35363750  0.93308000  1
  O  O67  1  0.40174150  0.05746250  0.08503800  1
  O  O68  1  0.44396150  0.32249450  0.54141900  1
  O  O69  1  0.77117900  0.39950600  0.57088700  1
  O  O70  1  0.54731600  0.64992300  0.97966600  1
  O  O71  1  0.55603850  0.67750550  0.45858100  1
  O  O72  1  0.59825850  0.05746250  0.41496200  1
  O  O73  1  0.62298250  0.07938350  0.26186700  1
  O  O74  1  0.40174150  0.94253750  0.58503800  1
  O  O75  1  0.56275900  0.17461400  0.60198300  1
  O  O76  1  0.33000400  0.87356300  0.12952900  1
  O  O77  1  0.37701750  0.92061650  0.73813300  1
  O  O78  1  0.50000000  0.60231550  0.25000000  1
  O  O79  1  0.72895200  0.61069100  0.81262700  1
  O  O80  1  0.27104800  0.38930900  0.18737300  1
  O  O81  1  0.66999600  0.87356300  0.37047100  1
  O  O82  1  0.61909300  0.59824200  0.86164900  1
  O  O83  1  0.50000000  0.39768450  0.75000000  1
  O  O84  1  0.09891500  0.93554100  0.18551100  1
  O  O85  1  0.38090700  0.59824200  0.63835100  1
  O  O86  1  0.66999600  0.12643700  0.87047100  1
  O  O87  1  0.40108500  0.43554100  0.31448900  1
  O  O88  1  0.55603850  0.32249450  0.95858100  1
  O  O89  1  0.43724100  0.82538600  0.39801700  1
  O  O90  1  0.61909300  0.40175800  0.36164900  1
  O  O91  1  0.62298250  0.92061650  0.76186700  1
  O  O92  1  0.59891500  0.56445900  0.68551100  1
  O  O93  1  0.59825850  0.94253750  0.91496200  1
  O  O94  1  0.37701750  0.07938350  0.23813300  1
  O  O95  1  0.45268400  0.64992300  0.52033400  1
  O  O96  1  0.83166500  0.88695100  0.68769900  1
  O  O97  1  0.22882100  0.60049400  0.42911300  1
  O  O98  1  0.93724100  0.67461400  0.89801700  1
  O  O99  1  0.54264750  0.85363750  0.56692000  1
  O  O100  1  0.45268400  0.35007700  0.02033400  1
  O  O101  1  0.45735250  0.14636250  0.43308000  1
  O  O102  1  0.06275900  0.32538600  0.10198300  1
  O  O103  1  0.04264750  0.64636250  0.06692000  1
  O  O104  1  0.22895200  0.88930900  0.31262700  1
  O  O105  1  0.77104800  0.11069100  0.68737300  1
  O  O106  1  0.27117900  0.10049400  0.07088700  1
  O  O107  1  0.54731600  0.35007700  0.47966600  1
  O  O108  1  0.72882100  0.89950600  0.92911300  1
  O  O109  1  0.33166500  0.61304900  0.18769900  1
  O  O110  1  0.50000000  0.11217150  0.75000000  1
  O  O111  1  0.44396150  0.67750550  0.04141900  1
  O  O112  1  0.50000000  0.88782850  0.25000000  1
  O  O113  1  0.33000400  0.12643700  0.62952900  1
  O  O114  1  0.66833500  0.38695100  0.81230100  1
  O  O115  1  0.90108500  0.06445900  0.81448900  1
  O  O116  1  0.66833500  0.61304900  0.31230100  1
  O  O117  1  0.88090700  0.90175800  0.13835100  1
  O  O118  1  0.45735250  0.85363750  0.93308000  1
  O  O119  1  0.90174150  0.55746250  0.08503800  1
  O  O120  1  0.94396150  0.82249450  0.54141900  1
  O  O121  1  0.27117900  0.89950600  0.57088700  1
  O  O122  1  0.04731600  0.14992300  0.97966600  1
  O  O123  1  0.05603850  0.17750550  0.45858100  1
  O  O124  1  0.09825850  0.55746250  0.41496200  1
  O  O125  1  0.12298250  0.57938350  0.26186700  1
  O  O126  1  0.90174150  0.44253750  0.58503800  1
  O  O127  1  0.06275900  0.67461400  0.60198300  1
  O  O128  1  0.83000400  0.37356300  0.12952900  1
  O  O129  1  0.87701750  0.42061650  0.73813300  1
  O  O130  1  0.00000000  0.10231550  0.25000000  1
  O  O131  1  0.22895200  0.11069100  0.81262700  1
  O  O132  1  0.77104800  0.88930900  0.18737300  1
  O  O133  1  0.16999600  0.37356300  0.37047100  1
  O  O134  1  0.11909300  0.09824200  0.86164900  1
  O  O135  1  0.00000000  0.89768450  0.75000000  1
  O  O136  1  0.59891500  0.43554100  0.18551100  1
  O  O137  1  0.88090700  0.09824200  0.63835100  1
  O  O138  1  0.16999600  0.62643700  0.87047100  1
  O  O139  1  0.90108500  0.93554100  0.31448900  1
  O  O140  1  0.05603850  0.82249450  0.95858100  1
  O  O141  1  0.93724100  0.32538600  0.39801700  1
  O  O142  1  0.11909300  0.90175800  0.36164900  1
  O  O143  1  0.12298250  0.42061650  0.76186700  1
  O  O144  1  0.09891500  0.06445900  0.68551100  1
  O  O145  1  0.09825850  0.44253750  0.91496200  1
  O  O146  1  0.87701750  0.57938350  0.23813300  1
  O  O147  1  0.95268400  0.14992300  0.52033400  1
  O  O148  1  0.33166500  0.38695100  0.68769900  1
  O  O149  1  0.72882100  0.10049400  0.42911300  1
  O  O150  1  0.43724100  0.17461400  0.89801700  1
  O  O151  1  0.04264750  0.35363750  0.56692000  1
  O  O152  1  0.95268400  0.85007700  0.02033400  1
  O  O153  1  0.95735250  0.64636250  0.43308000  1
  O  O154  1  0.56275900  0.82538600  0.10198300  1
  O  O155  1  0.54264750  0.14636250  0.06692000  1
  O  O156  1  0.72895200  0.38930900  0.31262700  1
  O  O157  1  0.27104800  0.61069100  0.68737300  1
  O  O158  1  0.77117900  0.60049400  0.07088700  1
  O  O159  1  0.04731600  0.85007700  0.47966600  1
  O  O160  1  0.22882100  0.39950600  0.92911300  1
  O  O161  1  0.83166500  0.11304900  0.18769900  1
  O  O162  1  0.00000000  0.61217150  0.75000000  1
  O  O163  1  0.94396150  0.17750550  0.04141900  1
  O  O164  1  0.00000000  0.38782850  0.25000000  1
  O  O165  1  0.83000400  0.62643700  0.62952900  1
  O  O166  1  0.16833500  0.88695100  0.81230100  1
  O  O167  1  0.40108500  0.56445900  0.81448900  1
