# generated using pymatgen
data_TlW3Br7
_symmetry_space_group_name_H-M   'P 1'
_cell_length_a   14.12943700
_cell_length_b   14.41460500
_cell_length_c   14.45101200
_cell_angle_alpha   90.00000000
_cell_angle_beta   90.00000000
_cell_angle_gamma   90.00000000
_symmetry_Int_Tables_number   1
_chemical_formula_structural   TlW3Br7
_chemical_formula_sum   'Tl8 W24 Br56'
_cell_volume   2943.24127343
_cell_formula_units_Z   8
loop_
 _symmetry_equiv_pos_site_id
 _symmetry_equiv_pos_as_xyz
  1  'x, y, z'
loop_
 _atom_site_type_symbol
 _atom_site_label
 _atom_site_symmetry_multiplicity
 _atom_site_fract_x
 _atom_site_fract_y
 _atom_site_fract_z
 _atom_site_occupancy
  Tl  Tl0  1  0.50000000  0.00000000  0.00000000  1
  Tl  Tl1  1  0.00000000  0.50000000  0.00000000  1
  Tl  Tl2  1  0.25000000  0.25000000  0.25000000  1
  Tl  Tl3  1  0.75000000  0.75000000  0.25000000  1
  Tl  Tl4  1  0.50000000  0.00000000  0.50000000  1
  Tl  Tl5  1  0.00000000  0.50000000  0.50000000  1
  Tl  Tl6  1  0.25000000  0.75000000  0.75000000  1
  Tl  Tl7  1  0.75000000  0.25000000  0.75000000  1
  W  W8  1  0.37248300  0.29041000  0.77971300  1
  W  W9  1  0.62751700  0.70959000  0.77971300  1
  W  W10  1  0.28052400  0.12987100  0.79132700  1
  W  W11  1  0.71947600  0.87012900  0.79132700  1
  W  W12  1  0.20865700  0.28161900  0.86958600  1
  W  W13  1  0.79134300  0.71838100  0.86958600  1
  W  W14  1  0.20865700  0.71838100  0.13041400  1
  W  W15  1  0.79134300  0.28161900  0.13041400  1
  W  W16  1  0.71947600  0.12987100  0.20867300  1
  W  W17  1  0.28052400  0.87012900  0.20867300  1
  W  W18  1  0.62751700  0.29041000  0.22028700  1
  W  W19  1  0.37248300  0.70959000  0.22028700  1
  W  W20  1  0.12751700  0.79041000  0.27971300  1
  W  W21  1  0.87248300  0.20959000  0.27971300  1
  W  W22  1  0.21947600  0.62987100  0.29132700  1
  W  W23  1  0.78052400  0.37012900  0.29132700  1
  W  W24  1  0.70865700  0.21838100  0.36958600  1
  W  W25  1  0.29134300  0.78161900  0.36958600  1
  W  W26  1  0.70865700  0.78161900  0.63041400  1
  W  W27  1  0.29134300  0.21838100  0.63041400  1
  W  W28  1  0.21947600  0.37012900  0.70867300  1
  W  W29  1  0.78052400  0.62987100  0.70867300  1
  W  W30  1  0.87248300  0.79041000  0.72028700  1
  W  W31  1  0.12751700  0.20959000  0.72028700  1
  Br  Br32  1  0.05584000  0.36183100  0.79769400  1
  Br  Br33  1  0.94416000  0.63816900  0.79769400  1
  Br  Br34  1  0.54382800  0.34380100  0.82162300  1
  Br  Br35  1  0.45617200  0.65619900  0.82162300  1
  Br  Br36  1  0.32542700  0.96018600  0.84731400  1
  Br  Br37  1  0.67457300  0.03981400  0.84731400  1
  Br  Br38  1  0.30093000  0.44121000  0.85782600  1
  Br  Br39  1  0.69907000  0.55879000  0.85782600  1
  Br  Br40  1  0.11741400  0.12080300  0.88133000  1
  Br  Br41  1  0.88258600  0.87919700  0.88133000  1
  Br  Br42  1  0.63847400  0.79705500  0.94117200  1
  Br  Br43  1  0.36152600  0.20294500  0.94117200  1
  Br  Br44  1  0.84703400  0.32648700  0.96095500  1
  Br  Br45  1  0.15296600  0.67351300  0.96095500  1
  Br  Br46  1  0.15296600  0.32648700  0.03904500  1
  Br  Br47  1  0.84703400  0.67351300  0.03904500  1
  Br  Br48  1  0.36152600  0.79705500  0.05882800  1
  Br  Br49  1  0.63847400  0.20294500  0.05882800  1
  Br  Br50  1  0.11741400  0.87919700  0.11867000  1
  Br  Br51  1  0.88258600  0.12080300  0.11867000  1
  Br  Br52  1  0.69907000  0.44121000  0.14217400  1
  Br  Br53  1  0.30093000  0.55879000  0.14217400  1
  Br  Br54  1  0.67457300  0.96018600  0.15268600  1
  Br  Br55  1  0.32542700  0.03981400  0.15268600  1
  Br  Br56  1  0.45617200  0.34380100  0.17837700  1
  Br  Br57  1  0.54382800  0.65619900  0.17837700  1
  Br  Br58  1  0.94416000  0.36183100  0.20230600  1
  Br  Br59  1  0.05584000  0.63816900  0.20230600  1
  Br  Br60  1  0.44416000  0.86183100  0.29769400  1
  Br  Br61  1  0.55584000  0.13816900  0.29769400  1
  Br  Br62  1  0.95617200  0.84380100  0.32162300  1
  Br  Br63  1  0.04382800  0.15619900  0.32162300  1
  Br  Br64  1  0.17457300  0.46018600  0.34731400  1
  Br  Br65  1  0.82542700  0.53981400  0.34731400  1
  Br  Br66  1  0.19907000  0.94121000  0.35782600  1
  Br  Br67  1  0.80093000  0.05879000  0.35782600  1
  Br  Br68  1  0.61741400  0.37919700  0.38133000  1
  Br  Br69  1  0.38258600  0.62080300  0.38133000  1
  Br  Br70  1  0.86152600  0.29705500  0.44117200  1
  Br  Br71  1  0.13847400  0.70294500  0.44117200  1
  Br  Br72  1  0.65296600  0.82648700  0.46095500  1
  Br  Br73  1  0.34703400  0.17351300  0.46095500  1
  Br  Br74  1  0.34703400  0.82648700  0.53904500  1
  Br  Br75  1  0.65296600  0.17351300  0.53904500  1
  Br  Br76  1  0.13847400  0.29705500  0.55882800  1
  Br  Br77  1  0.86152600  0.70294500  0.55882800  1
  Br  Br78  1  0.61741400  0.62080300  0.61867000  1
  Br  Br79  1  0.38258600  0.37919700  0.61867000  1
  Br  Br80  1  0.80093000  0.94121000  0.64217400  1
  Br  Br81  1  0.19907000  0.05879000  0.64217400  1
  Br  Br82  1  0.82542700  0.46018600  0.65268600  1
  Br  Br83  1  0.17457300  0.53981400  0.65268600  1
  Br  Br84  1  0.04382800  0.84380100  0.67837700  1
  Br  Br85  1  0.95617200  0.15619900  0.67837700  1
  Br  Br86  1  0.55584000  0.86183100  0.70230600  1
  Br  Br87  1  0.44416000  0.13816900  0.70230600  1
