# generated using pymatgen
data_Sb2(PO4)3
_symmetry_space_group_name_H-M   'P 1'
_cell_length_a   8.54470300
_cell_length_b   8.87130900
_cell_length_c   14.67670623
_cell_angle_alpha   90.00000000
_cell_angle_beta   124.44182690
_cell_angle_gamma   90.00000000
_symmetry_Int_Tables_number   1
_chemical_formula_structural   Sb2(PO4)3
_chemical_formula_sum   'Sb8 P12 O48'
_cell_volume   917.50770169
_cell_formula_units_Z   4
loop_
 _symmetry_equiv_pos_site_id
 _symmetry_equiv_pos_as_xyz
  1  'x, y, z'
loop_
 _atom_site_type_symbol
 _atom_site_label
 _atom_site_symmetry_multiplicity
 _atom_site_fract_x
 _atom_site_fract_y
 _atom_site_fract_z
 _atom_site_occupancy
  Sb  Sb0  1  0.36282400  0.96673500  0.61416100  1
  Sb  Sb1  1  0.13488100  0.96947500  0.88351700  1
  Sb  Sb2  1  0.36282400  0.53326500  0.11416100  1
  Sb  Sb3  1  0.86511900  0.03052500  0.11648300  1
  Sb  Sb4  1  0.86511900  0.46947500  0.61648300  1
  Sb  Sb5  1  0.63717600  0.03326500  0.38583900  1
  Sb  Sb6  1  0.63717600  0.46673500  0.88583900  1
  Sb  Sb7  1  0.13488100  0.53052500  0.38351700  1
  P  P8  1  0.24970600  0.88347400  0.35311300  1
  P  P9  1  0.47315000  0.38197800  0.35320200  1
  P  P10  1  0.52685000  0.61802200  0.64679800  1
  P  P11  1  0.95791000  0.74299500  0.99561100  1
  P  P12  1  0.75029400  0.11652600  0.64688700  1
  P  P13  1  0.04209000  0.24299500  0.50438900  1
  P  P14  1  0.47315000  0.11802200  0.85320200  1
  P  P15  1  0.04209000  0.25700500  0.00438900  1
  P  P16  1  0.95791000  0.75700500  0.49561100  1
  P  P17  1  0.75029400  0.38347400  0.14688700  1
  P  P18  1  0.52685000  0.88197800  0.14679800  1
  P  P19  1  0.24970600  0.61652600  0.85311300  1
  O  O20  1  0.50602000  0.77655200  0.68606500  1
  O  O21  1  0.65093000  0.09501600  0.52030400  1
  O  O22  1  0.38973100  0.93428200  0.32267500  1
  O  O23  1  0.23723700  0.33521000  0.04838500  1
  O  O24  1  0.04208300  0.19284200  0.10168000  1
  O  O25  1  0.00775700  0.13885900  0.91834500  1
  O  O26  1  0.06869100  0.51995400  0.78910000  1
  O  O27  1  0.61026900  0.06571800  0.67732500  1
  O  O28  1  0.62069800  0.98800900  0.24922400  1
  O  O29  1  0.66233600  0.62537200  0.60907000  1
  O  O30  1  0.21853400  0.78601800  0.82648500  1
  O  O31  1  0.67094300  0.44303600  0.44276500  1
  O  O32  1  0.34907000  0.59501600  0.97969600  1
  O  O33  1  0.95791700  0.80715800  0.89832000  1
  O  O34  1  0.93130900  0.48004600  0.21090000  1
  O  O35  1  0.23723700  0.16479000  0.54838500  1
  O  O36  1  0.62069800  0.51199100  0.74922400  1
  O  O37  1  0.95791700  0.69284200  0.39832000  1
  O  O38  1  0.76276300  0.83521000  0.45161500  1
  O  O39  1  0.61026900  0.43428200  0.17732500  1
  O  O40  1  0.76276300  0.66479000  0.95161500  1
  O  O41  1  0.78146600  0.21398200  0.17351500  1
  O  O42  1  0.78146600  0.28601800  0.67351500  1
  O  O43  1  0.99224300  0.63885900  0.58165500  1
  O  O44  1  0.50602000  0.72344800  0.18606500  1
  O  O45  1  0.37930200  0.48800900  0.25077600  1
  O  O46  1  0.93130900  0.01995400  0.71090000  1
  O  O47  1  0.99224300  0.86114100  0.08165500  1
  O  O48  1  0.49398000  0.22344800  0.31393500  1
  O  O49  1  0.32905700  0.55696400  0.55723500  1
  O  O50  1  0.21853400  0.71398200  0.32648500  1
  O  O51  1  0.33766400  0.37462800  0.39093000  1
  O  O52  1  0.00775700  0.36114100  0.41834500  1
  O  O53  1  0.37930200  0.01199100  0.75077600  1
  O  O54  1  0.06869100  0.98004600  0.28910000  1
  O  O55  1  0.67094300  0.05696400  0.94276500  1
  O  O56  1  0.49398000  0.27655200  0.81393500  1
  O  O57  1  0.34907000  0.90498400  0.47969600  1
  O  O58  1  0.11410200  0.62122800  0.06114700  1
  O  O59  1  0.04208300  0.30715800  0.60168000  1
  O  O60  1  0.38973100  0.56571800  0.82267500  1
  O  O61  1  0.65093000  0.40498400  0.02030400  1
  O  O62  1  0.33766400  0.12537200  0.89093000  1
  O  O63  1  0.88589800  0.37877200  0.93885300  1
  O  O64  1  0.66233600  0.87462800  0.10907000  1
  O  O65  1  0.32905700  0.94303600  0.05723500  1
  O  O66  1  0.11410200  0.87877200  0.56114700  1
  O  O67  1  0.88589800  0.12122800  0.43885300  1
