# generated using pymatgen
data_SrAgB7O12
_symmetry_space_group_name_H-M   'P 1'
_cell_length_a   6.71889200
_cell_length_b   11.70737400
_cell_length_c   22.37051218
_cell_angle_alpha   90.00000000
_cell_angle_beta   92.48453344
_cell_angle_gamma   90.00000000
_symmetry_Int_Tables_number   1
_chemical_formula_structural   SrAgB7O12
_chemical_formula_sum   'Sr8 Ag8 B56 O96'
_cell_volume   1758.02332922
_cell_formula_units_Z   8
loop_
 _symmetry_equiv_pos_site_id
 _symmetry_equiv_pos_as_xyz
  1  'x, y, z'
loop_
 _atom_site_type_symbol
 _atom_site_label
 _atom_site_symmetry_multiplicity
 _atom_site_fract_x
 _atom_site_fract_y
 _atom_site_fract_z
 _atom_site_occupancy
  Sr  Sr0  1  0.50449050  0.66511150  0.05813800  1
  Sr  Sr1  1  0.99550950  0.83488850  0.94186200  1
  Sr  Sr2  1  0.49550950  0.66511150  0.44186200  1
  Sr  Sr3  1  0.00449050  0.83488850  0.55813800  1
  Sr  Sr4  1  0.00449050  0.16511150  0.05813800  1
  Sr  Sr5  1  0.49550950  0.33488850  0.94186200  1
  Sr  Sr6  1  0.99550950  0.16511150  0.44186200  1
  Sr  Sr7  1  0.50449050  0.33488850  0.55813800  1
  Ag  Ag8  1  0.13844600  0.59724100  0.80022400  1
  Ag  Ag9  1  0.36155400  0.90275900  0.19977600  1
  Ag  Ag10  1  0.63844600  0.90275900  0.30022400  1
  Ag  Ag11  1  0.86155400  0.59724100  0.69977600  1
  Ag  Ag12  1  0.63844600  0.09724100  0.80022400  1
  Ag  Ag13  1  0.86155400  0.40275900  0.19977600  1
  Ag  Ag14  1  0.13844600  0.40275900  0.30022400  1
  Ag  Ag15  1  0.36155400  0.09724100  0.69977600  1
  B  B16  1  0.56512800  0.72758800  0.80831000  1
  B  B17  1  0.03631300  0.61901400  0.43660600  1
  B  B18  1  0.53631300  0.88098600  0.93660600  1
  B  B19  1  0.96368700  0.61901400  0.06339400  1
  B  B20  1  0.46368700  0.88098600  0.56339400  1
  B  B21  1  0.68371150  0.54660050  0.30792000  1
  B  B22  1  0.70310650  0.96426250  0.09256300  1
  B  B23  1  0.00743650  0.83246850  0.08403500  1
  B  B24  1  0.87998750  0.84346850  0.78869300  1
  B  B25  1  0.65228150  0.92104250  0.43623400  1
  B  B26  1  0.29689350  0.96426250  0.40743700  1
  B  B27  1  0.81628850  0.95339950  0.69208000  1
  B  B28  1  0.31628850  0.54660050  0.19208000  1
  B  B29  1  0.20310650  0.53573750  0.59256300  1
  B  B30  1  0.34771850  0.92104250  0.06376600  1
  B  B31  1  0.43487200  0.72758800  0.69169000  1
  B  B32  1  0.50743650  0.66753150  0.58403500  1
  B  B33  1  0.18371150  0.95339950  0.80792000  1
  B  B34  1  0.49256350  0.66753150  0.91596500  1
  B  B35  1  0.12001250  0.84346850  0.71130700  1
  B  B36  1  0.99256350  0.83246850  0.41596500  1
  B  B37  1  0.93487200  0.77241200  0.19169000  1
  B  B38  1  0.06512800  0.77241200  0.30831000  1
  B  B39  1  0.62001250  0.65653150  0.21130700  1
  B  B40  1  0.84771850  0.57895750  0.56376600  1
  B  B41  1  0.37998750  0.65653150  0.28869300  1
  B  B42  1  0.79689350  0.53573750  0.90743700  1
  B  B43  1  0.15228150  0.57895750  0.93623400  1
  B  B44  1  0.06512800  0.22758800  0.80831000  1
  B  B45  1  0.53631300  0.11901400  0.43660600  1
  B  B46  1  0.03631300  0.38098600  0.93660600  1
  B  B47  1  0.46368700  0.11901400  0.06339400  1
  B  B48  1  0.96368700  0.38098600  0.56339400  1
  B  B49  1  0.18371150  0.04660050  0.30792000  1
  B  B50  1  0.20310650  0.46426250  0.09256300  1
  B  B51  1  0.50743650  0.33246850  0.08403500  1
  B  B52  1  0.37998750  0.34346850  0.78869300  1
  B  B53  1  0.15228150  0.42104250  0.43623400  1
  B  B54  1  0.79689350  0.46426250  0.40743700  1
  B  B55  1  0.31628850  0.45339950  0.69208000  1
  B  B56  1  0.81628850  0.04660050  0.19208000  1
  B  B57  1  0.70310650  0.03573750  0.59256300  1
  B  B58  1  0.84771850  0.42104250  0.06376600  1
  B  B59  1  0.93487200  0.22758800  0.69169000  1
  B  B60  1  0.00743650  0.16753150  0.58403500  1
  B  B61  1  0.68371150  0.45339950  0.80792000  1
  B  B62  1  0.99256350  0.16753150  0.91596500  1
  B  B63  1  0.62001250  0.34346850  0.71130700  1
  B  B64  1  0.49256350  0.33246850  0.41596500  1
  B  B65  1  0.43487200  0.27241200  0.19169000  1
  B  B66  1  0.56512800  0.27241200  0.30831000  1
  B  B67  1  0.12001250  0.15653150  0.21130700  1
  B  B68  1  0.34771850  0.07895750  0.56376600  1
  B  B69  1  0.87998750  0.15653150  0.28869300  1
  B  B70  1  0.29689350  0.03573750  0.90743700  1
  B  B71  1  0.65228150  0.07895750  0.93623400  1
  O  O72  1  0.84462150  0.58208850  0.43204000  1
  O  O73  1  0.77602750  0.93482450  0.75133800  1
  O  O74  1  0.60851300  0.56666200  0.93076600  1
  O  O75  1  0.03970950  0.61633150  0.57283400  1
  O  O76  1  0.10851300  0.93333800  0.43076600  1
  O  O77  1  0.47689050  0.59991750  0.16730500  1
  O  O78  1  0.70250650  0.65960050  0.55357600  1
  O  O79  1  0.00000000  0.79141900  0.25000000  1
  O  O80  1  0.76216400  0.71642200  0.17590400  1
  O  O81  1  0.39148700  0.56666200  0.56923400  1
  O  O82  1  0.79749350  0.84039950  0.44642400  1
  O  O83  1  0.30553400  0.97353800  0.34119300  1
  O  O84  1  0.53970950  0.88366850  0.07283400  1
  O  O85  1  0.20250650  0.84039950  0.05357600  1
  O  O86  1  0.19224050  0.53800650  0.43649100  1
  O  O87  1  0.15537850  0.58208850  0.06796000  1
  O  O88  1  0.30775950  0.96199350  0.56350900  1
  O  O89  1  0.59640450  0.77030050  0.94383800  1
  O  O90  1  0.22397250  0.93482450  0.74866200  1
  O  O91  1  0.52310950  0.59991750  0.33269500  1
  O  O92  1  0.73783600  0.78357800  0.82409600  1
  O  O93  1  0.44487550  0.68421550  0.85159900  1
  O  O94  1  0.09640450  0.72969950  0.44383800  1
  O  O95  1  0.90359550  0.72969950  0.05616200  1
  O  O96  1  0.29749350  0.65960050  0.94642400  1
  O  O97  1  0.80775950  0.53800650  0.06350900  1
  O  O98  1  0.40359550  0.77030050  0.55616200  1
  O  O99  1  0.50000000  0.70858100  0.75000000  1
  O  O100  1  0.26216400  0.78357800  0.67590400  1
  O  O101  1  0.69224050  0.96199350  0.93649100  1
  O  O102  1  0.69446600  0.97353800  0.15880700  1
  O  O103  1  0.72397250  0.56517550  0.24866200  1
  O  O104  1  0.00000000  0.76939100  0.75000000  1
  O  O105  1  0.02310950  0.90008250  0.83269500  1
  O  O106  1  0.19446600  0.52646200  0.65880700  1
  O  O107  1  0.96029050  0.61633150  0.92716600  1
  O  O108  1  0.89148700  0.93333800  0.06923400  1
  O  O109  1  0.65537850  0.91791150  0.56796000  1
  O  O110  1  0.97689050  0.90008250  0.66730500  1
  O  O111  1  0.94487550  0.81578450  0.35159900  1
  O  O112  1  0.27602750  0.56517550  0.25133800  1
  O  O113  1  0.80553400  0.52646200  0.84119300  1
  O  O114  1  0.05512450  0.81578450  0.14840100  1
  O  O115  1  0.46029050  0.88366850  0.42716600  1
  O  O116  1  0.23783600  0.71642200  0.32409600  1
  O  O117  1  0.34462150  0.91791150  0.93204000  1
  O  O118  1  0.55512450  0.68421550  0.64840100  1
  O  O119  1  0.50000000  0.73060900  0.25000000  1
  O  O120  1  0.34462150  0.08208850  0.43204000  1
  O  O121  1  0.27602750  0.43482450  0.75133800  1
  O  O122  1  0.10851300  0.06666200  0.93076600  1
  O  O123  1  0.53970950  0.11633150  0.57283400  1
  O  O124  1  0.60851300  0.43333800  0.43076600  1
  O  O125  1  0.97689050  0.09991750  0.16730500  1
  O  O126  1  0.20250650  0.15960050  0.55357600  1
  O  O127  1  0.50000000  0.29141900  0.25000000  1
  O  O128  1  0.26216400  0.21642200  0.17590400  1
  O  O129  1  0.89148700  0.06666200  0.56923400  1
  O  O130  1  0.29749350  0.34039950  0.44642400  1
  O  O131  1  0.80553400  0.47353800  0.34119300  1
  O  O132  1  0.03970950  0.38366850  0.07283400  1
  O  O133  1  0.70250650  0.34039950  0.05357600  1
  O  O134  1  0.69224050  0.03800650  0.43649100  1
  O  O135  1  0.65537850  0.08208850  0.06796000  1
  O  O136  1  0.80775950  0.46199350  0.56350900  1
  O  O137  1  0.09640450  0.27030050  0.94383800  1
  O  O138  1  0.72397250  0.43482450  0.74866200  1
  O  O139  1  0.02310950  0.09991750  0.33269500  1
  O  O140  1  0.23783600  0.28357800  0.82409600  1
  O  O141  1  0.94487550  0.18421550  0.85159900  1
  O  O142  1  0.59640450  0.22969950  0.44383800  1
  O  O143  1  0.40359550  0.22969950  0.05616200  1
  O  O144  1  0.79749350  0.15960050  0.94642400  1
  O  O145  1  0.30775950  0.03800650  0.06350900  1
  O  O146  1  0.90359550  0.27030050  0.55616200  1
  O  O147  1  0.00000000  0.20858100  0.75000000  1
  O  O148  1  0.76216400  0.28357800  0.67590400  1
  O  O149  1  0.19224050  0.46199350  0.93649100  1
  O  O150  1  0.19446600  0.47353800  0.15880700  1
  O  O151  1  0.22397250  0.06517550  0.24866200  1
  O  O152  1  0.50000000  0.26939100  0.75000000  1
  O  O153  1  0.52310950  0.40008250  0.83269500  1
  O  O154  1  0.69446600  0.02646200  0.65880700  1
  O  O155  1  0.46029050  0.11633150  0.92716600  1
  O  O156  1  0.39148700  0.43333800  0.06923400  1
  O  O157  1  0.15537850  0.41791150  0.56796000  1
  O  O158  1  0.47689050  0.40008250  0.66730500  1
  O  O159  1  0.44487550  0.31578450  0.35159900  1
  O  O160  1  0.77602750  0.06517550  0.25133800  1
  O  O161  1  0.30553400  0.02646200  0.84119300  1
  O  O162  1  0.55512450  0.31578450  0.14840100  1
  O  O163  1  0.96029050  0.38366850  0.42716600  1
  O  O164  1  0.73783600  0.21642200  0.32409600  1
  O  O165  1  0.84462150  0.41791150  0.93204000  1
  O  O166  1  0.05512450  0.18421550  0.64840100  1
  O  O167  1  0.00000000  0.23060900  0.25000000  1
