# generated using pymatgen
data_KNa(BH4)2
_symmetry_space_group_name_H-M   'P 1'
_cell_length_a   4.55749218
_cell_length_b   4.55749218
_cell_length_c   22.25541047
_cell_angle_alpha   90.00000000
_cell_angle_beta   90.00000000
_cell_angle_gamma   120.00000000
_symmetry_Int_Tables_number   1
_chemical_formula_structural   KNa(BH4)2
_chemical_formula_sum   'K3 Na3 B6 H24'
_cell_volume   400.32997064
_cell_formula_units_Z   3
loop_
 _symmetry_equiv_pos_site_id
 _symmetry_equiv_pos_as_xyz
  1  'x, y, z'
loop_
 _atom_site_type_symbol
 _atom_site_label
 _atom_site_symmetry_multiplicity
 _atom_site_fract_x
 _atom_site_fract_y
 _atom_site_fract_z
 _atom_site_occupancy
  K  K0  1  0.33333333  0.66666667  0.31415267  1
  K  K1  1  0.00000000  0.00000000  0.64748600  1
  K  K2  1  0.66666667  0.33333333  0.98081933  1
  Na  Na3  1  0.00000000  0.00000000  0.14353400  1
  Na  Na4  1  0.66666667  0.33333333  0.47686733  1
  Na  Na5  1  0.33333333  0.66666667  0.81020067  1
  B  B6  1  0.33333333  0.66666667  0.07453967  1
  B  B7  1  0.66666667  0.33333333  0.22958733  1
  B  B8  1  0.00000000  0.00000000  0.40787300  1
  B  B9  1  0.33333333  0.66666667  0.56292067  1
  B  B10  1  0.66666667  0.33333333  0.74120633  1
  B  B11  1  0.00000000  0.00000000  0.89625400  1
  H  H12  1  0.64657800  0.06909800  0.21190400  1
  H  H13  1  0.33333333  0.66666667  0.12958467  1
  H  H14  1  0.42252000  0.35342200  0.21190400  1
  H  H15  1  0.18588133  0.37377867  0.05573867  1
  H  H16  1  0.93090200  0.57748000  0.21190400  1
  H  H17  1  0.66666667  0.33333333  0.28496033  1
  H  H18  1  0.18789733  0.81411867  0.05573867  1
  H  H19  1  0.62622133  0.81210267  0.05573867  1
  H  H20  1  0.31324467  0.40243133  0.54523733  1
  H  H21  1  0.00000000  0.00000000  0.46291800  1
  H  H22  1  0.08918667  0.68675533  0.54523733  1
  H  H23  1  0.85254800  0.70711200  0.38907200  1
  H  H24  1  0.59756867  0.91081333  0.54523733  1
  H  H25  1  0.33333333  0.66666667  0.61829367  1
  H  H26  1  0.85456400  0.14745200  0.38907200  1
  H  H27  1  0.29288800  0.14543600  0.38907200  1
  H  H28  1  0.97991133  0.73576467  0.87857067  1
  H  H29  1  0.66666667  0.33333333  0.79625133  1
  H  H30  1  0.75585333  0.02008867  0.87857067  1
  H  H31  1  0.51921467  0.04044533  0.72240533  1
  H  H32  1  0.26423533  0.24414667  0.87857067  1
  H  H33  1  0.00000000  0.00000000  0.95162700  1
  H  H34  1  0.52123067  0.48078533  0.72240533  1
  H  H35  1  0.95955467  0.47876933  0.72240533  1
