# generated using pymatgen
data_Cs3KRe6C6(S4N3)2
_symmetry_space_group_name_H-M   'P 1'
_cell_length_a   18.07591200
_cell_length_b   18.07591200
_cell_length_c   18.07591200
_cell_angle_alpha   90.00000000
_cell_angle_beta   90.00000000
_cell_angle_gamma   90.00000000
_symmetry_Int_Tables_number   1
_chemical_formula_structural   Cs3KRe6C6(S4N3)2
_chemical_formula_sum   'Cs24 K8 Re48 C48 S64 N48'
_cell_volume   5906.09808357
_cell_formula_units_Z   8
loop_
 _symmetry_equiv_pos_site_id
 _symmetry_equiv_pos_as_xyz
  1  'x, y, z'
loop_
 _atom_site_type_symbol
 _atom_site_label
 _atom_site_symmetry_multiplicity
 _atom_site_fract_x
 _atom_site_fract_y
 _atom_site_fract_z
 _atom_site_occupancy
  Cs  Cs0  1  0.25000000  0.44853300  0.00000000  1
  Cs  Cs1  1  0.05146700  0.50000000  0.25000000  1
  Cs  Cs2  1  0.05146700  0.00000000  0.75000000  1
  Cs  Cs3  1  0.44853300  0.00000000  0.25000000  1
  Cs  Cs4  1  0.75000000  0.44853300  0.50000000  1
  Cs  Cs5  1  0.25000000  0.05146700  0.50000000  1
  Cs  Cs6  1  0.44853300  0.50000000  0.75000000  1
  Cs  Cs7  1  0.50000000  0.75000000  0.44853300  1
  Cs  Cs8  1  0.75000000  0.05146700  0.00000000  1
  Cs  Cs9  1  0.50000000  0.25000000  0.05146700  1
  Cs  Cs10  1  0.00000000  0.25000000  0.44853300  1
  Cs  Cs11  1  0.00000000  0.75000000  0.05146700  1
  Cs  Cs12  1  0.75000000  0.94853300  0.50000000  1
  Cs  Cs13  1  0.55146700  0.00000000  0.75000000  1
  Cs  Cs14  1  0.55146700  0.50000000  0.25000000  1
  Cs  Cs15  1  0.94853300  0.50000000  0.75000000  1
  Cs  Cs16  1  0.25000000  0.94853300  0.00000000  1
  Cs  Cs17  1  0.75000000  0.55146700  0.00000000  1
  Cs  Cs18  1  0.94853300  0.00000000  0.25000000  1
  Cs  Cs19  1  0.00000000  0.25000000  0.94853300  1
  Cs  Cs20  1  0.25000000  0.55146700  0.50000000  1
  Cs  Cs21  1  0.00000000  0.75000000  0.55146700  1
  Cs  Cs22  1  0.50000000  0.75000000  0.94853300  1
  Cs  Cs23  1  0.50000000  0.25000000  0.55146700  1
  K  K24  1  0.00000000  0.50000000  0.00000000  1
  K  K25  1  0.50000000  0.00000000  0.00000000  1
  K  K26  1  0.00000000  0.00000000  0.00000000  1
  K  K27  1  0.00000000  0.00000000  0.50000000  1
  K  K28  1  0.50000000  0.00000000  0.50000000  1
  K  K29  1  0.00000000  0.50000000  0.50000000  1
  K  K30  1  0.50000000  0.50000000  0.50000000  1
  K  K31  1  0.50000000  0.50000000  0.00000000  1
  Re  Re32  1  0.18482250  0.21558350  0.67773650  1
  Re  Re33  1  0.21558350  0.82226350  0.68482250  1
  Re  Re34  1  0.71558350  0.67773650  0.31517750  1
  Re  Re35  1  0.81517750  0.28441650  0.67773650  1
  Re  Re36  1  0.31517750  0.28441650  0.82226350  1
  Re  Re37  1  0.31517750  0.21558350  0.32226350  1
  Re  Re38  1  0.78441650  0.82226350  0.18482250  1
  Re  Re39  1  0.28441650  0.67773650  0.81517750  1
  Re  Re40  1  0.21558350  0.32226350  0.31517750  1
  Re  Re41  1  0.82226350  0.31517750  0.28441650  1
  Re  Re42  1  0.28441650  0.82226350  0.31517750  1
  Re  Re43  1  0.67773650  0.81517750  0.28441650  1
  Re  Re44  1  0.31517750  0.71558350  0.67773650  1
  Re  Re45  1  0.32226350  0.31517750  0.21558350  1
  Re  Re46  1  0.17773650  0.18482250  0.28441650  1
  Re  Re47  1  0.68482250  0.21558350  0.82226350  1
  Re  Re48  1  0.67773650  0.31517750  0.71558350  1
  Re  Re49  1  0.18482250  0.78441650  0.82226350  1
  Re  Re50  1  0.28441650  0.17773650  0.18482250  1
  Re  Re51  1  0.18482250  0.28441650  0.17773650  1
  Re  Re52  1  0.67773650  0.18482250  0.21558350  1
  Re  Re53  1  0.21558350  0.67773650  0.18482250  1
  Re  Re54  1  0.82226350  0.68482250  0.21558350  1
  Re  Re55  1  0.82226350  0.18482250  0.78441650  1
  Re  Re56  1  0.68482250  0.71558350  0.17773650  1
  Re  Re57  1  0.71558350  0.32226350  0.18482250  1
  Re  Re58  1  0.21558350  0.17773650  0.81517750  1
  Re  Re59  1  0.31517750  0.78441650  0.17773650  1
  Re  Re60  1  0.81517750  0.78441650  0.32226350  1
  Re  Re61  1  0.81517750  0.71558350  0.82226350  1
  Re  Re62  1  0.28441650  0.32226350  0.68482250  1
  Re  Re63  1  0.78441650  0.17773650  0.31517750  1
  Re  Re64  1  0.71558350  0.82226350  0.81517750  1
  Re  Re65  1  0.32226350  0.81517750  0.78441650  1
  Re  Re66  1  0.78441650  0.32226350  0.81517750  1
  Re  Re67  1  0.17773650  0.31517750  0.78441650  1
  Re  Re68  1  0.81517750  0.21558350  0.17773650  1
  Re  Re69  1  0.82226350  0.81517750  0.71558350  1
  Re  Re70  1  0.67773650  0.68482250  0.78441650  1
  Re  Re71  1  0.18482250  0.71558350  0.32226350  1
  Re  Re72  1  0.17773650  0.81517750  0.21558350  1
  Re  Re73  1  0.68482250  0.28441650  0.32226350  1
  Re  Re74  1  0.78441650  0.67773650  0.68482250  1
  Re  Re75  1  0.68482250  0.78441650  0.67773650  1
  Re  Re76  1  0.17773650  0.68482250  0.71558350  1
  Re  Re77  1  0.71558350  0.17773650  0.68482250  1
  Re  Re78  1  0.32226350  0.18482250  0.71558350  1
  Re  Re79  1  0.32226350  0.68482250  0.28441650  1
  C  C80  1  0.33145400  0.60111300  0.88899000  1
  C  C81  1  0.33145400  0.89888700  0.38899000  1
  C  C82  1  0.11101000  0.16854600  0.60111300  1
  C  C83  1  0.39888700  0.38899000  0.16854600  1
  C  C84  1  0.89888700  0.61101000  0.16854600  1
  C  C85  1  0.16854600  0.39888700  0.38899000  1
  C  C86  1  0.10111300  0.11101000  0.33145400  1
  C  C87  1  0.38899000  0.66854600  0.60111300  1
  C  C88  1  0.60111300  0.88899000  0.33145400  1
  C  C89  1  0.60111300  0.38899000  0.66854600  1
  C  C90  1  0.33145400  0.10111300  0.11101000  1
  C  C91  1  0.11101000  0.83145400  0.89888700  1
  C  C92  1  0.16854600  0.60111300  0.11101000  1
  C  C93  1  0.38899000  0.16854600  0.39888700  1
  C  C94  1  0.38899000  0.33145400  0.89888700  1
  C  C95  1  0.61101000  0.16854600  0.89888700  1
  C  C96  1  0.60111300  0.11101000  0.16854600  1
  C  C97  1  0.66854600  0.60111300  0.38899000  1
  C  C98  1  0.11101000  0.33145400  0.10111300  1
  C  C99  1  0.83145400  0.89888700  0.11101000  1
  C  C100  1  0.89888700  0.11101000  0.83145400  1
  C  C101  1  0.88899000  0.33145400  0.60111300  1
  C  C102  1  0.89888700  0.38899000  0.33145400  1
  C  C103  1  0.16854600  0.89888700  0.61101000  1
  C  C104  1  0.83145400  0.10111300  0.38899000  1
  C  C105  1  0.83145400  0.39888700  0.88899000  1
  C  C106  1  0.61101000  0.66854600  0.10111300  1
  C  C107  1  0.89888700  0.88899000  0.66854600  1
  C  C108  1  0.39888700  0.11101000  0.66854600  1
  C  C109  1  0.66854600  0.89888700  0.88899000  1
  C  C110  1  0.60111300  0.61101000  0.83145400  1
  C  C111  1  0.88899000  0.16854600  0.10111300  1
  C  C112  1  0.10111300  0.38899000  0.83145400  1
  C  C113  1  0.10111300  0.88899000  0.16854600  1
  C  C114  1  0.83145400  0.60111300  0.61101000  1
  C  C115  1  0.61101000  0.33145400  0.39888700  1
  C  C116  1  0.66854600  0.10111300  0.61101000  1
  C  C117  1  0.88899000  0.66854600  0.89888700  1
  C  C118  1  0.88899000  0.83145400  0.39888700  1
  C  C119  1  0.11101000  0.66854600  0.39888700  1
  C  C120  1  0.10111300  0.61101000  0.66854600  1
  C  C121  1  0.16854600  0.10111300  0.88899000  1
  C  C122  1  0.61101000  0.83145400  0.60111300  1
  C  C123  1  0.33145400  0.39888700  0.61101000  1
  C  C124  1  0.39888700  0.61101000  0.33145400  1
  C  C125  1  0.38899000  0.83145400  0.10111300  1
  C  C126  1  0.39888700  0.88899000  0.83145400  1
  C  C127  1  0.66854600  0.39888700  0.11101000  1
  S  S128  1  0.15510200  0.15510200  0.15510200  1
  S  S129  1  0.40774700  0.21215700  0.22596900  1
  S  S130  1  0.21215700  0.77403100  0.09225300  1
  S  S131  1  0.22596900  0.59225300  0.28784300  1
  S  S132  1  0.78784300  0.27403100  0.40774700  1
  S  S133  1  0.72596900  0.40774700  0.28784300  1
  S  S134  1  0.40774700  0.78784300  0.27403100  1
  S  S135  1  0.09225300  0.71215700  0.22596900  1
  S  S136  1  0.27403100  0.90774700  0.21215700  1
  S  S137  1  0.09225300  0.21215700  0.77403100  1
  S  S138  1  0.34489800  0.34489800  0.34489800  1
  S  S139  1  0.84489800  0.15510200  0.65510200  1
  S  S140  1  0.84489800  0.34489800  0.15510200  1
  S  S141  1  0.21215700  0.22596900  0.40774700  1
  S  S142  1  0.28784300  0.22596900  0.59225300  1
  S  S143  1  0.27403100  0.40774700  0.78784300  1
  S  S144  1  0.59225300  0.28784300  0.22596900  1
  S  S145  1  0.21215700  0.27403100  0.90774700  1
  S  S146  1  0.77403100  0.09225300  0.21215700  1
  S  S147  1  0.15510200  0.84489800  0.34489800  1
  S  S148  1  0.40774700  0.28784300  0.72596900  1
  S  S149  1  0.90774700  0.21215700  0.27403100  1
  S  S150  1  0.34489800  0.15510200  0.84489800  1
  S  S151  1  0.28784300  0.27403100  0.09225300  1
  S  S152  1  0.28784300  0.72596900  0.40774700  1
  S  S153  1  0.65510200  0.84489800  0.15510200  1
  S  S154  1  0.27403100  0.09225300  0.28784300  1
  S  S155  1  0.71215700  0.22596900  0.09225300  1
  S  S156  1  0.22596900  0.09225300  0.71215700  1
  S  S157  1  0.22596900  0.40774700  0.21215700  1
  S  S158  1  0.15510200  0.65510200  0.84489800  1
  S  S159  1  0.09225300  0.28784300  0.27403100  1
  S  S160  1  0.65510200  0.65510200  0.65510200  1
  S  S161  1  0.90774700  0.71215700  0.72596900  1
  S  S162  1  0.71215700  0.27403100  0.59225300  1
  S  S163  1  0.72596900  0.09225300  0.78784300  1
  S  S164  1  0.28784300  0.77403100  0.90774700  1
  S  S165  1  0.22596900  0.90774700  0.78784300  1
  S  S166  1  0.90774700  0.28784300  0.77403100  1
  S  S167  1  0.59225300  0.21215700  0.72596900  1
  S  S168  1  0.77403100  0.40774700  0.71215700  1
  S  S169  1  0.59225300  0.71215700  0.27403100  1
  S  S170  1  0.84489800  0.84489800  0.84489800  1
  S  S171  1  0.34489800  0.65510200  0.15510200  1
  S  S172  1  0.34489800  0.84489800  0.65510200  1
  S  S173  1  0.71215700  0.72596900  0.90774700  1
  S  S174  1  0.78784300  0.72596900  0.09225300  1
  S  S175  1  0.77403100  0.90774700  0.28784300  1
  S  S176  1  0.09225300  0.78784300  0.72596900  1
  S  S177  1  0.71215700  0.77403100  0.40774700  1
  S  S178  1  0.27403100  0.59225300  0.71215700  1
  S  S179  1  0.65510200  0.34489800  0.84489800  1
  S  S180  1  0.90774700  0.78784300  0.22596900  1
  S  S181  1  0.40774700  0.71215700  0.77403100  1
  S  S182  1  0.84489800  0.65510200  0.34489800  1
  S  S183  1  0.78784300  0.77403100  0.59225300  1
  S  S184  1  0.78784300  0.22596900  0.90774700  1
  S  S185  1  0.15510200  0.34489800  0.65510200  1
  S  S186  1  0.77403100  0.59225300  0.78784300  1
  S  S187  1  0.21215700  0.72596900  0.59225300  1
  S  S188  1  0.72596900  0.59225300  0.21215700  1
  S  S189  1  0.72596900  0.90774700  0.71215700  1
  S  S190  1  0.65510200  0.15510200  0.34489800  1
  S  S191  1  0.59225300  0.78784300  0.77403100  1
  N  N192  1  0.36354950  0.56116150  0.92928950  1
  N  N193  1  0.93883850  0.42928950  0.36354950  1
  N  N194  1  0.07071050  0.13645050  0.56116150  1
  N  N195  1  0.56116150  0.42928950  0.63645050  1
  N  N196  1  0.42928950  0.36354950  0.93883850  1
  N  N197  1  0.56116150  0.07071050  0.13645050  1
  N  N198  1  0.63645050  0.56116150  0.42928950  1
  N  N199  1  0.36354950  0.93883850  0.42928950  1
  N  N200  1  0.56116150  0.92928950  0.36354950  1
  N  N201  1  0.13645050  0.93883850  0.57071050  1
  N  N202  1  0.86354950  0.93883850  0.07071050  1
  N  N203  1  0.43883850  0.42928950  0.13645050  1
  N  N204  1  0.13645050  0.56116150  0.07071050  1
  N  N205  1  0.07071050  0.86354950  0.93883850  1
  N  N206  1  0.92928950  0.36354950  0.56116150  1
  N  N207  1  0.42928950  0.13645050  0.43883850  1
  N  N208  1  0.93883850  0.57071050  0.13645050  1
  N  N209  1  0.93883850  0.07071050  0.86354950  1
  N  N210  1  0.42928950  0.63645050  0.56116150  1
  N  N211  1  0.36354950  0.06116150  0.07071050  1
  N  N212  1  0.06116150  0.07071050  0.36354950  1
  N  N213  1  0.57071050  0.13645050  0.93883850  1
  N  N214  1  0.07071050  0.36354950  0.06116150  1
  N  N215  1  0.13645050  0.43883850  0.42928950  1
  N  N216  1  0.86354950  0.06116150  0.42928950  1
  N  N217  1  0.43883850  0.92928950  0.86354950  1
  N  N218  1  0.57071050  0.63645050  0.06116150  1
  N  N219  1  0.06116150  0.92928950  0.13645050  1
  N  N220  1  0.92928950  0.86354950  0.43883850  1
  N  N221  1  0.06116150  0.57071050  0.63645050  1
  N  N222  1  0.13645050  0.06116150  0.92928950  1
  N  N223  1  0.86354950  0.43883850  0.92928950  1
  N  N224  1  0.06116150  0.42928950  0.86354950  1
  N  N225  1  0.63645050  0.43883850  0.07071050  1
  N  N226  1  0.36354950  0.43883850  0.57071050  1
  N  N227  1  0.93883850  0.92928950  0.63645050  1
  N  N228  1  0.63645050  0.06116150  0.57071050  1
  N  N229  1  0.57071050  0.36354950  0.43883850  1
  N  N230  1  0.42928950  0.86354950  0.06116150  1
  N  N231  1  0.92928950  0.63645050  0.93883850  1
  N  N232  1  0.43883850  0.07071050  0.63645050  1
  N  N233  1  0.43883850  0.57071050  0.36354950  1
  N  N234  1  0.92928950  0.13645050  0.06116150  1
  N  N235  1  0.86354950  0.56116150  0.57071050  1
  N  N236  1  0.56116150  0.57071050  0.86354950  1
  N  N237  1  0.07071050  0.63645050  0.43883850  1
  N  N238  1  0.57071050  0.86354950  0.56116150  1
  N  N239  1  0.63645050  0.93883850  0.92928950  1
