# generated using pymatgen
data_Rb5B19O31
_symmetry_space_group_name_H-M   'P 1'
_cell_length_a   18.38511600
_cell_length_b   11.70547000
_cell_length_c   13.47025930
_cell_angle_alpha   90.00000000
_cell_angle_beta   95.65047283
_cell_angle_gamma   90.00000000
_symmetry_Int_Tables_number   1
_chemical_formula_structural   Rb5B19O31
_chemical_formula_sum   'Rb20 B76 O124'
_cell_volume   2884.80079120
_cell_formula_units_Z   4
loop_
 _symmetry_equiv_pos_site_id
 _symmetry_equiv_pos_as_xyz
  1  'x, y, z'
loop_
 _atom_site_type_symbol
 _atom_site_label
 _atom_site_symmetry_multiplicity
 _atom_site_fract_x
 _atom_site_fract_y
 _atom_site_fract_z
 _atom_site_occupancy
  Rb  Rb0  1  0.67386350  0.73360150  0.67007800  1
  Rb  Rb1  1  0.32613650  0.26639850  0.32992200  1
  Rb  Rb2  1  0.66453950  0.06214650  0.68389100  1
  Rb  Rb3  1  0.67386350  0.26639850  0.17007800  1
  Rb  Rb4  1  0.00000000  0.00000000  0.00000000  1
  Rb  Rb5  1  0.66453950  0.93785350  0.18389100  1
  Rb  Rb6  1  0.00000000  0.00000000  0.50000000  1
  Rb  Rb7  1  0.33546050  0.93785350  0.31610900  1
  Rb  Rb8  1  0.33546050  0.06214650  0.81610900  1
  Rb  Rb9  1  0.32613650  0.73360150  0.82992200  1
  Rb  Rb10  1  0.17386350  0.23360150  0.67007800  1
  Rb  Rb11  1  0.82613650  0.76639850  0.32992200  1
  Rb  Rb12  1  0.16453950  0.56214650  0.68389100  1
  Rb  Rb13  1  0.17386350  0.76639850  0.17007800  1
  Rb  Rb14  1  0.50000000  0.50000000  0.00000000  1
  Rb  Rb15  1  0.16453950  0.43785350  0.18389100  1
  Rb  Rb16  1  0.50000000  0.50000000  0.50000000  1
  Rb  Rb17  1  0.83546050  0.43785350  0.31610900  1
  Rb  Rb18  1  0.83546050  0.56214650  0.81610900  1
  Rb  Rb19  1  0.82613650  0.23360150  0.82992200  1
  B  B20  1  0.25805850  0.01517950  0.53263500  1
  B  B21  1  0.83163050  0.12744650  0.53130300  1
  B  B22  1  0.51644700  0.04446700  0.87938900  1
  B  B23  1  0.50000000  0.11206500  0.25000000  1
  B  B24  1  0.51711650  0.19478850  0.00158300  1
  B  B25  1  0.50000000  0.88793500  0.75000000  1
  B  B26  1  0.06653850  0.03191750  0.24279300  1
  B  B27  1  0.36753050  0.15197050  0.57431100  1
  B  B28  1  0.93346150  0.03191750  0.25720700  1
  B  B29  1  0.17351400  0.92874600  0.64825600  1
  B  B30  1  0.65076600  0.32013000  0.80224400  1
  B  B31  1  0.48355300  0.95553300  0.12061100  1
  B  B32  1  0.82648600  0.07125400  0.35174400  1
  B  B33  1  0.16836950  0.12744650  0.96869700  1
  B  B34  1  0.25805850  0.98482050  0.03263500  1
  B  B35  1  0.34923400  0.67987000  0.19775600  1
  B  B36  1  0.93346150  0.96808250  0.75720700  1
  B  B37  1  0.17351400  0.07125400  0.14825600  1
  B  B38  1  0.74194150  0.98482050  0.46736500  1
  B  B39  1  0.57228500  0.75040300  0.87038000  1
  B  B40  1  0.06653850  0.96808250  0.74279300  1
  B  B41  1  0.51711650  0.80521150  0.50158300  1
  B  B42  1  0.48288350  0.19478850  0.49841700  1
  B  B43  1  0.42771500  0.75040300  0.62962000  1
  B  B44  1  0.16836950  0.87255350  0.46869700  1
  B  B45  1  0.63246950  0.15197050  0.92568900  1
  B  B46  1  0.48355300  0.04446700  0.62061100  1
  B  B47  1  0.48288350  0.80521150  0.99841700  1
  B  B48  1  0.65076600  0.67987000  0.30224400  1
  B  B49  1  0.63246950  0.84802950  0.42568900  1
  B  B50  1  0.82648600  0.92874600  0.85174400  1
  B  B51  1  0.34923400  0.32013000  0.69775600  1
  B  B52  1  0.51644700  0.95553300  0.37938900  1
  B  B53  1  0.74194150  0.01517950  0.96736500  1
  B  B54  1  0.36753050  0.84802950  0.07431100  1
  B  B55  1  0.83163050  0.87255350  0.03130300  1
  B  B56  1  0.57228500  0.24959700  0.37038000  1
  B  B57  1  0.42771500  0.24959700  0.12962000  1
  B  B58  1  0.75805850  0.51517950  0.53263500  1
  B  B59  1  0.33163050  0.62744650  0.53130300  1
  B  B60  1  0.01644700  0.54446700  0.87938900  1
  B  B61  1  0.00000000  0.61206500  0.25000000  1
  B  B62  1  0.01711650  0.69478850  0.00158300  1
  B  B63  1  0.00000000  0.38793500  0.75000000  1
  B  B64  1  0.56653850  0.53191750  0.24279300  1
  B  B65  1  0.86753050  0.65197050  0.57431100  1
  B  B66  1  0.43346150  0.53191750  0.25720700  1
  B  B67  1  0.67351400  0.42874600  0.64825600  1
  B  B68  1  0.15076600  0.82013000  0.80224400  1
  B  B69  1  0.98355300  0.45553300  0.12061100  1
  B  B70  1  0.32648600  0.57125400  0.35174400  1
  B  B71  1  0.66836950  0.62744650  0.96869700  1
  B  B72  1  0.75805850  0.48482050  0.03263500  1
  B  B73  1  0.84923400  0.17987000  0.19775600  1
  B  B74  1  0.43346150  0.46808250  0.75720700  1
  B  B75  1  0.67351400  0.57125400  0.14825600  1
  B  B76  1  0.24194150  0.48482050  0.46736500  1
  B  B77  1  0.07228500  0.25040300  0.87038000  1
  B  B78  1  0.56653850  0.46808250  0.74279300  1
  B  B79  1  0.01711650  0.30521150  0.50158300  1
  B  B80  1  0.98288350  0.69478850  0.49841700  1
  B  B81  1  0.92771500  0.25040300  0.62962000  1
  B  B82  1  0.66836950  0.37255350  0.46869700  1
  B  B83  1  0.13246950  0.65197050  0.92568900  1
  B  B84  1  0.98355300  0.54446700  0.62061100  1
  B  B85  1  0.98288350  0.30521150  0.99841700  1
  B  B86  1  0.15076600  0.17987000  0.30224400  1
  B  B87  1  0.13246950  0.34802950  0.42568900  1
  B  B88  1  0.32648600  0.42874600  0.85174400  1
  B  B89  1  0.84923400  0.82013000  0.69775600  1
  B  B90  1  0.01644700  0.45553300  0.37938900  1
  B  B91  1  0.24194150  0.51517950  0.96736500  1
  B  B92  1  0.86753050  0.34802950  0.07431100  1
  B  B93  1  0.33163050  0.37255350  0.03130300  1
  B  B94  1  0.07228500  0.74959700  0.37038000  1
  B  B95  1  0.92771500  0.74959700  0.12962000  1
  O  O96  1  0.36324200  0.31466600  0.11487100  1
  O  O97  1  0.14596550  0.85827950  0.56077200  1
  O  O98  1  0.41328000  0.07032700  0.63613900  1
  O  O99  1  0.52369600  0.95909100  0.66870200  1
  O  O100  1  0.11039600  0.00198900  0.67281700  1
  O  O101  1  0.19681650  0.14689150  0.23258900  1
  O  O102  1  0.77556150  0.05137650  0.54732700  1
  O  O103  1  0.58509100  0.62019200  0.30956100  1
  O  O104  1  0.14596550  0.14172050  0.06077200  1
  O  O105  1  0.47630400  0.04090900  0.33129800  1
  O  O106  1  0.80318350  0.14689150  0.26741100  1
  O  O107  1  0.58843800  0.21875900  0.99158200  1
  O  O108  1  0.41490900  0.62019200  0.19043900  1
  O  O109  1  0.41156200  0.21875900  0.50841800  1
  O  O110  1  0.36324200  0.68533400  0.61487100  1
  O  O111  1  0.51942600  0.73711400  0.93581300  1
  O  O112  1  0.48057400  0.26288600  0.06418700  1
  O  O113  1  0.48057400  0.73711400  0.56418700  1
  O  O114  1  0.88960400  0.99801100  0.32718300  1
  O  O115  1  0.32950800  0.77183800  0.13998300  1
  O  O116  1  0.77556150  0.94862350  0.04732700  1
  O  O117  1  0.58509100  0.37980800  0.80956100  1
  O  O118  1  0.67049200  0.77183800  0.36001700  1
  O  O119  1  0.41156200  0.78124100  0.00841800  1
  O  O120  1  0.76587700  0.00421000  0.87420200  1
  O  O121  1  0.51942600  0.26288600  0.43581300  1
  O  O122  1  0.85403450  0.14172050  0.43922800  1
  O  O123  1  0.76587700  0.99579000  0.37420200  1
  O  O124  1  0.63675800  0.68533400  0.88512900  1
  O  O125  1  0.50000000  0.47767300  0.25000000  1
  O  O126  1  0.31157450  0.91260950  0.00873900  1
  O  O127  1  0.56373600  0.81533700  0.78698400  1
  O  O128  1  0.41490900  0.37980800  0.69043900  1
  O  O129  1  0.23412300  0.00421000  0.62579800  1
  O  O130  1  0.47630400  0.95909100  0.83129800  1
  O  O131  1  0.56373600  0.18466300  0.28698400  1
  O  O132  1  0.22443850  0.05137650  0.95267300  1
  O  O133  1  0.43626400  0.81533700  0.71301600  1
  O  O134  1  0.52119200  0.11059400  0.55430800  1
  O  O135  1  0.52369600  0.04090900  0.16870200  1
  O  O136  1  0.58672000  0.07032700  0.86386100  1
  O  O137  1  0.68842550  0.08739050  0.99126100  1
  O  O138  1  0.23412300  0.99579000  0.12579800  1
  O  O139  1  0.31157450  0.08739050  0.50873900  1
  O  O140  1  0.63675800  0.31466600  0.38512900  1
  O  O141  1  0.67049200  0.22816200  0.86001700  1
  O  O142  1  0.41328000  0.92967300  0.13613900  1
  O  O143  1  0.19681650  0.85310850  0.73258900  1
  O  O144  1  0.32950800  0.22816200  0.63998300  1
  O  O145  1  0.50000000  0.52232700  0.75000000  1
  O  O146  1  0.88960400  0.00198900  0.82718300  1
  O  O147  1  0.85403450  0.85827950  0.93922800  1
  O  O148  1  0.11039600  0.99801100  0.17281700  1
  O  O149  1  0.47880800  0.88940600  0.44569200  1
  O  O150  1  0.80318350  0.85310850  0.76741100  1
  O  O151  1  0.58672000  0.92967300  0.36386100  1
  O  O152  1  0.43626400  0.18466300  0.21301600  1
  O  O153  1  0.68842550  0.91260950  0.49126100  1
  O  O154  1  0.58843800  0.78124100  0.49158200  1
  O  O155  1  0.22443850  0.94862350  0.45267300  1
  O  O156  1  0.52119200  0.88940600  0.05430800  1
  O  O157  1  0.47880800  0.11059400  0.94569200  1
  O  O158  1  0.86324200  0.81466600  0.11487100  1
  O  O159  1  0.64596550  0.35827950  0.56077200  1
  O  O160  1  0.91328000  0.57032700  0.63613900  1
  O  O161  1  0.02369600  0.45909100  0.66870200  1
  O  O162  1  0.61039600  0.50198900  0.67281700  1
  O  O163  1  0.69681650  0.64689150  0.23258900  1
  O  O164  1  0.27556150  0.55137650  0.54732700  1
  O  O165  1  0.08509100  0.12019200  0.30956100  1
  O  O166  1  0.64596550  0.64172050  0.06077200  1
  O  O167  1  0.97630400  0.54090900  0.33129800  1
  O  O168  1  0.30318350  0.64689150  0.26741100  1
  O  O169  1  0.08843800  0.71875900  0.99158200  1
  O  O170  1  0.91490900  0.12019200  0.19043900  1
  O  O171  1  0.91156200  0.71875900  0.50841800  1
  O  O172  1  0.86324200  0.18533400  0.61487100  1
  O  O173  1  0.01942600  0.23711400  0.93581300  1
  O  O174  1  0.98057400  0.76288600  0.06418700  1
  O  O175  1  0.98057400  0.23711400  0.56418700  1
  O  O176  1  0.38960400  0.49801100  0.32718300  1
  O  O177  1  0.82950800  0.27183800  0.13998300  1
  O  O178  1  0.27556150  0.44862350  0.04732700  1
  O  O179  1  0.08509100  0.87980800  0.80956100  1
  O  O180  1  0.17049200  0.27183800  0.36001700  1
  O  O181  1  0.91156200  0.28124100  0.00841800  1
  O  O182  1  0.26587700  0.50421000  0.87420200  1
  O  O183  1  0.01942600  0.76288600  0.43581300  1
  O  O184  1  0.35403450  0.64172050  0.43922800  1
  O  O185  1  0.26587700  0.49579000  0.37420200  1
  O  O186  1  0.13675800  0.18533400  0.88512900  1
  O  O187  1  0.00000000  0.97767300  0.25000000  1
  O  O188  1  0.81157450  0.41260950  0.00873900  1
  O  O189  1  0.06373600  0.31533700  0.78698400  1
  O  O190  1  0.91490900  0.87980800  0.69043900  1
  O  O191  1  0.73412300  0.50421000  0.62579800  1
  O  O192  1  0.97630400  0.45909100  0.83129800  1
  O  O193  1  0.06373600  0.68466300  0.28698400  1
  O  O194  1  0.72443850  0.55137650  0.95267300  1
  O  O195  1  0.93626400  0.31533700  0.71301600  1
  O  O196  1  0.02119200  0.61059400  0.55430800  1
  O  O197  1  0.02369600  0.54090900  0.16870200  1
  O  O198  1  0.08672000  0.57032700  0.86386100  1
  O  O199  1  0.18842550  0.58739050  0.99126100  1
  O  O200  1  0.73412300  0.49579000  0.12579800  1
  O  O201  1  0.81157450  0.58739050  0.50873900  1
  O  O202  1  0.13675800  0.81466600  0.38512900  1
  O  O203  1  0.17049200  0.72816200  0.86001700  1
  O  O204  1  0.91328000  0.42967300  0.13613900  1
  O  O205  1  0.69681650  0.35310850  0.73258900  1
  O  O206  1  0.82950800  0.72816200  0.63998300  1
  O  O207  1  0.00000000  0.02232700  0.75000000  1
  O  O208  1  0.38960400  0.50198900  0.82718300  1
  O  O209  1  0.35403450  0.35827950  0.93922800  1
  O  O210  1  0.61039600  0.49801100  0.17281700  1
  O  O211  1  0.97880800  0.38940600  0.44569200  1
  O  O212  1  0.30318350  0.35310850  0.76741100  1
  O  O213  1  0.08672000  0.42967300  0.36386100  1
  O  O214  1  0.93626400  0.68466300  0.21301600  1
  O  O215  1  0.18842550  0.41260950  0.49126100  1
  O  O216  1  0.08843800  0.28124100  0.49158200  1
  O  O217  1  0.72443850  0.44862350  0.45267300  1
  O  O218  1  0.02119200  0.38940600  0.05430800  1
  O  O219  1  0.97880800  0.61059400  0.94569200  1
