# generated using pymatgen
data_Ba4B2N4O
_symmetry_space_group_name_H-M   'P 1'
_cell_length_a   7.38519800
_cell_length_b   15.90787800
_cell_length_c   7.41952400
_cell_angle_alpha   90.00000000
_cell_angle_beta   90.00000000
_cell_angle_gamma   90.00000000
_symmetry_Int_Tables_number   1
_chemical_formula_structural   Ba4B2N4O
_chemical_formula_sum   'Ba16 B8 N16 O4'
_cell_volume   871.66666779
_cell_formula_units_Z   4
loop_
 _symmetry_equiv_pos_site_id
 _symmetry_equiv_pos_as_xyz
  1  'x, y, z'
loop_
 _atom_site_type_symbol
 _atom_site_label
 _atom_site_symmetry_multiplicity
 _atom_site_fract_x
 _atom_site_fract_y
 _atom_site_fract_z
 _atom_site_occupancy
  Ba  Ba0  1  0.00000000  0.67426600  0.50000000  1
  Ba  Ba1  1  0.69319400  0.00000000  0.80679100  1
  Ba  Ba2  1  0.30680600  0.00000000  0.19320900  1
  Ba  Ba3  1  0.19319400  0.00000000  0.69320900  1
  Ba  Ba4  1  0.50000000  0.67426600  0.00000000  1
  Ba  Ba5  1  0.50000000  0.82573400  0.50000000  1
  Ba  Ba6  1  0.80680600  0.00000000  0.30679100  1
  Ba  Ba7  1  0.00000000  0.82573400  0.00000000  1
  Ba  Ba8  1  0.50000000  0.17426600  0.50000000  1
  Ba  Ba9  1  0.19319400  0.50000000  0.80679100  1
  Ba  Ba10  1  0.80680600  0.50000000  0.19320900  1
  Ba  Ba11  1  0.69319400  0.50000000  0.69320900  1
  Ba  Ba12  1  0.00000000  0.17426600  0.00000000  1
  Ba  Ba13  1  0.00000000  0.32573400  0.50000000  1
  Ba  Ba14  1  0.30680600  0.50000000  0.30679100  1
  Ba  Ba15  1  0.50000000  0.32573400  0.00000000  1
  B  B16  1  0.00000000  0.63732600  0.00000000  1
  B  B17  1  0.50000000  0.86267400  0.00000000  1
  B  B18  1  0.00000000  0.86267400  0.50000000  1
  B  B19  1  0.50000000  0.63732600  0.50000000  1
  B  B20  1  0.50000000  0.13732600  0.00000000  1
  B  B21  1  0.00000000  0.36267400  0.00000000  1
  B  B22  1  0.50000000  0.36267400  0.50000000  1
  B  B23  1  0.00000000  0.13732600  0.50000000  1
  N  N24  1  0.62903900  0.63413500  0.37146900  1
  N  N25  1  0.62903900  0.86586500  0.12853100  1
  N  N26  1  0.12903900  0.63413500  0.12853100  1
  N  N27  1  0.37096100  0.86586500  0.87146900  1
  N  N28  1  0.87096100  0.86586500  0.62853100  1
  N  N29  1  0.12903900  0.86586500  0.37146900  1
  N  N30  1  0.37096100  0.63413500  0.62853100  1
  N  N31  1  0.87096100  0.63413500  0.87146900  1
  N  N32  1  0.12903900  0.13413500  0.37146900  1
  N  N33  1  0.12903900  0.36586500  0.12853100  1
  N  N34  1  0.62903900  0.13413500  0.12853100  1
  N  N35  1  0.87096100  0.36586500  0.87146900  1
  N  N36  1  0.37096100  0.36586500  0.62853100  1
  N  N37  1  0.62903900  0.36586500  0.37146900  1
  N  N38  1  0.87096100  0.13413500  0.62853100  1
  N  N39  1  0.37096100  0.13413500  0.87146900  1
  O  O40  1  0.50000000  0.00000000  0.50000000  1
  O  O41  1  0.00000000  0.00000000  0.00000000  1
  O  O42  1  0.00000000  0.50000000  0.50000000  1
  O  O43  1  0.50000000  0.50000000  0.00000000  1
