# generated using pymatgen
data_Na2Sr7Al6F34
_symmetry_space_group_name_H-M   'P 1'
_cell_length_a   16.25989600
_cell_length_b   11.00011800
_cell_length_c   7.37441972
_cell_angle_alpha   90.00000000
_cell_angle_beta   101.33650328
_cell_angle_gamma   90.00000000
_symmetry_Int_Tables_number   1
_chemical_formula_structural   Na2Sr7Al6F34
_chemical_formula_sum   'Na4 Sr14 Al12 F68'
_cell_volume   1293.26034339
_cell_formula_units_Z   2
loop_
 _symmetry_equiv_pos_site_id
 _symmetry_equiv_pos_as_xyz
  1  'x, y, z'
loop_
 _atom_site_type_symbol
 _atom_site_label
 _atom_site_symmetry_multiplicity
 _atom_site_fract_x
 _atom_site_fract_y
 _atom_site_fract_z
 _atom_site_occupancy
  Na  Na0  1  0.50000000  0.00000000  0.00000000  1
  Na  Na1  1  0.50000000  0.00000000  0.50000000  1
  Na  Na2  1  0.00000000  0.50000000  0.00000000  1
  Na  Na3  1  0.00000000  0.50000000  0.50000000  1
  Sr  Sr4  1  0.64563400  0.80256100  0.30272400  1
  Sr  Sr5  1  0.26025400  0.00000000  0.11825800  1
  Sr  Sr6  1  0.73974600  0.00000000  0.88174200  1
  Sr  Sr7  1  0.35436600  0.80256100  0.69727600  1
  Sr  Sr8  1  0.64563400  0.19743900  0.30272400  1
  Sr  Sr9  1  0.35436600  0.19743900  0.69727600  1
  Sr  Sr10  1  0.00000000  0.00000000  0.00000000  1
  Sr  Sr11  1  0.14563400  0.30256100  0.30272400  1
  Sr  Sr12  1  0.76025400  0.50000000  0.11825800  1
  Sr  Sr13  1  0.23974600  0.50000000  0.88174200  1
  Sr  Sr14  1  0.85436600  0.30256100  0.69727600  1
  Sr  Sr15  1  0.14563400  0.69743900  0.30272400  1
  Sr  Sr16  1  0.85436600  0.69743900  0.69727600  1
  Sr  Sr17  1  0.50000000  0.50000000  0.00000000  1
  Al  Al18  1  0.61020600  0.25722700  0.79817900  1
  Al  Al19  1  0.83168700  0.00000000  0.45657400  1
  Al  Al20  1  0.38979400  0.74277300  0.20182100  1
  Al  Al21  1  0.61020600  0.74277300  0.79817900  1
  Al  Al22  1  0.16831300  0.00000000  0.54342600  1
  Al  Al23  1  0.38979400  0.25722700  0.20182100  1
  Al  Al24  1  0.11020600  0.75722700  0.79817900  1
  Al  Al25  1  0.33168700  0.50000000  0.45657400  1
  Al  Al26  1  0.88979400  0.24277300  0.20182100  1
  Al  Al27  1  0.11020600  0.24277300  0.79817900  1
  Al  Al28  1  0.66831300  0.50000000  0.54342600  1
  Al  Al29  1  0.88979400  0.75722700  0.20182100  1
  F  F30  1  0.49986250  0.72176250  0.79496400  1
  F  F31  1  0.39381700  0.61684200  0.37069800  1
  F  F32  1  0.50013750  0.27823750  0.20503600  1
  F  F33  1  0.23102400  0.88301800  0.45790700  1
  F  F34  1  0.72222800  0.23997100  0.81190500  1
  F  F35  1  0.76897600  0.88301800  0.54209300  1
  F  F36  1  0.24586900  0.00000000  0.76289100  1
  F  F37  1  0.75413100  0.00000000  0.23710900  1
  F  F38  1  0.61653650  0.13071950  0.96438300  1
  F  F39  1  0.40541450  0.14978650  0.39135900  1
  F  F40  1  0.39381700  0.38315800  0.37069800  1
  F  F41  1  0.36959150  0.63180250  0.00718100  1
  F  F42  1  0.60618300  0.61684200  0.62930200  1
  F  F43  1  0.38346350  0.86928050  0.03561700  1
  F  F44  1  0.63040850  0.63180250  0.99281900  1
  F  F45  1  0.36959150  0.36819750  0.00718100  1
  F  F46  1  0.72222800  0.76002900  0.81190500  1
  F  F47  1  0.60618300  0.38315800  0.62930200  1
  F  F48  1  0.76897600  0.11698200  0.54209300  1
  F  F49  1  0.59458550  0.14978650  0.60864100  1
  F  F50  1  0.50013750  0.72176250  0.20503600  1
  F  F51  1  0.89869000  0.00000000  0.68351200  1
  F  F52  1  0.27777200  0.76002900  0.18809500  1
  F  F53  1  0.10131000  0.00000000  0.31648800  1
  F  F54  1  0.40541450  0.85021350  0.39135900  1
  F  F55  1  0.63040850  0.36819750  0.99281900  1
  F  F56  1  0.23102400  0.11698200  0.45790700  1
  F  F57  1  0.27777200  0.23997100  0.18809500  1
  F  F58  1  0.38346350  0.13071950  0.03561700  1
  F  F59  1  0.61653650  0.86928050  0.96438300  1
  F  F60  1  0.49986250  0.27823750  0.79496400  1
  F  F61  1  0.59458550  0.85021350  0.60864100  1
  F  F62  1  0.57722200  0.00000000  0.28060000  1
  F  F63  1  0.42277800  0.00000000  0.71940000  1
  F  F64  1  0.99986250  0.22176250  0.79496400  1
  F  F65  1  0.89381700  0.11684200  0.37069800  1
  F  F66  1  0.00013750  0.77823750  0.20503600  1
  F  F67  1  0.73102400  0.38301800  0.45790700  1
  F  F68  1  0.22222800  0.73997100  0.81190500  1
  F  F69  1  0.26897600  0.38301800  0.54209300  1
  F  F70  1  0.74586900  0.50000000  0.76289100  1
  F  F71  1  0.25413100  0.50000000  0.23710900  1
  F  F72  1  0.11653650  0.63071950  0.96438300  1
  F  F73  1  0.90541450  0.64978650  0.39135900  1
  F  F74  1  0.89381700  0.88315800  0.37069800  1
  F  F75  1  0.86959150  0.13180250  0.00718100  1
  F  F76  1  0.10618300  0.11684200  0.62930200  1
  F  F77  1  0.88346350  0.36928050  0.03561700  1
  F  F78  1  0.13040850  0.13180250  0.99281900  1
  F  F79  1  0.86959150  0.86819750  0.00718100  1
  F  F80  1  0.22222800  0.26002900  0.81190500  1
  F  F81  1  0.10618300  0.88315800  0.62930200  1
  F  F82  1  0.26897600  0.61698200  0.54209300  1
  F  F83  1  0.09458550  0.64978650  0.60864100  1
  F  F84  1  0.00013750  0.22176250  0.20503600  1
  F  F85  1  0.39869000  0.50000000  0.68351200  1
  F  F86  1  0.77777200  0.26002900  0.18809500  1
  F  F87  1  0.60131000  0.50000000  0.31648800  1
  F  F88  1  0.90541450  0.35021350  0.39135900  1
  F  F89  1  0.13040850  0.86819750  0.99281900  1
  F  F90  1  0.73102400  0.61698200  0.45790700  1
  F  F91  1  0.77777200  0.73997100  0.18809500  1
  F  F92  1  0.88346350  0.63071950  0.03561700  1
  F  F93  1  0.11653650  0.36928050  0.96438300  1
  F  F94  1  0.99986250  0.77823750  0.79496400  1
  F  F95  1  0.09458550  0.35021350  0.60864100  1
  F  F96  1  0.07722200  0.50000000  0.28060000  1
  F  F97  1  0.92277800  0.50000000  0.71940000  1
