# generated using pymatgen
data_Te7(OF5)6
_symmetry_space_group_name_H-M   'P 1'
_cell_length_a   9.10331900
_cell_length_b   9.31288945
_cell_length_c   9.35085831
_cell_angle_alpha   115.43609168
_cell_angle_beta   100.22954045
_cell_angle_gamma   99.90437359
_symmetry_Int_Tables_number   1
_chemical_formula_structural   Te7(OF5)6
_chemical_formula_sum   'Te7 O6 F30'
_cell_volume   676.47179619
_cell_formula_units_Z   1
loop_
 _symmetry_equiv_pos_site_id
 _symmetry_equiv_pos_as_xyz
  1  'x, y, z'
loop_
 _atom_site_type_symbol
 _atom_site_label
 _atom_site_symmetry_multiplicity
 _atom_site_fract_x
 _atom_site_fract_y
 _atom_site_fract_z
 _atom_site_occupancy
  Te  Te0  1  0.00000000  0.00000000  0.00000000  1
  Te  Te1  1  0.24868700  0.39424500  0.08436300  1
  Te  Te2  1  0.75131300  0.60575500  0.91563700  1
  Te  Te3  1  0.77379100  0.24215200  0.23913100  1
  Te  Te4  1  0.22620900  0.75784800  0.76086900  1
  Te  Te5  1  0.24174500  0.07496600  0.39284200  1
  Te  Te6  1  0.75825500  0.92503400  0.60715800  1
  O  O7  1  0.05918700  0.22013700  0.01680000  1
  O  O8  1  0.94081300  0.77986300  0.98320000  1
  O  O9  1  0.88367400  0.07491800  0.16232700  1
  O  O10  1  0.11632600  0.92508200  0.83767300  1
  O  O11  1  0.18847500  0.05417500  0.17293800  1
  O  O12  1  0.81152500  0.94582500  0.82706200  1
  F  F13  1  0.13118800  0.54524600  0.14031400  1
  F  F14  1  0.86881200  0.45475400  0.85968600  1
  F  F15  1  0.29687300  0.42707300  0.30098600  1
  F  F16  1  0.70312700  0.57292700  0.69901400  1
  F  F17  1  0.36965400  0.24607600  0.02887600  1
  F  F18  1  0.63034600  0.75392400  0.97112400  1
  F  F19  1  0.20543600  0.37014300  0.87120400  1
  F  F20  1  0.79456400  0.62985700  0.12879600  1
  F  F21  1  0.42463700  0.56765100  0.14717900  1
  F  F22  1  0.57536300  0.43234900  0.85282100  1
  F  F23  1  0.82000100  0.24393400  0.44252500  1
  F  F24  1  0.17999900  0.75606600  0.55747500  1
  F  F25  1  0.95441200  0.41486400  0.31404700  1
  F  F26  1  0.04558800  0.58513600  0.68595300  1
  F  F27  1  0.72482000  0.24411800  0.03723600  1
  F  F28  1  0.27518000  0.75588200  0.96276400  1
  F  F29  1  0.59067400  0.07485100  0.16967800  1
  F  F30  1  0.40932600  0.92514900  0.83032200  1
  F  F31  1  0.66597700  0.39889000  0.32013600  1
  F  F32  1  0.33402300  0.60111000  0.67986400  1
  F  F33  1  0.42878100  0.22727100  0.43859500  1
  F  F34  1  0.57121900  0.77272900  0.56140500  1
  F  F35  1  0.15046900  0.24757100  0.47557500  1
  F  F36  1  0.84953100  0.75242900  0.52442500  1
  F  F37  1  0.05623600  0.92124200  0.34993100  1
  F  F38  1  0.94376400  0.07875800  0.65006900  1
  F  F39  1  0.33713200  0.90488300  0.31924700  1
  F  F40  1  0.66286800  0.09511700  0.68075300  1
  F  F41  1  0.30368100  0.09939000  0.60504300  1
  F  F42  1  0.69631900  0.90061000  0.39495700  1
