# generated using pymatgen
data_Rb2AgAu3I8
_symmetry_space_group_name_H-M   'P 1'
_cell_length_a   13.75675800
_cell_length_b   7.66835200
_cell_length_c   21.96264451
_cell_angle_alpha   90.00000000
_cell_angle_beta   101.54405249
_cell_angle_gamma   90.00000000
_symmetry_Int_Tables_number   1
_chemical_formula_structural   Rb2AgAu3I8
_chemical_formula_sum   'Rb8 Ag4 Au12 I32'
_cell_volume   2270.00810293
_cell_formula_units_Z   4
loop_
 _symmetry_equiv_pos_site_id
 _symmetry_equiv_pos_as_xyz
  1  'x, y, z'
loop_
 _atom_site_type_symbol
 _atom_site_label
 _atom_site_symmetry_multiplicity
 _atom_site_fract_x
 _atom_site_fract_y
 _atom_site_fract_z
 _atom_site_occupancy
  Rb  Rb0  1  0.79614350  0.46947750  0.40424400  1
  Rb  Rb1  1  0.79614350  0.53052250  0.90424400  1
  Rb  Rb2  1  0.70385650  0.03052250  0.59575600  1
  Rb  Rb3  1  0.70385650  0.96947750  0.09575600  1
  Rb  Rb4  1  0.29614350  0.96947750  0.40424400  1
  Rb  Rb5  1  0.29614350  0.03052250  0.90424400  1
  Rb  Rb6  1  0.20385650  0.53052250  0.59575600  1
  Rb  Rb7  1  0.20385650  0.46947750  0.09575600  1
  Ag  Ag8  1  0.00000000  0.01713400  0.75000000  1
  Ag  Ag9  1  0.00000000  0.98286600  0.25000000  1
  Ag  Ag10  1  0.50000000  0.51713400  0.75000000  1
  Ag  Ag11  1  0.50000000  0.48286600  0.25000000  1
  Au  Au12  1  0.90311400  0.50108600  0.19916500  1
  Au  Au13  1  0.59688600  0.99891400  0.80083500  1
  Au  Au14  1  0.00000000  0.00000000  0.00000000  1
  Au  Au15  1  0.59688600  0.00108600  0.30083500  1
  Au  Au16  1  0.90311400  0.49891400  0.69916500  1
  Au  Au17  1  0.00000000  0.00000000  0.50000000  1
  Au  Au18  1  0.40311400  0.00108600  0.19916500  1
  Au  Au19  1  0.09688600  0.49891400  0.80083500  1
  Au  Au20  1  0.50000000  0.50000000  0.00000000  1
  Au  Au21  1  0.09688600  0.50108600  0.30083500  1
  Au  Au22  1  0.40311400  0.99891400  0.69916500  1
  Au  Au23  1  0.50000000  0.50000000  0.50000000  1
  I  I24  1  0.82988600  0.23520300  0.75050800  1
  I  I25  1  0.68970200  0.53205600  0.56034300  1
  I  I26  1  0.82988600  0.76479700  0.25050800  1
  I  I27  1  0.96311950  0.77234150  0.64641000  1
  I  I28  1  0.81029800  0.03205600  0.93965700  1
  I  I29  1  0.53688050  0.72765850  0.35359000  1
  I  I30  1  0.54968100  0.22239300  0.43715300  1
  I  I31  1  0.68970200  0.46794400  0.06034300  1
  I  I32  1  0.67011400  0.73520300  0.74949200  1
  I  I33  1  0.54968100  0.77760700  0.93715300  1
  I  I34  1  0.81029800  0.96794400  0.43965700  1
  I  I35  1  0.95031900  0.27760700  0.56284700  1
  I  I36  1  0.53688050  0.27234150  0.85359000  1
  I  I37  1  0.95031900  0.72239300  0.06284700  1
  I  I38  1  0.67011400  0.26479700  0.24949200  1
  I  I39  1  0.96311950  0.22765850  0.14641000  1
  I  I40  1  0.32988600  0.73520300  0.75050800  1
  I  I41  1  0.18970200  0.03205600  0.56034300  1
  I  I42  1  0.32988600  0.26479700  0.25050800  1
  I  I43  1  0.46311950  0.27234150  0.64641000  1
  I  I44  1  0.31029800  0.53205600  0.93965700  1
  I  I45  1  0.03688050  0.22765850  0.35359000  1
  I  I46  1  0.04968100  0.72239300  0.43715300  1
  I  I47  1  0.18970200  0.96794400  0.06034300  1
  I  I48  1  0.17011400  0.23520300  0.74949200  1
  I  I49  1  0.04968100  0.27760700  0.93715300  1
  I  I50  1  0.31029800  0.46794400  0.43965700  1
  I  I51  1  0.45031900  0.77760700  0.56284700  1
  I  I52  1  0.03688050  0.77234150  0.85359000  1
  I  I53  1  0.45031900  0.22239300  0.06284700  1
  I  I54  1  0.17011400  0.76479700  0.24949200  1
  I  I55  1  0.46311950  0.72765850  0.14641000  1
