# generated using pymatgen
data_NaY(IO3)4
_symmetry_space_group_name_H-M   'P 1'
_cell_length_a   31.74148200
_cell_length_b   5.65320600
_cell_length_c   12.64819269
_cell_angle_alpha   90.00000000
_cell_angle_beta   90.82579913
_cell_angle_gamma   90.00000000
_symmetry_Int_Tables_number   1
_chemical_formula_structural   NaY(IO3)4
_chemical_formula_sum   'Na8 Y8 I32 O96'
_cell_volume   2269.37034083
_cell_formula_units_Z   8
loop_
 _symmetry_equiv_pos_site_id
 _symmetry_equiv_pos_as_xyz
  1  'x, y, z'
loop_
 _atom_site_type_symbol
 _atom_site_label
 _atom_site_symmetry_multiplicity
 _atom_site_fract_x
 _atom_site_fract_y
 _atom_site_fract_z
 _atom_site_occupancy
  Na  Na0  1  0.68603450  0.27956850  0.97068600  1
  Na  Na1  1  0.61108750  0.77297050  0.06507500  1
  Na  Na2  1  0.68603450  0.72043150  0.47068600  1
  Na  Na3  1  0.61108750  0.22702950  0.56507500  1
  Na  Na4  1  0.18603450  0.77956850  0.97068600  1
  Na  Na5  1  0.11108750  0.27297050  0.06507500  1
  Na  Na6  1  0.18603450  0.22043150  0.47068600  1
  Na  Na7  1  0.11108750  0.72702950  0.56507500  1
  Y  Y8  1  0.72689250  0.28903150  0.67620700  1
  Y  Y9  1  0.72689250  0.71096850  0.17620700  1
  Y  Y10  1  0.52248550  0.31024150  0.17048700  1
  Y  Y11  1  0.52248550  0.68975850  0.67048700  1
  Y  Y12  1  0.22689250  0.78903150  0.67620700  1
  Y  Y13  1  0.22689250  0.21096850  0.17620700  1
  Y  Y14  1  0.02248550  0.81024150  0.17048700  1
  Y  Y15  1  0.02248550  0.18975850  0.67048700  1
  I  I16  1  0.58447950  0.69897950  0.37554900  1
  I  I17  1  0.50409900  0.79887300  0.96450800  1
  I  I18  1  0.50409900  0.20112700  0.46450800  1
  I  I19  1  0.94526600  0.73469100  0.76895700  1
  I  I20  1  0.64252450  0.24194850  0.21699400  1
  I  I21  1  0.80305200  0.24106500  0.08431800  1
  I  I22  1  0.74683400  0.80773100  0.88036500  1
  I  I23  1  0.94526600  0.26530900  0.26895700  1
  I  I24  1  0.64252450  0.75805150  0.71699400  1
  I  I25  1  0.84246300  0.68443000  0.31250300  1
  I  I26  1  0.90582650  0.82670550  0.03816900  1
  I  I27  1  0.90582650  0.17329450  0.53816900  1
  I  I28  1  0.74683400  0.19226900  0.38036500  1
  I  I29  1  0.84246300  0.31557000  0.81250300  1
  I  I30  1  0.58447950  0.30102050  0.87554900  1
  I  I31  1  0.80305200  0.75893500  0.58431800  1
  I  I32  1  0.08447950  0.19897950  0.37554900  1
  I  I33  1  0.00409900  0.29887300  0.96450800  1
  I  I34  1  0.00409900  0.70112700  0.46450800  1
  I  I35  1  0.44526600  0.23469100  0.76895700  1
  I  I36  1  0.14252450  0.74194850  0.21699400  1
  I  I37  1  0.30305200  0.74106500  0.08431800  1
  I  I38  1  0.24683400  0.30773100  0.88036500  1
  I  I39  1  0.44526600  0.76530900  0.26895700  1
  I  I40  1  0.14252450  0.25805150  0.71699400  1
  I  I41  1  0.34246300  0.18443000  0.31250300  1
  I  I42  1  0.40582650  0.32670550  0.03816900  1
  I  I43  1  0.40582650  0.67329450  0.53816900  1
  I  I44  1  0.24683400  0.69226900  0.38036500  1
  I  I45  1  0.34246300  0.81557000  0.81250300  1
  I  I46  1  0.08447950  0.80102050  0.87554900  1
  I  I47  1  0.30305200  0.25893500  0.58431800  1
  O  O48  1  0.62288100  0.51889600  0.92029400  1
  O  O49  1  0.67129600  0.99721900  0.65095000  1
  O  O50  1  0.72344800  0.91449400  0.33315000  1
  O  O51  1  0.90280850  0.99986350  0.91608500  1
  O  O52  1  0.87998200  0.52404800  0.23056800  1
  O  O53  1  0.57949050  0.60382350  0.23585200  1
  O  O54  1  0.87037600  0.99775600  0.12227700  1
  O  O55  1  0.84338650  0.50262550  0.43227200  1
  O  O56  1  0.53485750  0.17070950  0.34281600  1
  O  O57  1  0.95596000  0.05309200  0.59309000  1
  O  O58  1  0.53906100  0.41521800  0.53450100  1
  O  O59  1  0.95596000  0.94690800  0.09309000  1
  O  O60  1  0.52726900  0.06300400  0.02415500  1
  O  O61  1  0.52726900  0.93699600  0.52415500  1
  O  O62  1  0.71625650  0.17818850  0.50142500  1
  O  O63  1  0.53906100  0.58478200  0.03450100  1
  O  O64  1  0.79989400  0.05710200  0.96393300  1
  O  O65  1  0.87998200  0.47595200  0.73056800  1
  O  O66  1  0.97200400  0.52738000  0.68031300  1
  O  O67  1  0.59320100  0.17597600  0.14210000  1
  O  O68  1  0.62288100  0.48110400  0.42029400  1
  O  O69  1  0.71197150  0.59542050  0.80794800  1
  O  O70  1  0.66400150  0.51538850  0.63370900  1
  O  O71  1  0.79375650  0.56100050  0.25002000  1
  O  O72  1  0.79989400  0.94289800  0.46393300  1
  O  O73  1  0.71625650  0.82181150  0.00142500  1
  O  O74  1  0.53485750  0.82929050  0.84281600  1
  O  O75  1  0.94944550  0.43271750  0.39393300  1
  O  O76  1  0.75605900  0.42740200  0.05666100  1
  O  O77  1  0.71197150  0.40457950  0.30794800  1
  O  O78  1  0.87037600  0.00224400  0.62227700  1
  O  O79  1  0.67129600  0.00278100  0.15095000  1
  O  O80  1  0.75605900  0.57259800  0.55666100  1
  O  O81  1  0.98962100  0.94198200  0.79505100  1
  O  O82  1  0.77824700  0.03435200  0.17778300  1
  O  O83  1  0.57949050  0.39617650  0.73585200  1
  O  O84  1  0.62214050  0.94359450  0.36955000  1
  O  O85  1  0.97200400  0.47262000  0.18031300  1
  O  O86  1  0.98962100  0.05801800  0.29505100  1
  O  O87  1  0.77824700  0.96564800  0.67778300  1
  O  O88  1  0.59320100  0.82402400  0.64210000  1
  O  O89  1  0.62214050  0.05640550  0.86955000  1
  O  O90  1  0.79375650  0.43899950  0.75002000  1
  O  O91  1  0.94944550  0.56728250  0.89393300  1
  O  O92  1  0.72344800  0.08550600  0.83315000  1
  O  O93  1  0.84338650  0.49737450  0.93227200  1
  O  O94  1  0.66400150  0.48461150  0.13370900  1
  O  O95  1  0.90280850  0.00013650  0.41608500  1
  O  O96  1  0.12288100  0.01889600  0.92029400  1
  O  O97  1  0.17129600  0.49721900  0.65095000  1
  O  O98  1  0.22344800  0.41449400  0.33315000  1
  O  O99  1  0.40280850  0.49986350  0.91608500  1
  O  O100  1  0.37998200  0.02404800  0.23056800  1
  O  O101  1  0.07949050  0.10382350  0.23585200  1
  O  O102  1  0.37037600  0.49775600  0.12227700  1
  O  O103  1  0.34338650  0.00262550  0.43227200  1
  O  O104  1  0.03485750  0.67070950  0.34281600  1
  O  O105  1  0.45596000  0.55309200  0.59309000  1
  O  O106  1  0.03906100  0.91521800  0.53450100  1
  O  O107  1  0.45596000  0.44690800  0.09309000  1
  O  O108  1  0.02726900  0.56300400  0.02415500  1
  O  O109  1  0.02726900  0.43699600  0.52415500  1
  O  O110  1  0.21625650  0.67818850  0.50142500  1
  O  O111  1  0.03906100  0.08478200  0.03450100  1
  O  O112  1  0.29989400  0.55710200  0.96393300  1
  O  O113  1  0.37998200  0.97595200  0.73056800  1
  O  O114  1  0.47200400  0.02738000  0.68031300  1
  O  O115  1  0.09320100  0.67597600  0.14210000  1
  O  O116  1  0.12288100  0.98110400  0.42029400  1
  O  O117  1  0.21197150  0.09542050  0.80794800  1
  O  O118  1  0.16400150  0.01538850  0.63370900  1
  O  O119  1  0.29375650  0.06100050  0.25002000  1
  O  O120  1  0.29989400  0.44289800  0.46393300  1
  O  O121  1  0.21625650  0.32181150  0.00142500  1
  O  O122  1  0.03485750  0.32929050  0.84281600  1
  O  O123  1  0.44944550  0.93271750  0.39393300  1
  O  O124  1  0.25605900  0.92740200  0.05666100  1
  O  O125  1  0.21197150  0.90457950  0.30794800  1
  O  O126  1  0.37037600  0.50224400  0.62227700  1
  O  O127  1  0.17129600  0.50278100  0.15095000  1
  O  O128  1  0.25605900  0.07259800  0.55666100  1
  O  O129  1  0.48962100  0.44198200  0.79505100  1
  O  O130  1  0.27824700  0.53435200  0.17778300  1
  O  O131  1  0.07949050  0.89617650  0.73585200  1
  O  O132  1  0.12214050  0.44359450  0.36955000  1
  O  O133  1  0.47200400  0.97262000  0.18031300  1
  O  O134  1  0.48962100  0.55801800  0.29505100  1
  O  O135  1  0.27824700  0.46564800  0.67778300  1
  O  O136  1  0.09320100  0.32402400  0.64210000  1
  O  O137  1  0.12214050  0.55640550  0.86955000  1
  O  O138  1  0.29375650  0.93899950  0.75002000  1
  O  O139  1  0.44944550  0.06728250  0.89393300  1
  O  O140  1  0.22344800  0.58550600  0.83315000  1
  O  O141  1  0.34338650  0.99737450  0.93227200  1
  O  O142  1  0.16400150  0.98461150  0.13370900  1
  O  O143  1  0.40280850  0.50013650  0.41608500  1
