# generated using pymatgen
data_KPr(PO3)4
_symmetry_space_group_name_H-M   'P 1'
_cell_length_a   8.03184800
_cell_length_b   12.70795800
_cell_length_c   10.79411491
_cell_angle_alpha   90.00000000
_cell_angle_beta   110.27377409
_cell_angle_gamma   90.00000000
_symmetry_Int_Tables_number   1
_chemical_formula_structural   KPr(PO3)4
_chemical_formula_sum   'K4 Pr4 P16 O48'
_cell_volume   1033.48263379
_cell_formula_units_Z   4
loop_
 _symmetry_equiv_pos_site_id
 _symmetry_equiv_pos_as_xyz
  1  'x, y, z'
loop_
 _atom_site_type_symbol
 _atom_site_label
 _atom_site_symmetry_multiplicity
 _atom_site_fract_x
 _atom_site_fract_y
 _atom_site_fract_z
 _atom_site_occupancy
  K  K0  1  0.50000000  0.81614500  0.75000000  1
  K  K1  1  0.50000000  0.18385500  0.25000000  1
  K  K2  1  0.00000000  0.31614500  0.75000000  1
  K  K3  1  0.00000000  0.68385500  0.25000000  1
  Pr  Pr4  1  0.50000000  0.87887300  0.25000000  1
  Pr  Pr5  1  0.50000000  0.12112700  0.75000000  1
  Pr  Pr6  1  0.00000000  0.37887300  0.25000000  1
  Pr  Pr7  1  0.00000000  0.62112700  0.75000000  1
  P  P8  1  0.54268550  0.33074550  0.00026600  1
  P  P9  1  0.45731450  0.33074550  0.49973400  1
  P  P10  1  0.45731450  0.66925450  0.99973400  1
  P  P11  1  0.54268550  0.66925450  0.50026600  1
  P  P12  1  0.21771600  0.02272200  0.94449200  1
  P  P13  1  0.78228400  0.02272200  0.55550800  1
  P  P14  1  0.78228400  0.97727800  0.05550800  1
  P  P15  1  0.21771600  0.97727800  0.44449200  1
  P  P16  1  0.04268550  0.83074550  0.00026600  1
  P  P17  1  0.95731450  0.83074550  0.49973400  1
  P  P18  1  0.95731450  0.16925450  0.99973400  1
  P  P19  1  0.04268550  0.16925450  0.50026600  1
  P  P20  1  0.71771600  0.52272200  0.94449200  1
  P  P21  1  0.28228400  0.52272200  0.55550800  1
  P  P22  1  0.28228400  0.47727800  0.05550800  1
  P  P23  1  0.71771600  0.47727800  0.44449200  1
  O  O24  1  0.44261150  0.24785350  0.90390000  1
  O  O25  1  0.55738850  0.24785350  0.59610000  1
  O  O26  1  0.55738850  0.75214650  0.09610000  1
  O  O27  1  0.44261150  0.75214650  0.40390000  1
  O  O28  1  0.07401650  0.92761750  0.91545500  1
  O  O29  1  0.92598350  0.92761750  0.58454500  1
  O  O30  1  0.92598350  0.07238250  0.08454500  1
  O  O31  1  0.07401650  0.07238250  0.41545500  1
  O  O32  1  0.20683600  0.79994200  0.11285400  1
  O  O33  1  0.79316400  0.79994200  0.38714600  1
  O  O34  1  0.79316400  0.20005800  0.88714600  1
  O  O35  1  0.20683600  0.20005800  0.61285400  1
  O  O36  1  0.40843150  0.37572650  0.07095400  1
  O  O37  1  0.59156850  0.37572650  0.42904600  1
  O  O38  1  0.59156850  0.62427350  0.92904600  1
  O  O39  1  0.40843150  0.62427350  0.57095400  1
  O  O40  1  0.34373200  0.01488900  0.08468800  1
  O  O41  1  0.65626800  0.01488900  0.41531200  1
  O  O42  1  0.65626800  0.98511100  0.91531200  1
  O  O43  1  0.34373200  0.98511100  0.58468800  1
  O  O44  1  0.28593250  0.02652750  0.83251500  1
  O  O45  1  0.71406750  0.02652750  0.66748500  1
  O  O46  1  0.71406750  0.97347250  0.16748500  1
  O  O47  1  0.28593250  0.97347250  0.33251500  1
  O  O48  1  0.94261150  0.74785350  0.90390000  1
  O  O49  1  0.05738850  0.74785350  0.59610000  1
  O  O50  1  0.05738850  0.25214650  0.09610000  1
  O  O51  1  0.94261150  0.25214650  0.40390000  1
  O  O52  1  0.57401650  0.42761750  0.91545500  1
  O  O53  1  0.42598350  0.42761750  0.58454500  1
  O  O54  1  0.42598350  0.57238250  0.08454500  1
  O  O55  1  0.57401650  0.57238250  0.41545500  1
  O  O56  1  0.70683600  0.29994200  0.11285400  1
  O  O57  1  0.29316400  0.29994200  0.38714600  1
  O  O58  1  0.29316400  0.70005800  0.88714600  1
  O  O59  1  0.70683600  0.70005800  0.61285400  1
  O  O60  1  0.90843150  0.87572650  0.07095400  1
  O  O61  1  0.09156850  0.87572650  0.42904600  1
  O  O62  1  0.09156850  0.12427350  0.92904600  1
  O  O63  1  0.90843150  0.12427350  0.57095400  1
  O  O64  1  0.84373200  0.51488900  0.08468800  1
  O  O65  1  0.15626800  0.51488900  0.41531200  1
  O  O66  1  0.15626800  0.48511100  0.91531200  1
  O  O67  1  0.84373200  0.48511100  0.58468800  1
  O  O68  1  0.78593250  0.52652750  0.83251500  1
  O  O69  1  0.21406750  0.52652750  0.66748500  1
  O  O70  1  0.21406750  0.47347250  0.16748500  1
  O  O71  1  0.78593250  0.47347250  0.33251500  1
