# generated using pymatgen
data_CaCO3
_symmetry_space_group_name_H-M   'P 1'
_cell_length_a   7.28334995
_cell_length_b   7.28334995
_cell_length_c   25.56781900
_cell_angle_alpha   90.00000000
_cell_angle_beta   90.00000000
_cell_angle_gamma   120.00000000
_symmetry_Int_Tables_number   1
_chemical_formula_structural   CaCO3
_chemical_formula_sum   'Ca18 C18 O54'
_cell_volume   1174.59100103
_cell_formula_units_Z   18
loop_
 _symmetry_equiv_pos_site_id
 _symmetry_equiv_pos_as_xyz
  1  'x, y, z'
loop_
 _atom_site_type_symbol
 _atom_site_label
 _atom_site_symmetry_multiplicity
 _atom_site_fract_x
 _atom_site_fract_y
 _atom_site_fract_z
 _atom_site_occupancy
  Ca  Ca0  1  0.30638200  0.69361800  0.08333333  1
  Ca  Ca1  1  0.00940400  0.01880800  0.75000000  1
  Ca  Ca2  1  0.38723600  0.69361800  0.41666667  1
  Ca  Ca3  1  0.66202500  0.32405000  0.75000000  1
  Ca  Ca4  1  0.30638200  0.61276400  0.75000000  1
  Ca  Ca5  1  0.99059600  0.00940400  0.58333333  1
  Ca  Ca6  1  0.00940400  0.99059600  0.08333333  1
  Ca  Ca7  1  0.98119200  0.99059600  0.41666667  1
  Ca  Ca8  1  0.69361800  0.38723600  0.25000000  1
  Ca  Ca9  1  0.01880800  0.00940400  0.91666667  1
  Ca  Ca10  1  0.32405000  0.66202500  0.91666667  1
  Ca  Ca11  1  0.33797500  0.67595000  0.25000000  1
  Ca  Ca12  1  0.66202500  0.33797500  0.08333333  1
  Ca  Ca13  1  0.99059600  0.98119200  0.25000000  1
  Ca  Ca14  1  0.67595000  0.33797500  0.41666667  1
  Ca  Ca15  1  0.69361800  0.30638200  0.58333333  1
  Ca  Ca16  1  0.33797500  0.66202500  0.58333333  1
  Ca  Ca17  1  0.61276400  0.30638200  0.91666667  1
  C  C18  1  0.67756200  0.62780500  0.50512867  1
  C  C19  1  0.69091200  0.69091200  0.83333333  1
  C  C20  1  0.30908800  0.30908800  0.33333333  1
  C  C21  1  0.37219500  0.04975700  0.17179533  1
  C  C22  1  0.30908800  0.00000000  0.50000000  1
  C  C23  1  0.32243800  0.95024300  0.82820467  1
  C  C24  1  0.04975700  0.37219500  0.49487133  1
  C  C25  1  0.67756200  0.04975700  0.32820467  1
  C  C26  1  0.95024300  0.32243800  0.83846200  1
  C  C27  1  0.00000000  0.30908800  0.16666667  1
  C  C28  1  0.69091200  0.00000000  1.00000000  1
  C  C29  1  0.95024300  0.62780500  0.99487133  1
  C  C30  1  0.37219500  0.32243800  0.66153800  1
  C  C31  1  0.04975700  0.67756200  0.33846200  1
  C  C32  1  0.62780500  0.95024300  0.67179533  1
  C  C33  1  0.62780500  0.67756200  0.16153800  1
  C  C34  1  0.32243800  0.37219500  0.00512867  1
  C  C35  1  0.00000000  0.69091200  0.66666667  1
  O  O36  1  0.96098800  0.27943000  0.53851967  1
  O  O37  1  0.55017600  0.32268600  0.66343167  1
  O  O38  1  0.13074800  0.13074800  0.33333333  1
  O  O39  1  0.13074800  0.00000000  0.50000000  1
  O  O40  1  0.40005200  0.00881300  0.45545567  1
  O  O41  1  0.55017600  0.22749000  0.16990167  1
  O  O42  1  0.68155800  0.96098800  0.37185300  1
  O  O43  1  0.96590300  0.29209800  0.44981167  1
  O  O44  1  0.00881300  0.60876100  0.62212233  1
  O  O45  1  0.67731400  0.22749000  0.33009833  1
  O  O46  1  0.60876100  0.00881300  0.04454433  1
  O  O47  1  0.44982400  0.67731400  0.16343167  1
  O  O48  1  0.77251000  0.32268600  0.83656833  1
  O  O49  1  0.67731400  0.44982400  0.50323500  1
  O  O50  1  0.77251000  0.44982400  0.99676500  1
  O  O51  1  0.22749000  0.67731400  0.33656833  1
  O  O52  1  0.72057000  0.03901200  0.62814700  1
  O  O53  1  0.03901200  0.72057000  0.03851967  1
  O  O54  1  0.99118700  0.39123900  0.12212233  1
  O  O55  1  0.32619500  0.03409700  0.78314500  1
  O  O56  1  0.32619500  0.29209800  0.05018833  1
  O  O57  1  0.70790200  0.03409700  0.71685500  1
  O  O58  1  0.60876100  0.59994800  0.78878900  1
  O  O59  1  0.00000000  0.86925200  0.66666667  1
  O  O60  1  0.96098800  0.68155800  0.29481367  1
  O  O61  1  0.00000000  0.13074800  0.16666667  1
  O  O62  1  0.31844200  0.27943000  0.96148033  1
  O  O63  1  0.44982400  0.77251000  0.66990167  1
  O  O64  1  0.00881300  0.40005200  0.21121100  1
  O  O65  1  0.59994800  0.99118700  0.95545567  1
  O  O66  1  0.86925200  0.86925200  0.83333333  1
  O  O67  1  0.27943000  0.31844200  0.70518633  1
  O  O68  1  0.39123900  0.40005200  0.28878900  1
  O  O69  1  0.99118700  0.59994800  0.71121100  1
  O  O70  1  0.32268600  0.55017600  0.00323500  1
  O  O71  1  0.29209800  0.32619500  0.61647833  1
  O  O72  1  0.03409700  0.70790200  0.94981167  1
  O  O73  1  0.40005200  0.39123900  0.37787767  1
  O  O74  1  0.59994800  0.60876100  0.87787767  1
  O  O75  1  0.68155800  0.72057000  0.46148033  1
  O  O76  1  0.70790200  0.67380500  0.11647833  1
  O  O77  1  0.03409700  0.32619500  0.88352167  1
  O  O78  1  0.96590300  0.67380500  0.38352167  1
  O  O79  1  0.27943000  0.96098800  0.12814700  1
  O  O80  1  0.31844200  0.03901200  0.87185300  1
  O  O81  1  0.86925200  0.00000000  0.00000000  1
  O  O82  1  0.29209800  0.96590300  0.21685500  1
  O  O83  1  0.32268600  0.77251000  0.83009833  1
  O  O84  1  0.67380500  0.96590300  0.28314500  1
  O  O85  1  0.03901200  0.31844200  0.79481367  1
  O  O86  1  0.39123900  0.99118700  0.54454433  1
  O  O87  1  0.67380500  0.70790200  0.55018833  1
  O  O88  1  0.72057000  0.68155800  0.20518633  1
  O  O89  1  0.22749000  0.55017600  0.49676500  1
