# generated using pymatgen
data_Na5Zr2F13
_symmetry_space_group_name_H-M   'P 1'
_cell_length_a   11.77962600
_cell_length_b   5.58509200
_cell_length_c   8.57290103
_cell_angle_alpha   90.00000000
_cell_angle_beta   97.27655035
_cell_angle_gamma   90.00000000
_symmetry_Int_Tables_number   1
_chemical_formula_structural   Na5Zr2F13
_chemical_formula_sum   'Na10 Zr4 F26'
_cell_volume   559.47132591
_cell_formula_units_Z   2
loop_
 _symmetry_equiv_pos_site_id
 _symmetry_equiv_pos_as_xyz
  1  'x, y, z'
loop_
 _atom_site_type_symbol
 _atom_site_label
 _atom_site_symmetry_multiplicity
 _atom_site_fract_x
 _atom_site_fract_y
 _atom_site_fract_z
 _atom_site_occupancy
  Na  Na0  1  0.66298400  0.00000000  0.92918900  1
  Na  Na1  1  0.72239300  0.50000000  0.65377900  1
  Na  Na2  1  0.00000000  0.50000000  0.50000000  1
  Na  Na3  1  0.77760700  0.00000000  0.34622100  1
  Na  Na4  1  0.83701600  0.50000000  0.07081100  1
  Na  Na5  1  0.16298400  0.50000000  0.92918900  1
  Na  Na6  1  0.22239300  0.00000000  0.65377900  1
  Na  Na7  1  0.50000000  0.00000000  0.50000000  1
  Na  Na8  1  0.27760700  0.50000000  0.34622100  1
  Na  Na9  1  0.33701600  0.00000000  0.07081100  1
  Zr  Zr10  1  0.57322100  0.50000000  0.24378000  1
  Zr  Zr11  1  0.92677900  0.00000000  0.75622000  1
  Zr  Zr12  1  0.07322100  0.00000000  0.24378000  1
  Zr  Zr13  1  0.42677900  0.50000000  0.75622000  1
  F  F14  1  0.81818350  0.76268150  0.85654500  1
  F  F15  1  0.56157050  0.73826250  0.75110900  1
  F  F16  1  0.81818350  0.23731850  0.85654500  1
  F  F17  1  0.63320050  0.27417750  0.42974000  1
  F  F18  1  0.93842950  0.76173750  0.24889100  1
  F  F19  1  0.68181650  0.73731850  0.14345500  1
  F  F20  1  0.68181650  0.26268150  0.14345500  1
  F  F21  1  0.63320050  0.72582250  0.42974000  1
  F  F22  1  0.86679950  0.77417750  0.57026000  1
  F  F23  1  0.86679950  0.22582250  0.57026000  1
  F  F24  1  0.56157050  0.26173750  0.75110900  1
  F  F25  1  0.93842950  0.23826250  0.24889100  1
  F  F26  1  0.00000000  0.00000000  0.00000000  1
  F  F27  1  0.31818350  0.26268150  0.85654500  1
  F  F28  1  0.06157050  0.23826250  0.75110900  1
  F  F29  1  0.31818350  0.73731850  0.85654500  1
  F  F30  1  0.13320050  0.77417750  0.42974000  1
  F  F31  1  0.43842950  0.26173750  0.24889100  1
  F  F32  1  0.18181650  0.23731850  0.14345500  1
  F  F33  1  0.18181650  0.76268150  0.14345500  1
  F  F34  1  0.13320050  0.22582250  0.42974000  1
  F  F35  1  0.36679950  0.27417750  0.57026000  1
  F  F36  1  0.36679950  0.72582250  0.57026000  1
  F  F37  1  0.06157050  0.76173750  0.75110900  1
  F  F38  1  0.43842950  0.73826250  0.24889100  1
  F  F39  1  0.50000000  0.50000000  0.00000000  1
