# generated using pymatgen
data_SiO2
_symmetry_space_group_name_H-M   'P 1'
_cell_length_a   19.23943000
_cell_length_b   19.23943000
_cell_length_c   19.23943000
_cell_angle_alpha   90.00000000
_cell_angle_beta   90.00000000
_cell_angle_gamma   90.00000000
_symmetry_Int_Tables_number   1
_chemical_formula_structural   SiO2
_chemical_formula_sum   'Si96 O192'
_cell_volume   7121.58403906
_cell_formula_units_Z   96
loop_
 _symmetry_equiv_pos_site_id
 _symmetry_equiv_pos_as_xyz
  1  'x, y, z'
loop_
 _atom_site_type_symbol
 _atom_site_label
 _atom_site_symmetry_multiplicity
 _atom_site_fract_x
 _atom_site_fract_y
 _atom_site_fract_z
 _atom_site_occupancy
  Si  Si0  1  0.30928800  0.58096500  0.80928800  1
  Si  Si1  1  0.08096500  0.19071200  0.80928800  1
  Si  Si2  1  0.30928800  0.91903500  0.69071200  1
  Si  Si3  1  0.41903500  0.80928800  0.69071200  1
  Si  Si4  1  0.08096500  0.80928800  0.80928800  1
  Si  Si5  1  0.30928800  0.41903500  0.80928800  1
  Si  Si6  1  0.41903500  0.30928800  0.80928800  1
  Si  Si7  1  0.19071200  0.19071200  0.91903500  1
  Si  Si8  1  0.08096500  0.69071200  0.69071200  1
  Si  Si9  1  0.19071200  0.41903500  0.69071200  1
  Si  Si10  1  0.30928800  0.69071200  0.91903500  1
  Si  Si11  1  0.30928800  0.30928800  0.91903500  1
  Si  Si12  1  0.19071200  0.58096500  0.69071200  1
  Si  Si13  1  0.19071200  0.69071200  0.58096500  1
  Si  Si14  1  0.41903500  0.19071200  0.69071200  1
  Si  Si15  1  0.19071200  0.30928800  0.58096500  1
  Si  Si16  1  0.19071200  0.08096500  0.80928800  1
  Si  Si17  1  0.08096500  0.30928800  0.69071200  1
  Si  Si18  1  0.19071200  0.80928800  0.91903500  1
  Si  Si19  1  0.30928800  0.19071200  0.58096500  1
  Si  Si20  1  0.30928800  0.08096500  0.69071200  1
  Si  Si21  1  0.19071200  0.91903500  0.80928800  1
  Si  Si22  1  0.30928800  0.80928800  0.58096500  1
  Si  Si23  1  0.41903500  0.69071200  0.80928800  1
  Si  Si24  1  0.30928800  0.08096500  0.30928800  1
  Si  Si25  1  0.08096500  0.69071200  0.30928800  1
  Si  Si26  1  0.30928800  0.41903500  0.19071200  1
  Si  Si27  1  0.41903500  0.30928800  0.19071200  1
  Si  Si28  1  0.08096500  0.30928800  0.30928800  1
  Si  Si29  1  0.30928800  0.91903500  0.30928800  1
  Si  Si30  1  0.41903500  0.80928800  0.30928800  1
  Si  Si31  1  0.19071200  0.69071200  0.41903500  1
  Si  Si32  1  0.08096500  0.19071200  0.19071200  1
  Si  Si33  1  0.19071200  0.91903500  0.19071200  1
  Si  Si34  1  0.30928800  0.19071200  0.41903500  1
  Si  Si35  1  0.30928800  0.80928800  0.41903500  1
  Si  Si36  1  0.19071200  0.08096500  0.19071200  1
  Si  Si37  1  0.19071200  0.19071200  0.08096500  1
  Si  Si38  1  0.41903500  0.69071200  0.19071200  1
  Si  Si39  1  0.19071200  0.80928800  0.08096500  1
  Si  Si40  1  0.19071200  0.58096500  0.30928800  1
  Si  Si41  1  0.08096500  0.80928800  0.19071200  1
  Si  Si42  1  0.19071200  0.30928800  0.41903500  1
  Si  Si43  1  0.30928800  0.69071200  0.08096500  1
  Si  Si44  1  0.30928800  0.58096500  0.19071200  1
  Si  Si45  1  0.19071200  0.41903500  0.30928800  1
  Si  Si46  1  0.30928800  0.30928800  0.08096500  1
  Si  Si47  1  0.41903500  0.19071200  0.30928800  1
  Si  Si48  1  0.80928800  0.58096500  0.30928800  1
  Si  Si49  1  0.58096500  0.19071200  0.30928800  1
  Si  Si50  1  0.80928800  0.91903500  0.19071200  1
  Si  Si51  1  0.91903500  0.80928800  0.19071200  1
  Si  Si52  1  0.58096500  0.80928800  0.30928800  1
  Si  Si53  1  0.80928800  0.41903500  0.30928800  1
  Si  Si54  1  0.91903500  0.30928800  0.30928800  1
  Si  Si55  1  0.69071200  0.19071200  0.41903500  1
  Si  Si56  1  0.58096500  0.69071200  0.19071200  1
  Si  Si57  1  0.69071200  0.41903500  0.19071200  1
  Si  Si58  1  0.80928800  0.69071200  0.41903500  1
  Si  Si59  1  0.80928800  0.30928800  0.41903500  1
  Si  Si60  1  0.69071200  0.58096500  0.19071200  1
  Si  Si61  1  0.69071200  0.69071200  0.08096500  1
  Si  Si62  1  0.91903500  0.19071200  0.19071200  1
  Si  Si63  1  0.69071200  0.30928800  0.08096500  1
  Si  Si64  1  0.69071200  0.08096500  0.30928800  1
  Si  Si65  1  0.58096500  0.30928800  0.19071200  1
  Si  Si66  1  0.69071200  0.80928800  0.41903500  1
  Si  Si67  1  0.80928800  0.19071200  0.08096500  1
  Si  Si68  1  0.80928800  0.08096500  0.19071200  1
  Si  Si69  1  0.69071200  0.91903500  0.30928800  1
  Si  Si70  1  0.80928800  0.80928800  0.08096500  1
  Si  Si71  1  0.91903500  0.69071200  0.30928800  1
  Si  Si72  1  0.80928800  0.08096500  0.80928800  1
  Si  Si73  1  0.58096500  0.69071200  0.80928800  1
  Si  Si74  1  0.80928800  0.41903500  0.69071200  1
  Si  Si75  1  0.91903500  0.30928800  0.69071200  1
  Si  Si76  1  0.58096500  0.30928800  0.80928800  1
  Si  Si77  1  0.80928800  0.91903500  0.80928800  1
  Si  Si78  1  0.91903500  0.80928800  0.80928800  1
  Si  Si79  1  0.69071200  0.69071200  0.91903500  1
  Si  Si80  1  0.58096500  0.19071200  0.69071200  1
  Si  Si81  1  0.69071200  0.91903500  0.69071200  1
  Si  Si82  1  0.80928800  0.19071200  0.91903500  1
  Si  Si83  1  0.80928800  0.80928800  0.91903500  1
  Si  Si84  1  0.69071200  0.08096500  0.69071200  1
  Si  Si85  1  0.69071200  0.19071200  0.58096500  1
  Si  Si86  1  0.91903500  0.69071200  0.69071200  1
  Si  Si87  1  0.69071200  0.80928800  0.58096500  1
  Si  Si88  1  0.69071200  0.58096500  0.80928800  1
  Si  Si89  1  0.58096500  0.80928800  0.69071200  1
  Si  Si90  1  0.69071200  0.30928800  0.91903500  1
  Si  Si91  1  0.80928800  0.69071200  0.58096500  1
  Si  Si92  1  0.80928800  0.58096500  0.69071200  1
  Si  Si93  1  0.69071200  0.41903500  0.80928800  1
  Si  Si94  1  0.80928800  0.30928800  0.58096500  1
  Si  Si95  1  0.91903500  0.19071200  0.80928800  1
  O  O96  1  0.25000000  0.25000000  0.91306900  1
  O  O97  1  0.11969350  0.61969350  0.71714000  1
  O  O98  1  0.32576100  0.67423900  0.00000000  1
  O  O99  1  0.82576100  0.00000000  0.82576100  1
  O  O100  1  0.11969350  0.78286000  0.88030650  1
  O  O101  1  0.67423900  0.00000000  0.67423900  1
  O  O102  1  0.28286000  0.38030650  0.88030650  1
  O  O103  1  0.21714000  0.61969350  0.61969350  1
  O  O104  1  0.38030650  0.38030650  0.78286000  1
  O  O105  1  0.32576100  0.00000000  0.67423900  1
  O  O106  1  0.32576100  0.32576100  0.00000000  1
  O  O107  1  0.21714000  0.11969350  0.88030650  1
  O  O108  1  0.25000000  0.25000000  0.58693100  1
  O  O109  1  0.38030650  0.11969350  0.71714000  1
  O  O110  1  0.08693100  0.25000000  0.75000000  1
  O  O111  1  0.25000000  0.91306900  0.75000000  1
  O  O112  1  0.25000000  0.41306900  0.75000000  1
  O  O113  1  0.17423900  0.00000000  0.82576100  1
  O  O114  1  0.00000000  0.82576100  0.82576100  1
  O  O115  1  0.25000000  0.75000000  0.58693100  1
  O  O116  1  0.17423900  0.82576100  0.00000000  1
  O  O117  1  0.11969350  0.71714000  0.61969350  1
  O  O118  1  0.28286000  0.11969350  0.61969350  1
  O  O119  1  0.00000000  0.67423900  0.67423900  1
  O  O120  1  0.38030650  0.61969350  0.78286000  1
  O  O121  1  0.25000000  0.08693100  0.75000000  1
  O  O122  1  0.41306900  0.25000000  0.75000000  1
  O  O123  1  0.38030650  0.78286000  0.61969350  1
  O  O124  1  0.38030650  0.28286000  0.88030650  1
  O  O125  1  0.17423900  0.17423900  0.00000000  1
  O  O126  1  0.25000000  0.75000000  0.91306900  1
  O  O127  1  0.38030650  0.21714000  0.61969350  1
  O  O128  1  0.00000000  0.17423900  0.82576100  1
  O  O129  1  0.28286000  0.88030650  0.61969350  1
  O  O130  1  0.11969350  0.11969350  0.78286000  1
  O  O131  1  0.11969350  0.28286000  0.61969350  1
  O  O132  1  0.41306900  0.75000000  0.75000000  1
  O  O133  1  0.11969350  0.21714000  0.88030650  1
  O  O134  1  0.25000000  0.58693100  0.75000000  1
  O  O135  1  0.00000000  0.32576100  0.67423900  1
  O  O136  1  0.38030650  0.88030650  0.71714000  1
  O  O137  1  0.21714000  0.88030650  0.88030650  1
  O  O138  1  0.28286000  0.61969350  0.88030650  1
  O  O139  1  0.21714000  0.38030650  0.61969350  1
  O  O140  1  0.11969350  0.38030650  0.71714000  1
  O  O141  1  0.08693100  0.75000000  0.75000000  1
  O  O142  1  0.11969350  0.88030650  0.78286000  1
  O  O143  1  0.38030650  0.71714000  0.88030650  1
  O  O144  1  0.25000000  0.75000000  0.41306900  1
  O  O145  1  0.11969350  0.11969350  0.21714000  1
  O  O146  1  0.32576100  0.17423900  0.50000000  1
  O  O147  1  0.82576100  0.50000000  0.32576100  1
  O  O148  1  0.11969350  0.28286000  0.38030650  1
  O  O149  1  0.67423900  0.50000000  0.17423900  1
  O  O150  1  0.28286000  0.88030650  0.38030650  1
  O  O151  1  0.21714000  0.11969350  0.11969350  1
  O  O152  1  0.38030650  0.88030650  0.28286000  1
  O  O153  1  0.32576100  0.50000000  0.17423900  1
  O  O154  1  0.32576100  0.82576100  0.50000000  1
  O  O155  1  0.21714000  0.61969350  0.38030650  1
  O  O156  1  0.25000000  0.75000000  0.08693100  1
  O  O157  1  0.38030650  0.61969350  0.21714000  1
  O  O158  1  0.08693100  0.75000000  0.25000000  1
  O  O159  1  0.25000000  0.41306900  0.25000000  1
  O  O160  1  0.25000000  0.91306900  0.25000000  1
  O  O161  1  0.17423900  0.50000000  0.32576100  1
  O  O162  1  0.00000000  0.32576100  0.32576100  1
  O  O163  1  0.25000000  0.25000000  0.08693100  1
  O  O164  1  0.17423900  0.32576100  0.50000000  1
  O  O165  1  0.11969350  0.21714000  0.11969350  1
  O  O166  1  0.28286000  0.61969350  0.11969350  1
  O  O167  1  0.00000000  0.17423900  0.17423900  1
  O  O168  1  0.38030650  0.11969350  0.28286000  1
  O  O169  1  0.25000000  0.58693100  0.25000000  1
  O  O170  1  0.41306900  0.75000000  0.25000000  1
  O  O171  1  0.38030650  0.28286000  0.11969350  1
  O  O172  1  0.38030650  0.78286000  0.38030650  1
  O  O173  1  0.17423900  0.67423900  0.50000000  1
  O  O174  1  0.25000000  0.25000000  0.41306900  1
  O  O175  1  0.38030650  0.71714000  0.11969350  1
  O  O176  1  0.00000000  0.67423900  0.32576100  1
  O  O177  1  0.28286000  0.38030650  0.11969350  1
  O  O178  1  0.11969350  0.61969350  0.28286000  1
  O  O179  1  0.11969350  0.78286000  0.11969350  1
  O  O180  1  0.41306900  0.25000000  0.25000000  1
  O  O181  1  0.11969350  0.71714000  0.38030650  1
  O  O182  1  0.25000000  0.08693100  0.25000000  1
  O  O183  1  0.00000000  0.82576100  0.17423900  1
  O  O184  1  0.38030650  0.38030650  0.21714000  1
  O  O185  1  0.21714000  0.38030650  0.38030650  1
  O  O186  1  0.28286000  0.11969350  0.38030650  1
  O  O187  1  0.21714000  0.88030650  0.11969350  1
  O  O188  1  0.11969350  0.88030650  0.21714000  1
  O  O189  1  0.08693100  0.25000000  0.25000000  1
  O  O190  1  0.11969350  0.38030650  0.28286000  1
  O  O191  1  0.38030650  0.21714000  0.38030650  1
  O  O192  1  0.75000000  0.25000000  0.41306900  1
  O  O193  1  0.61969350  0.61969350  0.21714000  1
  O  O194  1  0.82576100  0.67423900  0.50000000  1
  O  O195  1  0.32576100  0.00000000  0.32576100  1
  O  O196  1  0.61969350  0.78286000  0.38030650  1
  O  O197  1  0.17423900  0.00000000  0.17423900  1
  O  O198  1  0.78286000  0.38030650  0.38030650  1
  O  O199  1  0.71714000  0.61969350  0.11969350  1
  O  O200  1  0.88030650  0.38030650  0.28286000  1
  O  O201  1  0.82576100  0.00000000  0.17423900  1
  O  O202  1  0.82576100  0.32576100  0.50000000  1
  O  O203  1  0.71714000  0.11969350  0.38030650  1
  O  O204  1  0.75000000  0.25000000  0.08693100  1
  O  O205  1  0.88030650  0.11969350  0.21714000  1
  O  O206  1  0.58693100  0.25000000  0.25000000  1
  O  O207  1  0.75000000  0.91306900  0.25000000  1
  O  O208  1  0.75000000  0.41306900  0.25000000  1
  O  O209  1  0.67423900  0.00000000  0.32576100  1
  O  O210  1  0.50000000  0.82576100  0.32576100  1
  O  O211  1  0.75000000  0.75000000  0.08693100  1
  O  O212  1  0.67423900  0.82576100  0.50000000  1
  O  O213  1  0.61969350  0.71714000  0.11969350  1
  O  O214  1  0.78286000  0.11969350  0.11969350  1
  O  O215  1  0.50000000  0.67423900  0.17423900  1
  O  O216  1  0.88030650  0.61969350  0.28286000  1
  O  O217  1  0.75000000  0.08693100  0.25000000  1
  O  O218  1  0.91306900  0.25000000  0.25000000  1
  O  O219  1  0.88030650  0.78286000  0.11969350  1
  O  O220  1  0.88030650  0.28286000  0.38030650  1
  O  O221  1  0.67423900  0.17423900  0.50000000  1
  O  O222  1  0.75000000  0.75000000  0.41306900  1
  O  O223  1  0.88030650  0.21714000  0.11969350  1
  O  O224  1  0.50000000  0.17423900  0.32576100  1
  O  O225  1  0.78286000  0.88030650  0.11969350  1
  O  O226  1  0.61969350  0.11969350  0.28286000  1
  O  O227  1  0.61969350  0.28286000  0.11969350  1
  O  O228  1  0.91306900  0.75000000  0.25000000  1
  O  O229  1  0.61969350  0.21714000  0.38030650  1
  O  O230  1  0.75000000  0.58693100  0.25000000  1
  O  O231  1  0.50000000  0.32576100  0.17423900  1
  O  O232  1  0.88030650  0.88030650  0.21714000  1
  O  O233  1  0.71714000  0.88030650  0.38030650  1
  O  O234  1  0.78286000  0.61969350  0.38030650  1
  O  O235  1  0.71714000  0.38030650  0.11969350  1
  O  O236  1  0.61969350  0.38030650  0.21714000  1
  O  O237  1  0.58693100  0.75000000  0.25000000  1
  O  O238  1  0.61969350  0.88030650  0.28286000  1
  O  O239  1  0.88030650  0.71714000  0.38030650  1
  O  O240  1  0.75000000  0.75000000  0.91306900  1
  O  O241  1  0.61969350  0.11969350  0.71714000  1
  O  O242  1  0.82576100  0.17423900  0.00000000  1
  O  O243  1  0.32576100  0.50000000  0.82576100  1
  O  O244  1  0.61969350  0.28286000  0.88030650  1
  O  O245  1  0.17423900  0.50000000  0.67423900  1
  O  O246  1  0.78286000  0.88030650  0.88030650  1
  O  O247  1  0.71714000  0.11969350  0.61969350  1
  O  O248  1  0.88030650  0.88030650  0.78286000  1
  O  O249  1  0.82576100  0.50000000  0.67423900  1
  O  O250  1  0.82576100  0.82576100  0.00000000  1
  O  O251  1  0.71714000  0.61969350  0.88030650  1
  O  O252  1  0.75000000  0.75000000  0.58693100  1
  O  O253  1  0.88030650  0.61969350  0.71714000  1
  O  O254  1  0.58693100  0.75000000  0.75000000  1
  O  O255  1  0.75000000  0.41306900  0.75000000  1
  O  O256  1  0.75000000  0.91306900  0.75000000  1
  O  O257  1  0.67423900  0.50000000  0.82576100  1
  O  O258  1  0.50000000  0.32576100  0.82576100  1
  O  O259  1  0.75000000  0.25000000  0.58693100  1
  O  O260  1  0.67423900  0.32576100  0.00000000  1
  O  O261  1  0.61969350  0.21714000  0.61969350  1
  O  O262  1  0.78286000  0.61969350  0.61969350  1
  O  O263  1  0.50000000  0.17423900  0.67423900  1
  O  O264  1  0.88030650  0.11969350  0.78286000  1
  O  O265  1  0.75000000  0.58693100  0.75000000  1
  O  O266  1  0.91306900  0.75000000  0.75000000  1
  O  O267  1  0.88030650  0.28286000  0.61969350  1
  O  O268  1  0.88030650  0.78286000  0.88030650  1
  O  O269  1  0.67423900  0.67423900  0.00000000  1
  O  O270  1  0.75000000  0.25000000  0.91306900  1
  O  O271  1  0.88030650  0.71714000  0.61969350  1
  O  O272  1  0.50000000  0.67423900  0.82576100  1
  O  O273  1  0.78286000  0.38030650  0.61969350  1
  O  O274  1  0.61969350  0.61969350  0.78286000  1
  O  O275  1  0.61969350  0.78286000  0.61969350  1
  O  O276  1  0.91306900  0.25000000  0.75000000  1
  O  O277  1  0.61969350  0.71714000  0.88030650  1
  O  O278  1  0.75000000  0.08693100  0.75000000  1
  O  O279  1  0.50000000  0.82576100  0.67423900  1
  O  O280  1  0.88030650  0.38030650  0.71714000  1
  O  O281  1  0.71714000  0.38030650  0.88030650  1
  O  O282  1  0.78286000  0.11969350  0.88030650  1
  O  O283  1  0.71714000  0.88030650  0.61969350  1
  O  O284  1  0.61969350  0.88030650  0.71714000  1
  O  O285  1  0.58693100  0.25000000  0.75000000  1
  O  O286  1  0.61969350  0.38030650  0.78286000  1
  O  O287  1  0.88030650  0.21714000  0.88030650  1
