# generated using pymatgen
data_Ba3Zn5In2O11
_symmetry_space_group_name_H-M   'P 1'
_cell_length_a   13.56562800
_cell_length_b   13.56562800
_cell_length_c   13.56562800
_cell_angle_alpha   90.00000000
_cell_angle_beta   90.00000000
_cell_angle_gamma   90.00000000
_symmetry_Int_Tables_number   1
_chemical_formula_structural   Ba3Zn5In2O11
_chemical_formula_sum   'Ba24 Zn40 In16 O88'
_cell_volume   2496.43182655
_cell_formula_units_Z   8
loop_
 _symmetry_equiv_pos_site_id
 _symmetry_equiv_pos_as_xyz
  1  'x, y, z'
loop_
 _atom_site_type_symbol
 _atom_site_label
 _atom_site_symmetry_multiplicity
 _atom_site_fract_x
 _atom_site_fract_y
 _atom_site_fract_z
 _atom_site_occupancy
  Ba  Ba0  1  0.54322475  0.25000000  0.75000000  1
  Ba  Ba1  1  0.75000000  0.25000000  0.95677525  1
  Ba  Ba2  1  0.75000000  0.45677525  0.75000000  1
  Ba  Ba3  1  0.95677525  0.25000000  0.75000000  1
  Ba  Ba4  1  0.75000000  0.04322475  0.75000000  1
  Ba  Ba5  1  0.75000000  0.25000000  0.54322475  1
  Ba  Ba6  1  0.54322475  0.75000000  0.25000000  1
  Ba  Ba7  1  0.75000000  0.75000000  0.45677525  1
  Ba  Ba8  1  0.75000000  0.95677525  0.25000000  1
  Ba  Ba9  1  0.95677525  0.75000000  0.25000000  1
  Ba  Ba10  1  0.75000000  0.54322475  0.25000000  1
  Ba  Ba11  1  0.75000000  0.75000000  0.04322475  1
  Ba  Ba12  1  0.04322475  0.25000000  0.25000000  1
  Ba  Ba13  1  0.25000000  0.25000000  0.45677525  1
  Ba  Ba14  1  0.25000000  0.45677525  0.25000000  1
  Ba  Ba15  1  0.45677525  0.25000000  0.25000000  1
  Ba  Ba16  1  0.25000000  0.04322475  0.25000000  1
  Ba  Ba17  1  0.25000000  0.25000000  0.04322475  1
  Ba  Ba18  1  0.04322475  0.75000000  0.75000000  1
  Ba  Ba19  1  0.25000000  0.75000000  0.95677525  1
  Ba  Ba20  1  0.25000000  0.95677525  0.75000000  1
  Ba  Ba21  1  0.45677525  0.75000000  0.75000000  1
  Ba  Ba22  1  0.25000000  0.54322475  0.75000000  1
  Ba  Ba23  1  0.25000000  0.75000000  0.54322475  1
  Zn  Zn24  1  0.83300158  0.16699842  0.16699842  1
  Zn  Zn25  1  0.66699842  0.33300158  0.16699842  1
  Zn  Zn26  1  0.83300158  0.33300158  0.33300158  1
  Zn  Zn27  1  0.66835875  0.00000000  0.50000000  1
  Zn  Zn28  1  0.33164125  0.00000000  0.50000000  1
  Zn  Zn29  1  0.00000000  0.33164125  0.50000000  1
  Zn  Zn30  1  0.00000000  0.00000000  0.83164125  1
  Zn  Zn31  1  0.66699842  0.16699842  0.33300158  1
  Zn  Zn32  1  0.00000000  0.00000000  0.16835875  1
  Zn  Zn33  1  0.50000000  0.16835875  0.50000000  1
  Zn  Zn34  1  0.83300158  0.66699842  0.66699842  1
  Zn  Zn35  1  0.66699842  0.83300158  0.66699842  1
  Zn  Zn36  1  0.83300158  0.83300158  0.83300158  1
  Zn  Zn37  1  0.66835875  0.50000000  0.00000000  1
  Zn  Zn38  1  0.33164125  0.50000000  0.00000000  1
  Zn  Zn39  1  0.00000000  0.83164125  0.00000000  1
  Zn  Zn40  1  0.00000000  0.50000000  0.33164125  1
  Zn  Zn41  1  0.66699842  0.66699842  0.83300158  1
  Zn  Zn42  1  0.00000000  0.50000000  0.66835875  1
  Zn  Zn43  1  0.50000000  0.66835875  0.00000000  1
  Zn  Zn44  1  0.33300158  0.16699842  0.66699842  1
  Zn  Zn45  1  0.16699842  0.33300158  0.66699842  1
  Zn  Zn46  1  0.33300158  0.33300158  0.83300158  1
  Zn  Zn47  1  0.16835875  0.00000000  0.00000000  1
  Zn  Zn48  1  0.83164125  0.00000000  0.00000000  1
  Zn  Zn49  1  0.50000000  0.33164125  0.00000000  1
  Zn  Zn50  1  0.50000000  0.00000000  0.33164125  1
  Zn  Zn51  1  0.16699842  0.16699842  0.83300158  1
  Zn  Zn52  1  0.50000000  0.00000000  0.66835875  1
  Zn  Zn53  1  0.00000000  0.16835875  0.00000000  1
  Zn  Zn54  1  0.33300158  0.66699842  0.16699842  1
  Zn  Zn55  1  0.16699842  0.83300158  0.16699842  1
  Zn  Zn56  1  0.33300158  0.83300158  0.33300158  1
  Zn  Zn57  1  0.16835875  0.50000000  0.50000000  1
  Zn  Zn58  1  0.83164125  0.50000000  0.50000000  1
  Zn  Zn59  1  0.50000000  0.83164125  0.50000000  1
  Zn  Zn60  1  0.50000000  0.50000000  0.83164125  1
  Zn  Zn61  1  0.16699842  0.66699842  0.33300158  1
  Zn  Zn62  1  0.50000000  0.50000000  0.16835875  1
  Zn  Zn63  1  0.00000000  0.66835875  0.50000000  1
  In  In64  1  0.58467425  0.41532575  0.41532575  1
  In  In65  1  0.08467425  0.08467425  0.58467425  1
  In  In66  1  0.91532575  0.08467425  0.41532575  1
  In  In67  1  0.41532575  0.41532575  0.58467425  1
  In  In68  1  0.58467425  0.91532575  0.91532575  1
  In  In69  1  0.08467425  0.58467425  0.08467425  1
  In  In70  1  0.91532575  0.58467425  0.91532575  1
  In  In71  1  0.41532575  0.91532575  0.08467425  1
  In  In72  1  0.08467425  0.41532575  0.91532575  1
  In  In73  1  0.58467425  0.08467425  0.08467425  1
  In  In74  1  0.41532575  0.08467425  0.91532575  1
  In  In75  1  0.91532575  0.41532575  0.08467425  1
  In  In76  1  0.08467425  0.91532575  0.41532575  1
  In  In77  1  0.58467425  0.58467425  0.58467425  1
  In  In78  1  0.41532575  0.58467425  0.41532575  1
  In  In79  1  0.91532575  0.91532575  0.58467425  1
  O  O80  1  0.90808175  0.09191825  0.90808175  1
  O  O81  1  0.08444875  0.24749725  0.58444875  1
  O  O82  1  0.59191825  0.40808175  0.90808175  1
  O  O83  1  0.41555125  0.41555125  0.74749725  1
  O  O84  1  0.41555125  0.25250275  0.58444875  1
  O  O85  1  0.58444875  0.25250275  0.41555125  1
  O  O86  1  0.91866025  0.08133975  0.58133975  1
  O  O87  1  0.74749725  0.41555125  0.41555125  1
  O  O88  1  0.90808175  0.40808175  0.59191825  1
  O  O89  1  0.91555125  0.24749725  0.41555125  1
  O  O90  1  0.91555125  0.08444875  0.25250275  1
  O  O91  1  0.75000000  0.25000000  0.75000000  1
  O  O92  1  0.75250275  0.08444875  0.41555125  1
  O  O93  1  0.58133975  0.41866025  0.58133975  1
  O  O94  1  0.41866025  0.41866025  0.41866025  1
  O  O95  1  0.59191825  0.09191825  0.59191825  1
  O  O96  1  0.58444875  0.41555125  0.25250275  1
  O  O97  1  0.25250275  0.41555125  0.58444875  1
  O  O98  1  0.75000000  0.25000000  0.25000000  1
  O  O99  1  0.24749725  0.08444875  0.58444875  1
  O  O100  1  0.08444875  0.08444875  0.74749725  1
  O  O101  1  0.08133975  0.08133975  0.41866025  1
  O  O102  1  0.90808175  0.59191825  0.40808175  1
  O  O103  1  0.08444875  0.74749725  0.08444875  1
  O  O104  1  0.59191825  0.90808175  0.40808175  1
  O  O105  1  0.41555125  0.91555125  0.24749725  1
  O  O106  1  0.41555125  0.75250275  0.08444875  1
  O  O107  1  0.58444875  0.75250275  0.91555125  1
  O  O108  1  0.91866025  0.58133975  0.08133975  1
  O  O109  1  0.74749725  0.91555125  0.91555125  1
  O  O110  1  0.90808175  0.90808175  0.09191825  1
  O  O111  1  0.91555125  0.74749725  0.91555125  1
  O  O112  1  0.91555125  0.58444875  0.75250275  1
  O  O113  1  0.75000000  0.75000000  0.25000000  1
  O  O114  1  0.75250275  0.58444875  0.91555125  1
  O  O115  1  0.58133975  0.91866025  0.08133975  1
  O  O116  1  0.41866025  0.91866025  0.91866025  1
  O  O117  1  0.59191825  0.59191825  0.09191825  1
  O  O118  1  0.58444875  0.91555125  0.75250275  1
  O  O119  1  0.25250275  0.91555125  0.08444875  1
  O  O120  1  0.75000000  0.75000000  0.75000000  1
  O  O121  1  0.24749725  0.58444875  0.08444875  1
  O  O122  1  0.08444875  0.58444875  0.24749725  1
  O  O123  1  0.08133975  0.58133975  0.91866025  1
  O  O124  1  0.40808175  0.09191825  0.40808175  1
  O  O125  1  0.58444875  0.24749725  0.08444875  1
  O  O126  1  0.09191825  0.40808175  0.40808175  1
  O  O127  1  0.91555125  0.41555125  0.24749725  1
  O  O128  1  0.91555125  0.25250275  0.08444875  1
  O  O129  1  0.08444875  0.25250275  0.91555125  1
  O  O130  1  0.41866025  0.08133975  0.08133975  1
  O  O131  1  0.24749725  0.41555125  0.91555125  1
  O  O132  1  0.40808175  0.40808175  0.09191825  1
  O  O133  1  0.41555125  0.24749725  0.91555125  1
  O  O134  1  0.41555125  0.08444875  0.75250275  1
  O  O135  1  0.25000000  0.25000000  0.25000000  1
  O  O136  1  0.25250275  0.08444875  0.91555125  1
  O  O137  1  0.08133975  0.41866025  0.08133975  1
  O  O138  1  0.91866025  0.41866025  0.91866025  1
  O  O139  1  0.09191825  0.09191825  0.09191825  1
  O  O140  1  0.08444875  0.41555125  0.75250275  1
  O  O141  1  0.75250275  0.41555125  0.08444875  1
  O  O142  1  0.25000000  0.25000000  0.75000000  1
  O  O143  1  0.74749725  0.08444875  0.08444875  1
  O  O144  1  0.58444875  0.08444875  0.24749725  1
  O  O145  1  0.58133975  0.08133975  0.91866025  1
  O  O146  1  0.40808175  0.59191825  0.90808175  1
  O  O147  1  0.58444875  0.74749725  0.58444875  1
  O  O148  1  0.09191825  0.90808175  0.90808175  1
  O  O149  1  0.91555125  0.91555125  0.74749725  1
  O  O150  1  0.91555125  0.75250275  0.58444875  1
  O  O151  1  0.08444875  0.75250275  0.41555125  1
  O  O152  1  0.41866025  0.58133975  0.58133975  1
  O  O153  1  0.24749725  0.91555125  0.41555125  1
  O  O154  1  0.40808175  0.90808175  0.59191825  1
  O  O155  1  0.41555125  0.74749725  0.41555125  1
  O  O156  1  0.41555125  0.58444875  0.25250275  1
  O  O157  1  0.25000000  0.75000000  0.75000000  1
  O  O158  1  0.25250275  0.58444875  0.41555125  1
  O  O159  1  0.08133975  0.91866025  0.58133975  1
  O  O160  1  0.91866025  0.91866025  0.41866025  1
  O  O161  1  0.09191825  0.59191825  0.59191825  1
  O  O162  1  0.08444875  0.91555125  0.25250275  1
  O  O163  1  0.75250275  0.91555125  0.58444875  1
  O  O164  1  0.25000000  0.75000000  0.25000000  1
  O  O165  1  0.74749725  0.58444875  0.58444875  1
  O  O166  1  0.58444875  0.58444875  0.74749725  1
  O  O167  1  0.58133975  0.58133975  0.41866025  1
