# generated using pymatgen
data_Sr4B14O25
_symmetry_space_group_name_H-M   'P 1'
_cell_length_a   7.85254600
_cell_length_b   16.48230000
_cell_length_c   14.79188600
_cell_angle_alpha   90.00000000
_cell_angle_beta   90.00000000
_cell_angle_gamma   90.00000000
_symmetry_Int_Tables_number   1
_chemical_formula_structural   Sr4B14O25
_chemical_formula_sum   'Sr16 B56 O100'
_cell_volume   1914.48450130
_cell_formula_units_Z   4
loop_
 _symmetry_equiv_pos_site_id
 _symmetry_equiv_pos_as_xyz
  1  'x, y, z'
loop_
 _atom_site_type_symbol
 _atom_site_label
 _atom_site_symmetry_multiplicity
 _atom_site_fract_x
 _atom_site_fract_y
 _atom_site_fract_z
 _atom_site_occupancy
  Sr  Sr0  1  0.00000000  0.43007600  0.75770100  1
  Sr  Sr1  1  0.50000000  0.30475800  0.07851800  1
  Sr  Sr2  1  0.50000000  0.32375500  0.66592600  1
  Sr  Sr3  1  0.50000000  0.44425100  0.34447100  1
  Sr  Sr4  1  0.50000000  0.06992400  0.25770100  1
  Sr  Sr5  1  0.00000000  0.19524200  0.57851800  1
  Sr  Sr6  1  0.00000000  0.17624500  0.16592600  1
  Sr  Sr7  1  0.00000000  0.05574900  0.84447100  1
  Sr  Sr8  1  0.50000000  0.93007600  0.75770100  1
  Sr  Sr9  1  0.00000000  0.80475800  0.07851800  1
  Sr  Sr10  1  0.00000000  0.82375500  0.66592600  1
  Sr  Sr11  1  0.00000000  0.94425100  0.34447100  1
  Sr  Sr12  1  0.00000000  0.56992400  0.25770100  1
  Sr  Sr13  1  0.50000000  0.69524200  0.57851800  1
  Sr  Sr14  1  0.50000000  0.67624500  0.16592600  1
  Sr  Sr15  1  0.50000000  0.55574900  0.84447100  1
  B  B16  1  0.23188650  0.21763450  0.94572200  1
  B  B17  1  0.32501800  0.34684700  0.86783800  1
  B  B18  1  0.32886550  0.49466350  0.13284300  1
  B  B19  1  0.26811350  0.28236550  0.44572200  1
  B  B20  1  0.33228450  0.10421550  0.04381500  1
  B  B21  1  0.75199400  0.47040600  0.97324600  1
  B  B22  1  0.17113450  0.00533650  0.63284300  1
  B  B23  1  0.83151250  0.23482250  0.78055100  1
  B  B24  1  0.24800600  0.47040600  0.97324600  1
  B  B25  1  0.83228450  0.39578450  0.54381500  1
  B  B26  1  0.67498200  0.34684700  0.86783800  1
  B  B27  1  0.16848750  0.23482250  0.78055100  1
  B  B28  1  0.66771550  0.10421550  0.04381500  1
  B  B29  1  0.25199400  0.02959400  0.47324600  1
  B  B30  1  0.33514700  0.11801300  0.70954800  1
  B  B31  1  0.66485300  0.11801300  0.70954800  1
  B  B32  1  0.17498200  0.15315300  0.36783800  1
  B  B33  1  0.76811350  0.21763450  0.94572200  1
  B  B34  1  0.33151250  0.26517750  0.28055100  1
  B  B35  1  0.66848750  0.26517750  0.28055100  1
  B  B36  1  0.82886550  0.00533650  0.63284300  1
  B  B37  1  0.74800600  0.02959400  0.47324600  1
  B  B38  1  0.67113450  0.49466350  0.13284300  1
  B  B39  1  0.73188650  0.28236550  0.44572200  1
  B  B40  1  0.83514700  0.38198700  0.20954800  1
  B  B41  1  0.16485300  0.38198700  0.20954800  1
  B  B42  1  0.16771550  0.39578450  0.54381500  1
  B  B43  1  0.82501800  0.15315300  0.36783800  1
  B  B44  1  0.73188650  0.71763450  0.94572200  1
  B  B45  1  0.82501800  0.84684700  0.86783800  1
  B  B46  1  0.82886550  0.99466350  0.13284300  1
  B  B47  1  0.76811350  0.78236550  0.44572200  1
  B  B48  1  0.83228450  0.60421550  0.04381500  1
  B  B49  1  0.25199400  0.97040600  0.97324600  1
  B  B50  1  0.67113450  0.50533650  0.63284300  1
  B  B51  1  0.33151250  0.73482250  0.78055100  1
  B  B52  1  0.74800600  0.97040600  0.97324600  1
  B  B53  1  0.33228450  0.89578450  0.54381500  1
  B  B54  1  0.17498200  0.84684700  0.86783800  1
  B  B55  1  0.66848750  0.73482250  0.78055100  1
  B  B56  1  0.16771550  0.60421550  0.04381500  1
  B  B57  1  0.75199400  0.52959400  0.47324600  1
  B  B58  1  0.83514700  0.61801300  0.70954800  1
  B  B59  1  0.16485300  0.61801300  0.70954800  1
  B  B60  1  0.67498200  0.65315300  0.36783800  1
  B  B61  1  0.26811350  0.71763450  0.94572200  1
  B  B62  1  0.83151250  0.76517750  0.28055100  1
  B  B63  1  0.16848750  0.76517750  0.28055100  1
  B  B64  1  0.32886550  0.50533650  0.63284300  1
  B  B65  1  0.24800600  0.52959400  0.47324600  1
  B  B66  1  0.17113450  0.99466350  0.13284300  1
  B  B67  1  0.23188650  0.78236550  0.44572200  1
  B  B68  1  0.33514700  0.88198700  0.20954800  1
  B  B69  1  0.66485300  0.88198700  0.20954800  1
  B  B70  1  0.66771550  0.89578450  0.54381500  1
  B  B71  1  0.32501800  0.65315300  0.36783800  1
  O  O72  1  0.70964350  0.44088750  0.21525800  1
  O  O73  1  0.00000000  0.14635800  0.33511100  1
  O  O74  1  0.00000000  0.22490100  0.73963600  1
  O  O75  1  0.21306800  0.43631100  0.62934400  1
  O  O76  1  0.30053800  0.19909900  0.71373000  1
  O  O77  1  0.32180200  0.31448900  0.36478800  1
  O  O78  1  0.69946200  0.19909900  0.71373000  1
  O  O79  1  0.69075950  0.04835850  0.96633900  1
  O  O80  1  0.67819800  0.31448900  0.36478800  1
  O  O81  1  0.00000000  0.02547300  0.14355900  1
  O  O82  1  0.19395750  0.20677850  0.44776900  1
  O  O83  1  0.24070550  0.06986550  0.39122700  1
  O  O84  1  0.28634800  0.18105100  0.29382800  1
  O  O85  1  0.78842900  0.17636300  0.02700500  1
  O  O86  1  0.30924050  0.04835850  0.96633900  1
  O  O87  1  0.80924050  0.45164150  0.46633900  1
  O  O88  1  0.79035650  0.05911250  0.71525800  1
  O  O89  1  0.80604250  0.20677850  0.44776900  1
  O  O90  1  0.30604250  0.29322150  0.94776900  1
  O  O91  1  0.00000000  0.41219300  0.20051000  1
  O  O92  1  0.71365200  0.18105100  0.29382800  1
  O  O93  1  0.74070550  0.43013450  0.89122700  1
  O  O94  1  0.80903150  0.06134250  0.55344600  1
  O  O95  1  0.50000000  0.14117900  0.04897200  1
  O  O96  1  0.80053800  0.30090100  0.21373000  1
  O  O97  1  0.50000000  0.47452700  0.64355900  1
  O  O98  1  0.71306800  0.06368900  0.12934400  1
  O  O99  1  0.50000000  0.08780700  0.70051000  1
  O  O100  1  0.78634800  0.31894900  0.79382800  1
  O  O101  1  0.20964350  0.05911250  0.71525800  1
  O  O102  1  0.21365200  0.31894900  0.79382800  1
  O  O103  1  0.29035650  0.44088750  0.21525800  1
  O  O104  1  0.28693200  0.06368900  0.12934400  1
  O  O105  1  0.50000000  0.35364200  0.83511100  1
  O  O106  1  0.17819800  0.18551100  0.86478800  1
  O  O107  1  0.69395750  0.29322150  0.94776900  1
  O  O108  1  0.21157100  0.17636300  0.02700500  1
  O  O109  1  0.19075950  0.45164150  0.46633900  1
  O  O110  1  0.82180200  0.18551100  0.86478800  1
  O  O111  1  0.25929450  0.43013450  0.89122700  1
  O  O112  1  0.30903150  0.43865750  0.05344600  1
  O  O113  1  0.28842900  0.32363700  0.52700500  1
  O  O114  1  0.71157100  0.32363700  0.52700500  1
  O  O115  1  0.69096850  0.43865750  0.05344600  1
  O  O116  1  0.75929450  0.06986550  0.39122700  1
  O  O117  1  0.00000000  0.35882100  0.54897200  1
  O  O118  1  0.19096850  0.06134250  0.55344600  1
  O  O119  1  0.50000000  0.27509900  0.23963600  1
  O  O120  1  0.78693200  0.43631100  0.62934400  1
  O  O121  1  0.19946200  0.30090100  0.21373000  1
  O  O122  1  0.20964350  0.94088750  0.21525800  1
  O  O123  1  0.50000000  0.64635800  0.33511100  1
  O  O124  1  0.50000000  0.72490100  0.73963600  1
  O  O125  1  0.71306800  0.93631100  0.62934400  1
  O  O126  1  0.80053800  0.69909900  0.71373000  1
  O  O127  1  0.82180200  0.81448900  0.36478800  1
  O  O128  1  0.19946200  0.69909900  0.71373000  1
  O  O129  1  0.19075950  0.54835850  0.96633900  1
  O  O130  1  0.17819800  0.81448900  0.36478800  1
  O  O131  1  0.50000000  0.52547300  0.14355900  1
  O  O132  1  0.69395750  0.70677850  0.44776900  1
  O  O133  1  0.74070550  0.56986550  0.39122700  1
  O  O134  1  0.78634800  0.68105100  0.29382800  1
  O  O135  1  0.28842900  0.67636300  0.02700500  1
  O  O136  1  0.80924050  0.54835850  0.96633900  1
  O  O137  1  0.30924050  0.95164150  0.46633900  1
  O  O138  1  0.29035650  0.55911250  0.71525800  1
  O  O139  1  0.30604250  0.70677850  0.44776900  1
  O  O140  1  0.80604250  0.79322150  0.94776900  1
  O  O141  1  0.50000000  0.91219300  0.20051000  1
  O  O142  1  0.21365200  0.68105100  0.29382800  1
  O  O143  1  0.24070550  0.93013450  0.89122700  1
  O  O144  1  0.30903150  0.56134250  0.55344600  1
  O  O145  1  0.00000000  0.64117900  0.04897200  1
  O  O146  1  0.30053800  0.80090100  0.21373000  1
  O  O147  1  0.00000000  0.97452700  0.64355900  1
  O  O148  1  0.21306800  0.56368900  0.12934400  1
  O  O149  1  0.00000000  0.58780700  0.70051000  1
  O  O150  1  0.28634800  0.81894900  0.79382800  1
  O  O151  1  0.70964350  0.55911250  0.71525800  1
  O  O152  1  0.71365200  0.81894900  0.79382800  1
  O  O153  1  0.79035650  0.94088750  0.21525800  1
  O  O154  1  0.78693200  0.56368900  0.12934400  1
  O  O155  1  0.00000000  0.85364200  0.83511100  1
  O  O156  1  0.67819800  0.68551100  0.86478800  1
  O  O157  1  0.19395750  0.79322150  0.94776900  1
  O  O158  1  0.71157100  0.67636300  0.02700500  1
  O  O159  1  0.69075950  0.95164150  0.46633900  1
  O  O160  1  0.32180200  0.68551100  0.86478800  1
  O  O161  1  0.75929450  0.93013450  0.89122700  1
  O  O162  1  0.80903150  0.93865750  0.05344600  1
  O  O163  1  0.78842900  0.82363700  0.52700500  1
  O  O164  1  0.21157100  0.82363700  0.52700500  1
  O  O165  1  0.19096850  0.93865750  0.05344600  1
  O  O166  1  0.25929450  0.56986550  0.39122700  1
  O  O167  1  0.50000000  0.85882100  0.54897200  1
  O  O168  1  0.69096850  0.56134250  0.55344600  1
  O  O169  1  0.00000000  0.77509900  0.23963600  1
  O  O170  1  0.28693200  0.93631100  0.62934400  1
  O  O171  1  0.69946200  0.80090100  0.21373000  1
