# generated using pymatgen
data_AlS2NCl6
_symmetry_space_group_name_H-M   'P 1'
_cell_length_a   6.41150000
_cell_length_b   13.79691400
_cell_length_c   13.38840003
_cell_angle_alpha   90.00000000
_cell_angle_beta   95.49403571
_cell_angle_gamma   90.00000000
_symmetry_Int_Tables_number   1
_chemical_formula_structural   AlS2NCl6
_chemical_formula_sum   'Al4 S8 N4 Cl24'
_cell_volume   1178.88274863
_cell_formula_units_Z   4
loop_
 _symmetry_equiv_pos_site_id
 _symmetry_equiv_pos_as_xyz
  1  'x, y, z'
loop_
 _atom_site_type_symbol
 _atom_site_label
 _atom_site_symmetry_multiplicity
 _atom_site_fract_x
 _atom_site_fract_y
 _atom_site_fract_z
 _atom_site_occupancy
  Al  Al0  1  0.84480800  0.25000000  0.98411000  1
  Al  Al1  1  0.99363300  0.25000000  0.46638400  1
  Al  Al2  1  0.15519200  0.75000000  0.01589000  1
  Al  Al3  1  0.00636700  0.75000000  0.53361600  1
  S  S4  1  0.63273300  0.59313400  0.83590400  1
  S  S5  1  0.25537400  0.52029200  0.34262200  1
  S  S6  1  0.36726700  0.40686600  0.16409600  1
  S  S7  1  0.25537400  0.97970800  0.34262200  1
  S  S8  1  0.36726700  0.09313400  0.16409600  1
  S  S9  1  0.74462600  0.02029200  0.65737800  1
  S  S10  1  0.63273300  0.90686600  0.83590400  1
  S  S11  1  0.74462600  0.47970800  0.65737800  1
  N  N12  1  0.26938700  0.05122600  0.25548100  1
  N  N13  1  0.73061300  0.94877400  0.74451900  1
  N  N14  1  0.26938700  0.44877400  0.25548100  1
  N  N15  1  0.73061300  0.55122600  0.74451900  1
  Cl  Cl16  1  0.29999300  0.25000000  0.41440500  1
  Cl  Cl17  1  0.05383500  0.62106000  0.08786000  1
  Cl  Cl18  1  0.82980100  0.11916000  0.41523200  1
  Cl  Cl19  1  0.97112800  0.75000000  0.37064700  1
  Cl  Cl20  1  0.97597100  0.25000000  0.14025300  1
  Cl  Cl21  1  0.82980100  0.38084000  0.41523200  1
  Cl  Cl22  1  0.02887200  0.25000000  0.62935300  1
  Cl  Cl23  1  0.37514200  0.98372600  0.86367000  1
  Cl  Cl24  1  0.62485800  0.01627400  0.13633000  1
  Cl  Cl25  1  0.02402900  0.75000000  0.85974700  1
  Cl  Cl26  1  0.50118400  0.11413100  0.64790100  1
  Cl  Cl27  1  0.94616500  0.37894000  0.91214000  1
  Cl  Cl28  1  0.50669000  0.25000000  0.98098100  1
  Cl  Cl29  1  0.94616500  0.12106000  0.91214000  1
  Cl  Cl30  1  0.70000700  0.75000000  0.58559500  1
  Cl  Cl31  1  0.50118400  0.38586900  0.64790100  1
  Cl  Cl32  1  0.05383500  0.87894000  0.08786000  1
  Cl  Cl33  1  0.49331000  0.75000000  0.01901900  1
  Cl  Cl34  1  0.62485800  0.48372600  0.13633000  1
  Cl  Cl35  1  0.37514200  0.51627400  0.86367000  1
  Cl  Cl36  1  0.49881600  0.61413100  0.35209900  1
  Cl  Cl37  1  0.17019900  0.61916000  0.58476800  1
  Cl  Cl38  1  0.17019900  0.88084000  0.58476800  1
  Cl  Cl39  1  0.49881600  0.88586900  0.35209900  1
