# generated using pymatgen
data_TiTlPO5
_symmetry_space_group_name_H-M   'P 1'
_cell_length_a   6.57824400
_cell_length_b   10.64558400
_cell_length_c   13.10809400
_cell_angle_alpha   90.00000000
_cell_angle_beta   90.00000000
_cell_angle_gamma   90.00000000
_symmetry_Int_Tables_number   1
_chemical_formula_structural   TiTlPO5
_chemical_formula_sum   'Ti8 Tl8 P8 O40'
_cell_volume   917.94997962
_cell_formula_units_Z   8
loop_
 _symmetry_equiv_pos_site_id
 _symmetry_equiv_pos_as_xyz
  1  'x, y, z'
loop_
 _atom_site_type_symbol
 _atom_site_label
 _atom_site_symmetry_multiplicity
 _atom_site_fract_x
 _atom_site_fract_y
 _atom_site_fract_z
 _atom_site_occupancy
  Ti  Ti0  1  0.25000000  0.75000000  0.88056600  1
  Ti  Ti1  1  0.75000000  0.75000000  0.38056600  1
  Ti  Ti2  1  0.75000000  0.25000000  0.11943400  1
  Ti  Ti3  1  0.50000000  0.50000000  0.00000000  1
  Ti  Ti4  1  0.25000000  0.25000000  0.61943400  1
  Ti  Ti5  1  0.00000000  0.00000000  0.50000000  1
  Ti  Ti6  1  0.50000000  0.50000000  0.50000000  1
  Ti  Ti7  1  0.00000000  0.00000000  0.00000000  1
  Tl  Tl8  1  0.04725300  0.36534700  0.35638100  1
  Tl  Tl9  1  0.95274700  0.36534700  0.85638100  1
  Tl  Tl10  1  0.95274700  0.63465300  0.64361900  1
  Tl  Tl11  1  0.45274700  0.86534700  0.14361900  1
  Tl  Tl12  1  0.45274700  0.13465300  0.35638100  1
  Tl  Tl13  1  0.04725300  0.63465300  0.14361900  1
  Tl  Tl14  1  0.54725300  0.13465300  0.85638100  1
  Tl  Tl15  1  0.54725300  0.86534700  0.64361900  1
  P  P16  1  0.58483000  0.50000000  0.25000000  1
  P  P17  1  0.41517000  0.50000000  0.75000000  1
  P  P18  1  0.08483000  0.00000000  0.75000000  1
  P  P19  1  0.75000000  0.75000000  0.93036500  1
  P  P20  1  0.91517000  0.00000000  0.25000000  1
  P  P21  1  0.75000000  0.25000000  0.56963500  1
  P  P22  1  0.25000000  0.75000000  0.43036500  1
  P  P23  1  0.25000000  0.25000000  0.06963500  1
  O  O24  1  0.45035200  0.48028300  0.34665400  1
  O  O25  1  0.70857000  0.63548100  0.00200800  1
  O  O26  1  0.20857000  0.86451900  0.50200800  1
  O  O27  1  0.72043500  0.61797000  0.26411000  1
  O  O28  1  0.29143000  0.36451900  0.99799200  1
  O  O29  1  0.95035200  0.98028300  0.65334600  1
  O  O30  1  0.56011600  0.22121300  0.63535700  1
  O  O31  1  0.06011600  0.27878700  0.13535700  1
  O  O32  1  0.77956500  0.88203000  0.26411000  1
  O  O33  1  0.93988400  0.27878700  0.63535700  1
  O  O34  1  0.79690200  0.87674800  0.47223700  1
  O  O35  1  0.54964800  0.48028300  0.84665400  1
  O  O36  1  0.93988400  0.72121300  0.86464300  1
  O  O37  1  0.70309800  0.62325200  0.47223700  1
  O  O38  1  0.22043500  0.88203000  0.76411000  1
  O  O39  1  0.27956500  0.61797000  0.76411000  1
  O  O40  1  0.56011600  0.77878700  0.86464300  1
  O  O41  1  0.70309800  0.37674800  0.02776300  1
  O  O42  1  0.20309800  0.12325200  0.52776300  1
  O  O43  1  0.04964800  0.01971700  0.34665400  1
  O  O44  1  0.79690200  0.12325200  0.02776300  1
  O  O45  1  0.20857000  0.13548100  0.99799200  1
  O  O46  1  0.79143000  0.13548100  0.49799200  1
  O  O47  1  0.04964800  0.98028300  0.15334600  1
  O  O48  1  0.70857000  0.36451900  0.49799200  1
  O  O49  1  0.43988400  0.22121300  0.13535700  1
  O  O50  1  0.79143000  0.86451900  0.00200800  1
  O  O51  1  0.45035200  0.51971700  0.15334600  1
  O  O52  1  0.29690200  0.62325200  0.97223700  1
  O  O53  1  0.06011600  0.72121300  0.36464300  1
  O  O54  1  0.72043500  0.38203000  0.23589000  1
  O  O55  1  0.22043500  0.11797000  0.73589000  1
  O  O56  1  0.43988400  0.77878700  0.36464300  1
  O  O57  1  0.54964800  0.51971700  0.65334600  1
  O  O58  1  0.77956500  0.11797000  0.23589000  1
  O  O59  1  0.20309800  0.87674800  0.97223700  1
  O  O60  1  0.27956500  0.38203000  0.73589000  1
  O  O61  1  0.95035200  0.01971700  0.84665400  1
  O  O62  1  0.29143000  0.63548100  0.50200800  1
  O  O63  1  0.29690200  0.37674800  0.52776300  1
