# generated using pymatgen
data_InSb2Se4Br
_symmetry_space_group_name_H-M   'P 1'
_cell_length_a   21.32134800
_cell_length_b   4.05921600
_cell_length_c   12.43672829
_cell_angle_alpha   90.00000000
_cell_angle_beta   119.16659776
_cell_angle_gamma   90.00000000
_symmetry_Int_Tables_number   1
_chemical_formula_structural   InSb2Se4Br
_chemical_formula_sum   'In4 Sb8 Se16 Br4'
_cell_volume   939.89609925
_cell_formula_units_Z   4
loop_
 _symmetry_equiv_pos_site_id
 _symmetry_equiv_pos_as_xyz
  1  'x, y, z'
loop_
 _atom_site_type_symbol
 _atom_site_label
 _atom_site_symmetry_multiplicity
 _atom_site_fract_x
 _atom_site_fract_y
 _atom_site_fract_z
 _atom_site_occupancy
  In  In0  1  0.16329800  0.50000000  0.43991800  1
  In  In1  1  0.83670200  0.50000000  0.56008200  1
  In  In2  1  0.66329800  0.00000000  0.43991800  1
  In  In3  1  0.33670200  0.00000000  0.56008200  1
  Sb  Sb4  1  0.70386200  0.00000000  0.09033800  1
  Sb  Sb5  1  0.29613800  0.00000000  0.90966200  1
  Sb  Sb6  1  0.04902000  0.00000000  0.78073300  1
  Sb  Sb7  1  0.95098000  0.00000000  0.21926700  1
  Sb  Sb8  1  0.20386200  0.50000000  0.09033800  1
  Sb  Sb9  1  0.79613800  0.50000000  0.90966200  1
  Sb  Sb10  1  0.54902000  0.50000000  0.78073300  1
  Sb  Sb11  1  0.45098000  0.50000000  0.21926700  1
  Se  Se12  1  0.59929900  0.50000000  0.02251000  1
  Se  Se13  1  0.17948100  0.50000000  0.86098600  1
  Se  Se14  1  0.82051900  0.50000000  0.13901400  1
  Se  Se15  1  0.96274200  0.50000000  0.78225900  1
  Se  Se16  1  0.71125600  0.50000000  0.34581900  1
  Se  Se17  1  0.03725800  0.50000000  0.21774100  1
  Se  Se18  1  0.28874400  0.50000000  0.65418100  1
  Se  Se19  1  0.40070100  0.50000000  0.97749000  1
  Se  Se20  1  0.09929900  0.00000000  0.02251000  1
  Se  Se21  1  0.67948100  0.00000000  0.86098600  1
  Se  Se22  1  0.32051900  0.00000000  0.13901400  1
  Se  Se23  1  0.46274200  0.00000000  0.78225900  1
  Se  Se24  1  0.21125600  0.00000000  0.34581900  1
  Se  Se25  1  0.53725800  0.00000000  0.21774100  1
  Se  Se26  1  0.78874400  0.00000000  0.65418100  1
  Se  Se27  1  0.90070100  0.00000000  0.97749000  1
  Br  Br28  1  0.10327200  0.00000000  0.52821400  1
  Br  Br29  1  0.89672800  0.00000000  0.47178600  1
  Br  Br30  1  0.60327200  0.50000000  0.52821400  1
  Br  Br31  1  0.39672800  0.50000000  0.47178600  1
