# generated using pymatgen
data_Rb4NpS2ClO10
_symmetry_space_group_name_H-M   'P 1'
_cell_length_a   10.74418000
_cell_length_b   4.66814000
_cell_length_c   16.38033034
_cell_angle_alpha   90.00000000
_cell_angle_beta   116.95496392
_cell_angle_gamma   90.00000000
_symmetry_Int_Tables_number   1
_chemical_formula_structural   Rb4NpS2ClO10
_chemical_formula_sum   'Rb8 Np2 S4 Cl2 O20'
_cell_volume   732.30913949
_cell_formula_units_Z   2
loop_
 _symmetry_equiv_pos_site_id
 _symmetry_equiv_pos_as_xyz
  1  'x, y, z'
loop_
 _atom_site_type_symbol
 _atom_site_label
 _atom_site_symmetry_multiplicity
 _atom_site_fract_x
 _atom_site_fract_y
 _atom_site_fract_z
 _atom_site_occupancy
  Rb  Rb0  1  0.83528700  0.76518400  0.89448100  1
  Rb  Rb1  1  0.43481500  0.22947100  0.87067300  1
  Rb  Rb2  1  0.16471300  0.23481600  0.10551900  1
  Rb  Rb3  1  0.56518500  0.22947100  0.62932700  1
  Rb  Rb4  1  0.16471300  0.76518400  0.60551900  1
  Rb  Rb5  1  0.83528700  0.23481600  0.39448100  1
  Rb  Rb6  1  0.43481500  0.77052900  0.37067300  1
  Rb  Rb7  1  0.56518500  0.77052900  0.12932700  1
  Np  Np8  1  0.00000000  0.73814800  0.25000000  1
  Np  Np9  1  0.00000000  0.26185200  0.75000000  1
  S  S10  1  0.19885100  0.34440900  0.42570000  1
  S  S11  1  0.80114900  0.65559100  0.57430000  1
  S  S12  1  0.80114900  0.34440900  0.07430000  1
  S  S13  1  0.19885100  0.65559100  0.92570000  1
  Cl  Cl14  1  0.50000000  0.26822600  0.25000000  1
  Cl  Cl15  1  0.50000000  0.73177400  0.75000000  1
  O  O16  1  0.85784500  0.73808800  0.28430800  1
  O  O17  1  0.33923500  0.74468600  0.94033900  1
  O  O18  1  0.66076500  0.25531400  0.05966100  1
  O  O19  1  0.82979100  0.74164100  0.49763200  1
  O  O20  1  0.17020900  0.25835900  0.50236800  1
  O  O21  1  0.33923500  0.25531400  0.44033900  1
  O  O22  1  0.81642800  0.33538500  0.58705900  1
  O  O23  1  0.91387900  0.22815200  0.16447800  1
  O  O24  1  0.17020900  0.74164100  0.00236800  1
  O  O25  1  0.91387900  0.77184800  0.66447800  1
  O  O26  1  0.66076500  0.74468600  0.55966100  1
  O  O27  1  0.08612100  0.22815200  0.33552200  1
  O  O28  1  0.81642800  0.66461500  0.08705900  1
  O  O29  1  0.18357200  0.33538500  0.91294100  1
  O  O30  1  0.08612100  0.77184800  0.83552200  1
  O  O31  1  0.18357200  0.66461500  0.41294100  1
  O  O32  1  0.14215500  0.26191200  0.71569200  1
  O  O33  1  0.82979100  0.25835900  0.99763200  1
  O  O34  1  0.14215500  0.73808800  0.21569200  1
  O  O35  1  0.85784500  0.26191200  0.78430800  1
