# generated using pymatgen
data_K2Ba(SO)12
_symmetry_space_group_name_H-M   'P 1'
_cell_length_a   9.38522200
_cell_length_b   11.12571000
_cell_length_c   11.89519221
_cell_angle_alpha   90.00000000
_cell_angle_beta   112.12354714
_cell_angle_gamma   90.00000000
_symmetry_Int_Tables_number   1
_chemical_formula_structural   K2Ba(SO)12
_chemical_formula_sum   'K4 Ba2 S24 O24'
_cell_volume   1150.61511797
_cell_formula_units_Z   2
loop_
 _symmetry_equiv_pos_site_id
 _symmetry_equiv_pos_as_xyz
  1  'x, y, z'
loop_
 _atom_site_type_symbol
 _atom_site_label
 _atom_site_symmetry_multiplicity
 _atom_site_fract_x
 _atom_site_fract_y
 _atom_site_fract_z
 _atom_site_occupancy
  K  K0  1  0.50000000  0.00000000  0.50000000  1
  K  K1  1  0.00000000  0.00000000  0.50000000  1
  K  K2  1  0.25000000  0.55183900  0.00000000  1
  K  K3  1  0.75000000  0.44816100  0.00000000  1
  Ba  Ba4  1  0.25000000  0.98683000  0.00000000  1
  Ba  Ba5  1  0.75000000  0.01317000  0.00000000  1
  S  S6  1  0.04438800  0.72644400  0.13687900  1
  S  S7  1  0.45561200  0.72644400  0.86312100  1
  S  S8  1  0.95561200  0.27355600  0.86312100  1
  S  S9  1  0.54438800  0.27355600  0.13687900  1
  S  S10  1  0.16740500  0.71500700  0.33216000  1
  S  S11  1  0.33259500  0.71500700  0.66784000  1
  S  S12  1  0.83259500  0.28499300  0.66784000  1
  S  S13  1  0.66740500  0.28499300  0.33216000  1
  S  S14  1  0.32504500  0.58374800  0.34787100  1
  S  S15  1  0.17495500  0.58374800  0.65212900  1
  S  S16  1  0.67495500  0.41625200  0.65212900  1
  S  S17  1  0.82504500  0.41625200  0.34787100  1
  S  S18  1  0.54674100  0.65248700  0.39749000  1
  S  S19  1  0.95325900  0.65248700  0.60251000  1
  S  S20  1  0.45325900  0.34751300  0.60251000  1
  S  S21  1  0.04674100  0.34751300  0.39749000  1
  S  S22  1  0.59376400  0.69802800  0.24906700  1
  S  S23  1  0.90623600  0.69802800  0.75093300  1
  S  S24  1  0.40623600  0.30197200  0.75093300  1
  S  S25  1  0.09376400  0.30197200  0.24906700  1
  S  S26  1  0.57765900  0.89196700  0.25157100  1
  S  S27  1  0.92234100  0.89196700  0.74842900  1
  S  S28  1  0.42234100  0.10803300  0.74842900  1
  S  S29  1  0.07765900  0.10803300  0.25157100  1
  O  O30  1  0.99309000  0.60352300  0.09806100  1
  O  O31  1  0.50691000  0.60352300  0.90193900  1
  O  O32  1  0.00691000  0.39647700  0.90193900  1
  O  O33  1  0.49309000  0.39647700  0.09806100  1
  O  O34  1  0.92247300  0.81125700  0.13099300  1
  O  O35  1  0.57752700  0.81125700  0.86900700  1
  O  O36  1  0.07752700  0.18874300  0.86900700  1
  O  O37  1  0.42247300  0.18874300  0.13099300  1
  O  O38  1  0.15331900  0.77022100  0.08390900  1
  O  O39  1  0.34668100  0.77022100  0.91609100  1
  O  O40  1  0.84668100  0.22977900  0.91609100  1
  O  O41  1  0.65331900  0.22977900  0.08390900  1
  O  O42  1  0.70593900  0.93301900  0.35873300  1
  O  O43  1  0.79406100  0.93301900  0.64126700  1
  O  O44  1  0.29406100  0.06698100  0.64126700  1
  O  O45  1  0.20593900  0.06698100  0.35873300  1
  O  O46  1  0.58641900  0.92328000  0.13361600  1
  O  O47  1  0.91358100  0.92328000  0.86638400  1
  O  O48  1  0.41358100  0.07672000  0.86638400  1
  O  O49  1  0.08641900  0.07672000  0.13361600  1
  O  O50  1  0.42683100  0.92171200  0.25498200  1
  O  O51  1  0.07316900  0.92171200  0.74501800  1
  O  O52  1  0.57316900  0.07828800  0.74501800  1
  O  O53  1  0.92683100  0.07828800  0.25498200  1
