# generated using pymatgen
data_Na2Th(PO4)2
_symmetry_space_group_name_H-M   'P 1'
_cell_length_a   7.12058200
_cell_length_b   21.93619600
_cell_length_c   9.26760753
_cell_angle_alpha   90.00000000
_cell_angle_beta   111.18194060
_cell_angle_gamma   90.00000000
_symmetry_Int_Tables_number   1
_chemical_formula_structural   Na2Th(PO4)2
_chemical_formula_sum   'Na16 Th8 P16 O64'
_cell_volume   1349.78403099
_cell_formula_units_Z   8
loop_
 _symmetry_equiv_pos_site_id
 _symmetry_equiv_pos_as_xyz
  1  'x, y, z'
loop_
 _atom_site_type_symbol
 _atom_site_label
 _atom_site_symmetry_multiplicity
 _atom_site_fract_x
 _atom_site_fract_y
 _atom_site_fract_z
 _atom_site_occupancy
  Na  Na0  1  0.10159250  0.18988850  0.45488800  1
  Na  Na1  1  0.62478000  0.06304500  0.99296800  1
  Na  Na2  1  0.89840750  0.18988850  0.04511200  1
  Na  Na3  1  0.37522000  0.06304500  0.50703200  1
  Na  Na4  1  0.87522000  0.43695500  0.00703200  1
  Na  Na5  1  0.60159250  0.31011150  0.95488800  1
  Na  Na6  1  0.39840750  0.31011150  0.54511200  1
  Na  Na7  1  0.12478000  0.43695500  0.49296800  1
  Na  Na8  1  0.60159250  0.68988850  0.45488800  1
  Na  Na9  1  0.12478000  0.56304500  0.99296800  1
  Na  Na10  1  0.39840750  0.68988850  0.04511200  1
  Na  Na11  1  0.87522000  0.56304500  0.50703200  1
  Na  Na12  1  0.37522000  0.93695500  0.00703200  1
  Na  Na13  1  0.10159250  0.81011150  0.95488800  1
  Na  Na14  1  0.89840750  0.81011150  0.54511200  1
  Na  Na15  1  0.62478000  0.93695500  0.49296800  1
  Th  Th16  1  0.00000000  0.07179900  0.75000000  1
  Th  Th17  1  0.50000000  0.42820100  0.25000000  1
  Th  Th18  1  0.50000000  0.20376600  0.25000000  1
  Th  Th19  1  0.00000000  0.29623400  0.75000000  1
  Th  Th20  1  0.50000000  0.57179900  0.75000000  1
  Th  Th21  1  0.00000000  0.92820100  0.25000000  1
  Th  Th22  1  0.00000000  0.70376600  0.25000000  1
  Th  Th23  1  0.50000000  0.79623400  0.75000000  1
  P  P24  1  0.81644100  0.06612000  0.38033600  1
  P  P25  1  0.18355900  0.06612000  0.11966400  1
  P  P26  1  0.68355900  0.43388000  0.61966400  1
  P  P27  1  0.68222350  0.18923050  0.64762800  1
  P  P28  1  0.81777650  0.31076950  0.35237200  1
  P  P29  1  0.18222350  0.31076950  0.14762800  1
  P  P30  1  0.31644100  0.43388000  0.88033600  1
  P  P31  1  0.31777650  0.18923050  0.85237200  1
  P  P32  1  0.31644100  0.56612000  0.38033600  1
  P  P33  1  0.68355900  0.56612000  0.11966400  1
  P  P34  1  0.18355900  0.93388000  0.61966400  1
  P  P35  1  0.18222350  0.68923050  0.64762800  1
  P  P36  1  0.31777650  0.81076950  0.35237200  1
  P  P37  1  0.68222350  0.81076950  0.14762800  1
  P  P38  1  0.81644100  0.93388000  0.88033600  1
  P  P39  1  0.81777650  0.68923050  0.85237200  1
  O  O40  1  0.79094000  0.44954800  0.50509400  1
  O  O41  1  0.30444900  0.48833200  0.77151800  1
  O  O42  1  0.46433500  0.41755900  0.51418500  1
  O  O43  1  0.30270550  0.24702350  0.75025200  1
  O  O44  1  0.20873200  0.36953800  0.24380300  1
  O  O45  1  0.53566500  0.41755900  0.98581500  1
  O  O46  1  0.48085850  0.18871750  0.50614700  1
  O  O47  1  0.22054800  0.37786200  0.77655200  1
  O  O48  1  0.70873200  0.13046200  0.74380300  1
  O  O49  1  0.63740850  0.30447550  0.41027100  1
  O  O50  1  0.20906000  0.44954800  0.99490600  1
  O  O51  1  0.70906000  0.05045200  0.49490600  1
  O  O52  1  0.27945200  0.12213800  0.22344800  1
  O  O53  1  0.19729450  0.25297650  0.24974800  1
  O  O54  1  0.03566500  0.08244100  0.48581500  1
  O  O55  1  0.36259150  0.30447550  0.08972900  1
  O  O56  1  0.01914150  0.31128250  0.49385300  1
  O  O57  1  0.13740850  0.19552450  0.91027100  1
  O  O58  1  0.79126800  0.36953800  0.25619700  1
  O  O59  1  0.29126800  0.13046200  0.75619700  1
  O  O60  1  0.51914150  0.18871750  0.99385300  1
  O  O61  1  0.80270550  0.25297650  0.25025200  1
  O  O62  1  0.86259150  0.19552450  0.58972900  1
  O  O63  1  0.72054800  0.12213800  0.27655200  1
  O  O64  1  0.98085850  0.31128250  0.00614700  1
  O  O65  1  0.96433500  0.08244100  0.01418500  1
  O  O66  1  0.80444900  0.01166800  0.27151800  1
  O  O67  1  0.69729450  0.24702350  0.74974800  1
  O  O68  1  0.69555100  0.48833200  0.72848200  1
  O  O69  1  0.29094000  0.05045200  0.00509400  1
  O  O70  1  0.77945200  0.37786200  0.72344800  1
  O  O71  1  0.19555100  0.01166800  0.22848200  1
  O  O72  1  0.29094000  0.94954800  0.50509400  1
  O  O73  1  0.80444900  0.98833200  0.77151800  1
  O  O74  1  0.96433500  0.91755900  0.51418500  1
  O  O75  1  0.80270550  0.74702350  0.75025200  1
  O  O76  1  0.70873200  0.86953800  0.24380300  1
  O  O77  1  0.03566500  0.91755900  0.98581500  1
  O  O78  1  0.98085850  0.68871750  0.50614700  1
  O  O79  1  0.72054800  0.87786200  0.77655200  1
  O  O80  1  0.20873200  0.63046200  0.74380300  1
  O  O81  1  0.13740850  0.80447550  0.41027100  1
  O  O82  1  0.70906000  0.94954800  0.99490600  1
  O  O83  1  0.20906000  0.55045200  0.49490600  1
  O  O84  1  0.77945200  0.62213800  0.22344800  1
  O  O85  1  0.69729450  0.75297650  0.24974800  1
  O  O86  1  0.53566500  0.58244100  0.48581500  1
  O  O87  1  0.86259150  0.80447550  0.08972900  1
  O  O88  1  0.51914150  0.81128250  0.49385300  1
  O  O89  1  0.63740850  0.69552450  0.91027100  1
  O  O90  1  0.29126800  0.86953800  0.25619700  1
  O  O91  1  0.79126800  0.63046200  0.75619700  1
  O  O92  1  0.01914150  0.68871750  0.99385300  1
  O  O93  1  0.30270550  0.75297650  0.25025200  1
  O  O94  1  0.36259150  0.69552450  0.58972900  1
  O  O95  1  0.22054800  0.62213800  0.27655200  1
  O  O96  1  0.48085850  0.81128250  0.00614700  1
  O  O97  1  0.46433500  0.58244100  0.01418500  1
  O  O98  1  0.30444900  0.51166800  0.27151800  1
  O  O99  1  0.19729450  0.74702350  0.74974800  1
  O  O100  1  0.19555100  0.98833200  0.72848200  1
  O  O101  1  0.79094000  0.55045200  0.00509400  1
  O  O102  1  0.27945200  0.87786200  0.72344800  1
  O  O103  1  0.69555100  0.51166800  0.22848200  1
