# generated using pymatgen
data_Li3Fe2(PO4)3
_symmetry_space_group_name_H-M   'P 1'
_cell_length_a   14.39216600
_cell_length_b   8.83758400
_cell_length_c   8.67384066
_cell_angle_alpha   90.00000000
_cell_angle_beta   124.07375673
_cell_angle_gamma   90.00000000
_symmetry_Int_Tables_number   1
_chemical_formula_structural   Li3Fe2(PO4)3
_chemical_formula_sum   'Li12 Fe8 P12 O48'
_cell_volume   913.83491781
_cell_formula_units_Z   4
loop_
 _symmetry_equiv_pos_site_id
 _symmetry_equiv_pos_as_xyz
  1  'x, y, z'
loop_
 _atom_site_type_symbol
 _atom_site_label
 _atom_site_symmetry_multiplicity
 _atom_site_fract_x
 _atom_site_fract_y
 _atom_site_fract_z
 _atom_site_occupancy
  Li  Li0  1  0.69784400  0.46243700  0.64178500  1
  Li  Li1  1  0.69784400  0.53756300  0.14178500  1
  Li  Li2  1  0.75000000  0.75000000  0.50000000  1
  Li  Li3  1  0.30215600  0.46243700  0.85821500  1
  Li  Li4  1  0.25000000  0.75000000  0.00000000  1
  Li  Li5  1  0.30215600  0.53756300  0.35821500  1
  Li  Li6  1  0.19784400  0.96243700  0.64178500  1
  Li  Li7  1  0.19784400  0.03756300  0.14178500  1
  Li  Li8  1  0.25000000  0.25000000  0.50000000  1
  Li  Li9  1  0.80215600  0.96243700  0.85821500  1
  Li  Li10  1  0.75000000  0.25000000  0.00000000  1
  Li  Li11  1  0.80215600  0.03756300  0.35821500  1
  Fe  Fe12  1  0.89268300  0.25535700  0.85294100  1
  Fe  Fe13  1  0.89268300  0.74464300  0.35294100  1
  Fe  Fe14  1  0.10731700  0.25535700  0.64705900  1
  Fe  Fe15  1  0.10731700  0.74464300  0.14705900  1
  Fe  Fe16  1  0.39268300  0.75535700  0.85294100  1
  Fe  Fe17  1  0.39268300  0.24464300  0.35294100  1
  Fe  Fe18  1  0.60731700  0.75535700  0.64705900  1
  Fe  Fe19  1  0.60731700  0.24464300  0.14705900  1
  P  P20  1  0.84768250  0.59234050  0.96802600  1
  P  P21  1  0.00000000  0.04480200  0.25000000  1
  P  P22  1  0.84768250  0.40765950  0.46802600  1
  P  P23  1  0.15231750  0.59234050  0.53197400  1
  P  P24  1  0.00000000  0.95519800  0.75000000  1
  P  P25  1  0.15231750  0.40765950  0.03197400  1
  P  P26  1  0.34768250  0.09234050  0.96802600  1
  P  P27  1  0.50000000  0.54480200  0.25000000  1
  P  P28  1  0.34768250  0.90765950  0.46802600  1
  P  P29  1  0.65231750  0.09234050  0.53197400  1
  P  P30  1  0.50000000  0.45519800  0.75000000  1
  P  P31  1  0.65231750  0.90765950  0.03197400  1
  O  O32  1  0.56809500  0.44590200  0.19923300  1
  O  O33  1  0.56809500  0.55409800  0.69923300  1
  O  O34  1  0.76912250  0.66971050  0.77360600  1
  O  O35  1  0.82691950  0.41902150  0.93006000  1
  O  O36  1  0.81644600  0.62986600  0.10736600  1
  O  O37  1  0.91116950  0.14144550  0.08066800  1
  O  O38  1  0.96702600  0.64395000  0.04312900  1
  O  O39  1  0.76912250  0.33028950  0.27360600  1
  O  O40  1  0.82691950  0.58097850  0.43006000  1
  O  O41  1  0.81644600  0.37013400  0.60736600  1
  O  O42  1  0.03297400  0.64395000  0.45687100  1
  O  O43  1  0.91116950  0.85855450  0.58066800  1
  O  O44  1  0.08883050  0.14144550  0.41933200  1
  O  O45  1  0.96702600  0.35605000  0.54312900  1
  O  O46  1  0.18355400  0.62986600  0.39263400  1
  O  O47  1  0.17308050  0.41902150  0.56994000  1
  O  O48  1  0.23087750  0.66971050  0.72639400  1
  O  O49  1  0.03297400  0.35605000  0.95687100  1
  O  O50  1  0.08883050  0.85855450  0.91933200  1
  O  O51  1  0.18355400  0.37013400  0.89263400  1
  O  O52  1  0.17308050  0.58097850  0.06994000  1
  O  O53  1  0.23087750  0.33028950  0.22639400  1
  O  O54  1  0.43190500  0.44590200  0.30076700  1
  O  O55  1  0.43190500  0.55409800  0.80076700  1
  O  O56  1  0.06809500  0.94590200  0.19923300  1
  O  O57  1  0.06809500  0.05409800  0.69923300  1
  O  O58  1  0.26912250  0.16971050  0.77360600  1
  O  O59  1  0.32691950  0.91902150  0.93006000  1
  O  O60  1  0.31644600  0.12986600  0.10736600  1
  O  O61  1  0.41116950  0.64144550  0.08066800  1
  O  O62  1  0.46702600  0.14395000  0.04312900  1
  O  O63  1  0.26912250  0.83028950  0.27360600  1
  O  O64  1  0.32691950  0.08097850  0.43006000  1
  O  O65  1  0.31644600  0.87013400  0.60736600  1
  O  O66  1  0.53297400  0.14395000  0.45687100  1
  O  O67  1  0.41116950  0.35855450  0.58066800  1
  O  O68  1  0.58883050  0.64144550  0.41933200  1
  O  O69  1  0.46702600  0.85605000  0.54312900  1
  O  O70  1  0.68355400  0.12986600  0.39263400  1
  O  O71  1  0.67308050  0.91902150  0.56994000  1
  O  O72  1  0.73087750  0.16971050  0.72639400  1
  O  O73  1  0.53297400  0.85605000  0.95687100  1
  O  O74  1  0.58883050  0.35855450  0.91933200  1
  O  O75  1  0.68355400  0.87013400  0.89263400  1
  O  O76  1  0.67308050  0.08097850  0.06994000  1
  O  O77  1  0.73087750  0.83028950  0.22639400  1
  O  O78  1  0.93190500  0.94590200  0.30076700  1
  O  O79  1  0.93190500  0.05409800  0.80076700  1
