# generated using pymatgen
data_GeXeF10
_symmetry_space_group_name_H-M   'P 1'
_cell_length_a   7.25247900
_cell_length_b   7.54744100
_cell_length_c   13.42777600
_cell_angle_alpha   90.00000000
_cell_angle_beta   90.00000000
_cell_angle_gamma   90.00000000
_symmetry_Int_Tables_number   1
_chemical_formula_structural   GeXeF10
_chemical_formula_sum   'Ge4 Xe4 F40'
_cell_volume   735.00500174
_cell_formula_units_Z   4
loop_
 _symmetry_equiv_pos_site_id
 _symmetry_equiv_pos_as_xyz
  1  'x, y, z'
loop_
 _atom_site_type_symbol
 _atom_site_label
 _atom_site_symmetry_multiplicity
 _atom_site_fract_x
 _atom_site_fract_y
 _atom_site_fract_z
 _atom_site_occupancy
  Ge  Ge0  1  0.50000000  0.50000000  0.50000000  1
  Ge  Ge1  1  0.00000000  0.00000000  0.00000000  1
  Ge  Ge2  1  0.50000000  0.00000000  0.00000000  1
  Ge  Ge3  1  0.00000000  0.50000000  0.50000000  1
  Xe  Xe4  1  0.75000000  0.85441600  0.63554500  1
  Xe  Xe5  1  0.25000000  0.14558400  0.36445500  1
  Xe  Xe6  1  0.25000000  0.35441600  0.86445500  1
  Xe  Xe7  1  0.75000000  0.64558400  0.13554500  1
  F  F8  1  0.43659700  0.27532300  0.52646600  1
  F  F9  1  0.25000000  0.92308400  0.02917200  1
  F  F10  1  0.01833300  0.89589500  0.65181900  1
  F  F11  1  0.75000000  0.42496100  0.21402700  1
  F  F12  1  0.93659700  0.77532300  0.97353400  1
  F  F13  1  0.48166700  0.60410500  0.15181900  1
  F  F14  1  0.75000000  0.75030900  0.77072400  1
  F  F15  1  0.43659700  0.22467700  0.02646600  1
  F  F16  1  0.25000000  0.53002600  0.97364700  1
  F  F17  1  0.56340300  0.72467700  0.47353400  1
  F  F18  1  0.75000000  0.42308400  0.47082800  1
  F  F19  1  0.93614500  0.54242300  0.62744000  1
  F  F20  1  0.25000000  0.57503900  0.78597300  1
  F  F21  1  0.98166700  0.39589500  0.84818100  1
  F  F22  1  0.25000000  0.92496100  0.28597300  1
  F  F23  1  0.43614500  0.45757700  0.37256000  1
  F  F24  1  0.25000000  0.96997400  0.47364700  1
  F  F25  1  0.25000000  0.25030900  0.72927600  1
  F  F26  1  0.75000000  0.07503900  0.71402700  1
  F  F27  1  0.56385500  0.54242300  0.62744000  1
  F  F28  1  0.06340300  0.22467700  0.02646600  1
  F  F29  1  0.98166700  0.10410500  0.34818100  1
  F  F30  1  0.75000000  0.74969100  0.27072400  1
  F  F31  1  0.06385500  0.45757700  0.37256000  1
  F  F32  1  0.01833300  0.60410500  0.15181900  1
  F  F33  1  0.56340300  0.77532300  0.97353400  1
  F  F34  1  0.51833300  0.10410500  0.34818100  1
  F  F35  1  0.06340300  0.27532300  0.52646600  1
  F  F36  1  0.43614500  0.04242300  0.87256000  1
  F  F37  1  0.93659700  0.72467700  0.47353400  1
  F  F38  1  0.48166700  0.89589500  0.65181900  1
  F  F39  1  0.75000000  0.46997400  0.02635300  1
  F  F40  1  0.25000000  0.57691600  0.52917200  1
  F  F41  1  0.93614500  0.95757700  0.12744000  1
  F  F42  1  0.51833300  0.39589500  0.84818100  1
  F  F43  1  0.56385500  0.95757700  0.12744000  1
  F  F44  1  0.75000000  0.07691600  0.97082800  1
  F  F45  1  0.75000000  0.03002600  0.52635300  1
  F  F46  1  0.06385500  0.04242300  0.87256000  1
  F  F47  1  0.25000000  0.24969100  0.22927600  1
