# generated using pymatgen
data_Ca3SiO5
_symmetry_space_group_name_H-M   'P 1'
_cell_length_a   7.17984633
_cell_length_b   7.17984633
_cell_length_c   25.46505419
_cell_angle_alpha   90.00000000
_cell_angle_beta   90.00000000
_cell_angle_gamma   120.00000000
_symmetry_Int_Tables_number   1
_chemical_formula_structural   Ca3SiO5
_chemical_formula_sum   'Ca27 Si9 O45'
_cell_volume   1136.85620046
_cell_formula_units_Z   9
loop_
 _symmetry_equiv_pos_site_id
 _symmetry_equiv_pos_as_xyz
  1  'x, y, z'
loop_
 _atom_site_type_symbol
 _atom_site_label
 _atom_site_symmetry_multiplicity
 _atom_site_fract_x
 _atom_site_fract_y
 _atom_site_fract_z
 _atom_site_occupancy
  Ca  Ca0  1  0.16655033  0.83344967  0.33147467  1
  Ca  Ca1  1  0.66689933  0.83344967  0.33147467  1
  Ca  Ca2  1  0.03257333  0.51628667  0.22112967  1
  Ca  Ca3  1  0.18299433  0.36598867  0.10912967  1
  Ca  Ca4  1  0.18299433  0.81700567  0.10912967  1
  Ca  Ca5  1  0.63401133  0.81700567  0.10912967  1
  Ca  Ca6  1  0.48371333  0.96742667  0.22112967  1
  Ca  Ca7  1  0.48371333  0.51628667  0.22112967  1
  Ca  Ca8  1  0.16655033  0.33310067  0.33147467  1
  Ca  Ca9  1  0.83321700  0.16678300  0.66480800  1
  Ca  Ca10  1  0.33356600  0.16678300  0.66480800  1
  Ca  Ca11  1  0.69924000  0.84962000  0.55446300  1
  Ca  Ca12  1  0.84966100  0.69932200  0.44246300  1
  Ca  Ca13  1  0.84966100  0.15033900  0.44246300  1
  Ca  Ca14  1  0.30067800  0.15033900  0.44246300  1
  Ca  Ca15  1  0.15038000  0.30076000  0.55446300  1
  Ca  Ca16  1  0.15038000  0.84962000  0.55446300  1
  Ca  Ca17  1  0.83321700  0.66643400  0.66480800  1
  Ca  Ca18  1  0.49988367  0.50011633  0.99814133  1
  Ca  Ca19  1  0.00023267  0.50011633  0.99814133  1
  Ca  Ca20  1  0.36590667  0.18295333  0.88779633  1
  Ca  Ca21  1  0.51632767  0.03265533  0.77579633  1
  Ca  Ca22  1  0.51632767  0.48367233  0.77579633  1
  Ca  Ca23  1  0.96734467  0.48367233  0.77579633  1
  Ca  Ca24  1  0.81704667  0.63409333  0.88779633  1
  Ca  Ca25  1  0.81704667  0.18295333  0.88779633  1
  Ca  Ca26  1  0.49988367  0.99976733  0.99814133  1
  Si  Si27  1  0.66666667  0.33333333  0.11191833  1
  Si  Si28  1  0.66666667  0.33333333  0.32596433  1
  Si  Si29  1  0.00000000  0.00000000  0.21366700  1
  Si  Si30  1  0.33333333  0.66666667  0.44525167  1
  Si  Si31  1  0.33333333  0.66666667  0.65929767  1
  Si  Si32  1  0.66666667  0.33333333  0.54700033  1
  Si  Si33  1  0.00000000  0.00000000  0.77858500  1
  Si  Si34  1  0.00000000  0.00000000  0.99263100  1
  Si  Si35  1  0.33333333  0.66666667  0.88033367  1
  O  O36  1  0.66666667  0.33333333  0.26041033  1
  O  O37  1  0.75173400  0.87586700  0.23653000  1
  O  O38  1  0.54109733  0.45890267  0.13233367  1
  O  O39  1  0.66666667  0.33333333  0.04762033  1
  O  O40  1  0.54109733  0.08219467  0.13233367  1
  O  O41  1  0.12413300  0.87586700  0.23653000  1
  O  O42  1  0.74960933  0.87480467  0.01472867  1
  O  O43  1  0.00000000  0.00000000  0.14789500  1
  O  O44  1  0.91780533  0.45890267  0.13233367  1
  O  O45  1  0.12519533  0.25039067  0.01472867  1
  O  O46  1  0.33333333  0.66666667  0.16636367  1
  O  O47  1  0.12519533  0.87480467  0.01472867  1
  O  O48  1  0.33333333  0.66666667  0.28062167  1
  O  O49  1  0.33333333  0.66666667  0.05089267  1
  O  O50  1  0.12413300  0.24826600  0.23653000  1
  O  O51  1  0.33333333  0.66666667  0.59374367  1
  O  O52  1  0.41840067  0.20920033  0.56986333  1
  O  O53  1  0.20776400  0.79223600  0.46566700  1
  O  O54  1  0.33333333  0.66666667  0.38095367  1
  O  O55  1  0.20776400  0.41552800  0.46566700  1
  O  O56  1  0.79079967  0.20920033  0.56986333  1
  O  O57  1  0.41627600  0.20813800  0.34806200  1
  O  O58  1  0.66666667  0.33333333  0.48122833  1
  O  O59  1  0.58447200  0.79223600  0.46566700  1
  O  O60  1  0.79186200  0.58372400  0.34806200  1
  O  O61  1  0.00000000  0.00000000  0.49969700  1
  O  O62  1  0.79186200  0.20813800  0.34806200  1
  O  O63  1  0.00000000  0.00000000  0.61395500  1
  O  O64  1  0.00000000  0.00000000  0.38422600  1
  O  O65  1  0.79079967  0.58159933  0.56986333  1
  O  O66  1  0.00000000  0.00000000  0.92707700  1
  O  O67  1  0.08506733  0.54253367  0.90319667  1
  O  O68  1  0.87443067  0.12556933  0.79900033  1
  O  O69  1  0.00000000  0.00000000  0.71428700  1
  O  O70  1  0.87443067  0.74886133  0.79900033  1
  O  O71  1  0.45746633  0.54253367  0.90319667  1
  O  O72  1  0.08294267  0.54147133  0.68139533  1
  O  O73  1  0.33333333  0.66666667  0.81456167  1
  O  O74  1  0.25113867  0.12556933  0.79900033  1
  O  O75  1  0.45852867  0.91705733  0.68139533  1
  O  O76  1  0.66666667  0.33333333  0.83303033  1
  O  O77  1  0.45852867  0.54147133  0.68139533  1
  O  O78  1  0.66666667  0.33333333  0.94728833  1
  O  O79  1  0.66666667  0.33333333  0.71755933  1
  O  O80  1  0.45746633  0.91493267  0.90319667  1
