# generated using pymatgen
data_Ca3N2
_symmetry_space_group_name_H-M   'P 1'
_cell_length_a   15.07261200
_cell_length_b   3.78927800
_cell_length_c   9.36308238
_cell_angle_alpha   90.00000000
_cell_angle_beta   100.53057008
_cell_angle_gamma   90.00000000
_symmetry_Int_Tables_number   1
_chemical_formula_structural   Ca3N2
_chemical_formula_sum   'Ca18 N12'
_cell_volume   525.75927750
_cell_formula_units_Z   6
loop_
 _symmetry_equiv_pos_site_id
 _symmetry_equiv_pos_as_xyz
  1  'x, y, z'
loop_
 _atom_site_type_symbol
 _atom_site_label
 _atom_site_symmetry_multiplicity
 _atom_site_fract_x
 _atom_site_fract_y
 _atom_site_fract_z
 _atom_site_occupancy
  Ca  Ca0  1  0.87431100  0.00000000  0.72222800  1
  Ca  Ca1  1  0.71028100  0.50000000  0.62055700  1
  Ca  Ca2  1  0.67202100  0.50000000  0.96481600  1
  Ca  Ca3  1  0.78971900  0.00000000  0.37944300  1
  Ca  Ca4  1  0.82797900  0.00000000  0.03518400  1
  Ca  Ca5  1  0.62568900  0.50000000  0.27777200  1
  Ca  Ca6  1  0.53176200  0.00000000  0.66054100  1
  Ca  Ca7  1  0.00000000  0.50000000  0.00000000  1
  Ca  Ca8  1  0.96823800  0.50000000  0.33945900  1
  Ca  Ca9  1  0.37431100  0.50000000  0.72222800  1
  Ca  Ca10  1  0.21028100  0.00000000  0.62055700  1
  Ca  Ca11  1  0.17202100  0.00000000  0.96481600  1
  Ca  Ca12  1  0.28971900  0.50000000  0.37944300  1
  Ca  Ca13  1  0.32797900  0.50000000  0.03518400  1
  Ca  Ca14  1  0.12568900  0.00000000  0.27777200  1
  Ca  Ca15  1  0.03176200  0.50000000  0.66054100  1
  Ca  Ca16  1  0.50000000  0.00000000  0.00000000  1
  Ca  Ca17  1  0.46823800  0.00000000  0.33945900  1
  N  N18  1  0.64104300  0.00000000  0.48824200  1
  N  N19  1  0.96934700  0.00000000  0.18770700  1
  N  N20  1  0.53065300  0.50000000  0.81229300  1
  N  N21  1  0.68255500  0.00000000  0.13024500  1
  N  N22  1  0.85895700  0.50000000  0.51175800  1
  N  N23  1  0.81744500  0.50000000  0.86975500  1
  N  N24  1  0.14104300  0.50000000  0.48824200  1
  N  N25  1  0.46934700  0.50000000  0.18770700  1
  N  N26  1  0.03065300  0.00000000  0.81229300  1
  N  N27  1  0.18255500  0.50000000  0.13024500  1
  N  N28  1  0.35895700  0.00000000  0.51175800  1
  N  N29  1  0.31744500  0.00000000  0.86975500  1
