# generated using pymatgen
data_Cs2Zr(Si2O5)3
_symmetry_space_group_name_H-M   'P 1'
_cell_length_a   27.01087400
_cell_length_b   7.61301200
_cell_length_c   11.78537985
_cell_angle_alpha   90.00000000
_cell_angle_beta   107.36406363
_cell_angle_gamma   90.00000000
_symmetry_Int_Tables_number   1
_chemical_formula_structural   Cs2Zr(Si2O5)3
_chemical_formula_sum   'Cs12 Zr6 Si36 O90'
_cell_volume   2313.03269637
_cell_formula_units_Z   6
loop_
 _symmetry_equiv_pos_site_id
 _symmetry_equiv_pos_as_xyz
  1  'x, y, z'
loop_
 _atom_site_type_symbol
 _atom_site_label
 _atom_site_symmetry_multiplicity
 _atom_site_fract_x
 _atom_site_fract_y
 _atom_site_fract_z
 _atom_site_occupancy
  Cs  Cs0  1  0.39741900  0.50000000  0.37085600  1
  Cs  Cs1  1  0.07602700  0.50000000  0.01253000  1
  Cs  Cs2  1  0.24727500  0.00000000  0.63827000  1
  Cs  Cs3  1  0.25272500  0.50000000  0.36173000  1
  Cs  Cs4  1  0.42397300  0.00000000  0.98747000  1
  Cs  Cs5  1  0.10258100  0.00000000  0.62914400  1
  Cs  Cs6  1  0.89741900  0.00000000  0.37085600  1
  Cs  Cs7  1  0.57602700  0.00000000  0.01253000  1
  Cs  Cs8  1  0.74727500  0.50000000  0.63827000  1
  Cs  Cs9  1  0.75272500  0.00000000  0.36173000  1
  Cs  Cs10  1  0.92397300  0.50000000  0.98747000  1
  Cs  Cs11  1  0.60258100  0.50000000  0.62914400  1
  Zr  Zr12  1  0.00000000  0.00000000  0.00000000  1
  Zr  Zr13  1  0.32055400  0.00000000  0.35810300  1
  Zr  Zr14  1  0.17944600  0.50000000  0.64189700  1
  Zr  Zr15  1  0.50000000  0.50000000  0.00000000  1
  Zr  Zr16  1  0.82055400  0.50000000  0.35810300  1
  Zr  Zr17  1  0.67944600  0.00000000  0.64189700  1
  Si  Si18  1  0.37188000  0.80222400  0.62905100  1
  Si  Si19  1  0.31690100  0.50000000  0.73218300  1
  Si  Si20  1  0.36295900  0.50000000  0.00180500  1
  Si  Si21  1  0.30598450  0.19751150  0.09207900  1
  Si  Si22  1  0.12812000  0.69777600  0.37094900  1
  Si  Si23  1  0.01255650  0.80368250  0.26808200  1
  Si  Si24  1  0.01255650  0.19631750  0.26808200  1
  Si  Si25  1  0.19401550  0.30248850  0.90792100  1
  Si  Si26  1  0.18309900  0.00000000  0.26781700  1
  Si  Si27  1  0.45838100  0.00000000  0.36755200  1
  Si  Si28  1  0.04161900  0.50000000  0.63244800  1
  Si  Si29  1  0.19401550  0.69751150  0.90792100  1
  Si  Si30  1  0.48744350  0.30368250  0.73191800  1
  Si  Si31  1  0.12812000  0.30222400  0.37094900  1
  Si  Si32  1  0.48744350  0.69631750  0.73191800  1
  Si  Si33  1  0.13704100  0.00000000  0.99819500  1
  Si  Si34  1  0.37188000  0.19777600  0.62905100  1
  Si  Si35  1  0.30598450  0.80248850  0.09207900  1
  Si  Si36  1  0.87188000  0.30222400  0.62905100  1
  Si  Si37  1  0.81690100  0.00000000  0.73218300  1
  Si  Si38  1  0.86295900  0.00000000  0.00180500  1
  Si  Si39  1  0.80598450  0.69751150  0.09207900  1
  Si  Si40  1  0.62812000  0.19777600  0.37094900  1
  Si  Si41  1  0.51255650  0.30368250  0.26808200  1
  Si  Si42  1  0.51255650  0.69631750  0.26808200  1
  Si  Si43  1  0.69401550  0.80248850  0.90792100  1
  Si  Si44  1  0.68309900  0.50000000  0.26781700  1
  Si  Si45  1  0.95838100  0.50000000  0.36755200  1
  Si  Si46  1  0.54161900  0.00000000  0.63244800  1
  Si  Si47  1  0.69401550  0.19751150  0.90792100  1
  Si  Si48  1  0.98744350  0.80368250  0.73191800  1
  Si  Si49  1  0.62812000  0.80222400  0.37094900  1
  Si  Si50  1  0.98744350  0.19631750  0.73191800  1
  Si  Si51  1  0.63704100  0.50000000  0.99819500  1
  Si  Si52  1  0.87188000  0.69777600  0.62905100  1
  Si  Si53  1  0.80598450  0.30248850  0.09207900  1
  O  O54  1  0.31863400  0.50000000  0.87170000  1
  O  O55  1  0.33538200  0.80273600  0.49306800  1
  O  O56  1  0.42131700  0.50000000  0.99477600  1
  O  O57  1  0.15143200  0.82346600  0.28707900  1
  O  O58  1  0.19418000  0.70185700  0.77093600  1
  O  O59  1  0.25000000  0.75000000  0.00000000  1
  O  O60  1  0.25000000  0.25000000  0.00000000  1
  O  O61  1  0.37464000  0.00000000  0.68990100  1
  O  O62  1  0.18136600  0.00000000  0.12830000  1
  O  O63  1  0.16461800  0.69726400  0.50693200  1
  O  O64  1  0.07868300  0.00000000  0.00522400  1
  O  O65  1  0.06933150  0.23986850  0.36409200  1
  O  O66  1  0.46906350  0.82698850  0.29396100  1
  O  O67  1  0.16461800  0.30273600  0.50693200  1
  O  O68  1  0.30582000  0.20185700  0.22906400  1
  O  O69  1  0.35194050  0.67383350  0.07414200  1
  O  O70  1  0.24165900  0.00000000  0.35493000  1
  O  O71  1  0.03093650  0.67301150  0.70603900  1
  O  O72  1  0.15143200  0.17653400  0.28707900  1
  O  O73  1  0.17883500  0.50000000  0.94552600  1
  O  O74  1  0.33538200  0.19726400  0.49306800  1
  O  O75  1  0.43066850  0.73986850  0.63590800  1
  O  O76  1  0.00362100  0.00000000  0.69473800  1
  O  O77  1  0.14805950  0.17383350  0.92585800  1
  O  O78  1  0.49637900  0.50000000  0.30526200  1
  O  O79  1  0.10063200  0.50000000  0.63067200  1
  O  O80  1  0.19418000  0.29814300  0.77093600  1
  O  O81  1  0.01330100  0.79830000  0.13192400  1
  O  O82  1  0.06933150  0.76013150  0.36409200  1
  O  O83  1  0.03093650  0.32698850  0.70603900  1
  O  O84  1  0.46906350  0.17301150  0.29396100  1
  O  O85  1  0.25834100  0.50000000  0.64507000  1
  O  O86  1  0.39936800  0.00000000  0.36932800  1
  O  O87  1  0.12536000  0.50000000  0.31009900  1
  O  O88  1  0.48669900  0.29830000  0.86807600  1
  O  O89  1  0.30582000  0.79814300  0.22906400  1
  O  O90  1  0.48669900  0.70170000  0.86807600  1
  O  O91  1  0.00000000  0.50000000  0.50000000  1
  O  O92  1  0.14805950  0.82616650  0.92585800  1
  O  O93  1  0.34856800  0.67653400  0.71292100  1
  O  O94  1  0.43066850  0.26013150  0.63590800  1
  O  O95  1  0.35194050  0.32616650  0.07414200  1
  O  O96  1  0.01330100  0.20170000  0.13192400  1
  O  O97  1  0.34856800  0.32346600  0.71292100  1
  O  O98  1  0.32116500  0.00000000  0.05447400  1
  O  O99  1  0.81863400  0.00000000  0.87170000  1
  O  O100  1  0.83538200  0.30273600  0.49306800  1
  O  O101  1  0.92131700  0.00000000  0.99477600  1
  O  O102  1  0.65143200  0.32346600  0.28707900  1
  O  O103  1  0.69418000  0.20185700  0.77093600  1
  O  O104  1  0.75000000  0.25000000  0.00000000  1
  O  O105  1  0.75000000  0.75000000  0.00000000  1
  O  O106  1  0.87464000  0.50000000  0.68990100  1
  O  O107  1  0.68136600  0.50000000  0.12830000  1
  O  O108  1  0.66461800  0.19726400  0.50693200  1
  O  O109  1  0.57868300  0.50000000  0.00522400  1
  O  O110  1  0.56933150  0.73986850  0.36409200  1
  O  O111  1  0.96906350  0.32698850  0.29396100  1
  O  O112  1  0.66461800  0.80273600  0.50693200  1
  O  O113  1  0.80582000  0.70185700  0.22906400  1
  O  O114  1  0.85194050  0.17383350  0.07414200  1
  O  O115  1  0.74165900  0.50000000  0.35493000  1
  O  O116  1  0.53093650  0.17301150  0.70603900  1
  O  O117  1  0.65143200  0.67653400  0.28707900  1
  O  O118  1  0.67883500  0.00000000  0.94552600  1
  O  O119  1  0.83538200  0.69726400  0.49306800  1
  O  O120  1  0.93066850  0.23986850  0.63590800  1
  O  O121  1  0.50362100  0.50000000  0.69473800  1
  O  O122  1  0.64805950  0.67383350  0.92585800  1
  O  O123  1  0.99637900  0.00000000  0.30526200  1
  O  O124  1  0.60063200  0.00000000  0.63067200  1
  O  O125  1  0.69418000  0.79814300  0.77093600  1
  O  O126  1  0.51330100  0.29830000  0.13192400  1
  O  O127  1  0.56933150  0.26013150  0.36409200  1
  O  O128  1  0.53093650  0.82698850  0.70603900  1
  O  O129  1  0.96906350  0.67301150  0.29396100  1
  O  O130  1  0.75834100  0.00000000  0.64507000  1
  O  O131  1  0.89936800  0.50000000  0.36932800  1
  O  O132  1  0.62536000  0.00000000  0.31009900  1
  O  O133  1  0.98669900  0.79830000  0.86807600  1
  O  O134  1  0.80582000  0.29814300  0.22906400  1
  O  O135  1  0.98669900  0.20170000  0.86807600  1
  O  O136  1  0.50000000  0.00000000  0.50000000  1
  O  O137  1  0.64805950  0.32616650  0.92585800  1
  O  O138  1  0.84856800  0.17653400  0.71292100  1
  O  O139  1  0.93066850  0.76013150  0.63590800  1
  O  O140  1  0.85194050  0.82616650  0.07414200  1
  O  O141  1  0.51330100  0.70170000  0.13192400  1
  O  O142  1  0.84856800  0.82346600  0.71292100  1
  O  O143  1  0.82116500  0.50000000  0.05447400  1
