# generated using pymatgen
data_TiS2
_symmetry_space_group_name_H-M   'P 1'
_cell_length_a   3.40960168
_cell_length_b   3.40960168
_cell_length_c   25.83190380
_cell_angle_alpha   90.00000000
_cell_angle_beta   90.00000000
_cell_angle_gamma   120.00000000
_symmetry_Int_Tables_number   1
_chemical_formula_structural   TiS2
_chemical_formula_sum   'Ti3 S6'
_cell_volume   260.07244457
_cell_formula_units_Z   3
loop_
 _symmetry_equiv_pos_site_id
 _symmetry_equiv_pos_as_xyz
  1  'x, y, z'
loop_
 _atom_site_type_symbol
 _atom_site_label
 _atom_site_symmetry_multiplicity
 _atom_site_fract_x
 _atom_site_fract_y
 _atom_site_fract_z
 _atom_site_occupancy
  Ti  Ti0  1  0.00000000  0.00000000  0.00000000  1
  Ti  Ti1  1  0.66666667  0.33333333  0.33333333  1
  Ti  Ti2  1  0.33333333  0.66666667  0.66666667  1
  S  S3  1  0.33333333  0.66666667  0.05517667  1
  S  S4  1  0.33333333  0.66666667  0.27815667  1
  S  S5  1  0.00000000  0.00000000  0.38851000  1
  S  S6  1  0.00000000  0.00000000  0.61149000  1
  S  S7  1  0.66666667  0.33333333  0.72184333  1
  S  S8  1  0.66666667  0.33333333  0.94482333  1
