# generated using pymatgen
data_CuP4Se4I
_symmetry_space_group_name_H-M   'P 1'
_cell_length_a   12.80750000
_cell_length_b   14.92969200
_cell_length_c   12.60900500
_cell_angle_alpha   90.00000000
_cell_angle_beta   90.00000000
_cell_angle_gamma   90.00000000
_symmetry_Int_Tables_number   1
_chemical_formula_structural   CuP4Se4I
_chemical_formula_sum   'Cu8 P32 Se32 I8'
_cell_volume   2410.99344599
_cell_formula_units_Z   8
loop_
 _symmetry_equiv_pos_site_id
 _symmetry_equiv_pos_as_xyz
  1  'x, y, z'
loop_
 _atom_site_type_symbol
 _atom_site_label
 _atom_site_symmetry_multiplicity
 _atom_site_fract_x
 _atom_site_fract_y
 _atom_site_fract_z
 _atom_site_occupancy
  Cu  Cu0  1  0.50000000  0.59914700  0.50000000  1
  Cu  Cu1  1  0.50000000  0.90085300  0.00000000  1
  Cu  Cu2  1  0.50000000  0.09914700  0.00000000  1
  Cu  Cu3  1  0.50000000  0.40085300  0.50000000  1
  Cu  Cu4  1  0.00000000  0.09914700  0.50000000  1
  Cu  Cu5  1  0.00000000  0.40085300  0.00000000  1
  Cu  Cu6  1  0.00000000  0.59914700  0.00000000  1
  Cu  Cu7  1  0.00000000  0.90085300  0.50000000  1
  P  P8  1  0.53876900  0.18272000  0.14537300  1
  P  P9  1  0.53876900  0.68272000  0.35462700  1
  P  P10  1  0.53876900  0.31728000  0.35462700  1
  P  P11  1  0.14493700  0.10903400  0.24505800  1
  P  P12  1  0.46123100  0.68272000  0.64537300  1
  P  P13  1  0.85506300  0.10903400  0.75494200  1
  P  P14  1  0.46123100  0.81728000  0.85462700  1
  P  P15  1  0.46123100  0.18272000  0.85462700  1
  P  P16  1  0.85506300  0.89096600  0.75494200  1
  P  P17  1  0.35506300  0.89096600  0.74505800  1
  P  P18  1  0.53876900  0.81728000  0.14537300  1
  P  P19  1  0.35506300  0.10903400  0.74505800  1
  P  P20  1  0.64493700  0.10903400  0.25494200  1
  P  P21  1  0.14493700  0.89096600  0.24505800  1
  P  P22  1  0.64493700  0.89096600  0.25494200  1
  P  P23  1  0.46123100  0.31728000  0.64537300  1
  P  P24  1  0.03876900  0.68272000  0.14537300  1
  P  P25  1  0.03876900  0.18272000  0.35462700  1
  P  P26  1  0.03876900  0.81728000  0.35462700  1
  P  P27  1  0.64493700  0.60903400  0.24505800  1
  P  P28  1  0.96123100  0.18272000  0.64537300  1
  P  P29  1  0.35506300  0.60903400  0.75494200  1
  P  P30  1  0.96123100  0.31728000  0.85462700  1
  P  P31  1  0.96123100  0.68272000  0.85462700  1
  P  P32  1  0.35506300  0.39096600  0.75494200  1
  P  P33  1  0.85506300  0.39096600  0.74505800  1
  P  P34  1  0.03876900  0.31728000  0.14537300  1
  P  P35  1  0.85506300  0.60903400  0.74505800  1
  P  P36  1  0.14493700  0.60903400  0.25494200  1
  P  P37  1  0.64493700  0.39096600  0.24505800  1
  P  P38  1  0.14493700  0.39096600  0.25494200  1
  P  P39  1  0.96123100  0.81728000  0.64537300  1
  Se  Se40  1  0.58339200  0.75000000  0.75000000  1
  Se  Se41  1  0.41660800  0.75000000  0.25000000  1
  Se  Se42  1  0.47028800  0.00000000  0.69113100  1
  Se  Se43  1  0.35091500  0.70289900  0.90008200  1
  Se  Se44  1  0.35091500  0.29710100  0.90008200  1
  Se  Se45  1  0.52971200  0.00000000  0.30886900  1
  Se  Se46  1  0.58339200  0.25000000  0.75000000  1
  Se  Se47  1  0.41660800  0.25000000  0.25000000  1
  Se  Se48  1  0.97028800  0.00000000  0.80886900  1
  Se  Se49  1  0.64908500  0.20289900  0.40008200  1
  Se  Se50  1  0.64908500  0.70289900  0.09991800  1
  Se  Se51  1  0.35091500  0.20289900  0.59991800  1
  Se  Se52  1  0.02971200  0.00000000  0.19113100  1
  Se  Se53  1  0.64908500  0.29710100  0.09991800  1
  Se  Se54  1  0.35091500  0.79710100  0.59991800  1
  Se  Se55  1  0.64908500  0.79710100  0.40008200  1
  Se  Se56  1  0.08339200  0.25000000  0.75000000  1
  Se  Se57  1  0.91660800  0.25000000  0.25000000  1
  Se  Se58  1  0.97028800  0.50000000  0.69113100  1
  Se  Se59  1  0.85091500  0.20289900  0.90008200  1
  Se  Se60  1  0.85091500  0.79710100  0.90008200  1
  Se  Se61  1  0.02971200  0.50000000  0.30886900  1
  Se  Se62  1  0.08339200  0.75000000  0.75000000  1
  Se  Se63  1  0.91660800  0.75000000  0.25000000  1
  Se  Se64  1  0.47028800  0.50000000  0.80886900  1
  Se  Se65  1  0.14908500  0.70289900  0.40008200  1
  Se  Se66  1  0.14908500  0.20289900  0.09991800  1
  Se  Se67  1  0.85091500  0.70289900  0.59991800  1
  Se  Se68  1  0.52971200  0.50000000  0.19113100  1
  Se  Se69  1  0.14908500  0.79710100  0.09991800  1
  Se  Se70  1  0.85091500  0.29710100  0.59991800  1
  Se  Se71  1  0.14908500  0.29710100  0.40008200  1
  I  I72  1  0.82984400  0.00000000  0.47590900  1
  I  I73  1  0.17015600  0.00000000  0.52409100  1
  I  I74  1  0.32984400  0.00000000  0.02409100  1
  I  I75  1  0.67015600  0.00000000  0.97590900  1
  I  I76  1  0.32984400  0.50000000  0.47590900  1
  I  I77  1  0.67015600  0.50000000  0.52409100  1
  I  I78  1  0.82984400  0.50000000  0.02409100  1
  I  I79  1  0.17015600  0.50000000  0.97590900  1
