# generated using pymatgen
data_CuO
_symmetry_space_group_name_H-M   'P 1'
_cell_length_a   5.74839200
_cell_length_b   5.74839200
_cell_length_c   12.65157300
_cell_angle_alpha   90.00000000
_cell_angle_beta   90.00000000
_cell_angle_gamma   90.00000000
_symmetry_Int_Tables_number   1
_chemical_formula_structural   CuO
_chemical_formula_sum   'Cu16 O16'
_cell_volume   418.05871214
_cell_formula_units_Z   16
loop_
 _symmetry_equiv_pos_site_id
 _symmetry_equiv_pos_as_xyz
  1  'x, y, z'
loop_
 _atom_site_type_symbol
 _atom_site_label
 _atom_site_symmetry_multiplicity
 _atom_site_fract_x
 _atom_site_fract_y
 _atom_site_fract_z
 _atom_site_occupancy
  Cu  Cu0  1  0.24605500  0.50000000  0.75327400  1
  Cu  Cu1  1  0.50000000  0.24605500  0.24672600  1
  Cu  Cu2  1  0.50000000  0.75394500  0.24672600  1
  Cu  Cu3  1  0.75394500  0.50000000  0.75327400  1
  Cu  Cu4  1  0.74605500  0.00000000  0.74672600  1
  Cu  Cu5  1  0.00000000  0.74605500  0.25327400  1
  Cu  Cu6  1  0.00000000  0.25394500  0.25327400  1
  Cu  Cu7  1  0.25394500  0.00000000  0.74672600  1
  Cu  Cu8  1  0.24742400  0.50000000  0.09883200  1
  Cu  Cu9  1  0.50000000  0.24742400  0.90116800  1
  Cu  Cu10  1  0.50000000  0.75257600  0.90116800  1
  Cu  Cu11  1  0.75257600  0.50000000  0.09883200  1
  Cu  Cu12  1  0.74742400  0.00000000  0.40116800  1
  Cu  Cu13  1  0.00000000  0.74742400  0.59883200  1
  Cu  Cu14  1  0.00000000  0.25257600  0.59883200  1
  Cu  Cu15  1  0.25257600  0.00000000  0.40116800  1
  O  O16  1  0.28594500  0.00000000  0.89032800  1
  O  O17  1  0.28575800  0.50000000  0.89739400  1
  O  O18  1  0.50000000  0.78594500  0.39032800  1
  O  O19  1  0.50000000  0.21405500  0.39032800  1
  O  O20  1  0.50000000  0.28575800  0.10260600  1
  O  O21  1  0.50000000  0.71424200  0.10260600  1
  O  O22  1  0.71424200  0.50000000  0.89739400  1
  O  O23  1  0.71405500  0.00000000  0.89032800  1
  O  O24  1  0.78594500  0.50000000  0.60967200  1
  O  O25  1  0.78575800  0.00000000  0.60260600  1
  O  O26  1  0.00000000  0.71405500  0.10967200  1
  O  O27  1  0.00000000  0.28594500  0.10967200  1
  O  O28  1  0.00000000  0.78575800  0.39739400  1
  O  O29  1  0.00000000  0.21424200  0.39739400  1
  O  O30  1  0.21424200  0.00000000  0.60260600  1
  O  O31  1  0.21405500  0.50000000  0.60967200  1
