# generated using pymatgen
data_SbCl3F2
_symmetry_space_group_name_H-M   'P 1'
_cell_length_a   13.34323600
_cell_length_b   13.34323600
_cell_length_c   7.41763600
_cell_angle_alpha   90.00000000
_cell_angle_beta   90.00000000
_cell_angle_gamma   90.00000000
_symmetry_Int_Tables_number   1
_chemical_formula_structural   SbCl3F2
_chemical_formula_sum   'Sb8 Cl24 F16'
_cell_volume   1320.65035522
_cell_formula_units_Z   8
loop_
 _symmetry_equiv_pos_site_id
 _symmetry_equiv_pos_as_xyz
  1  'x, y, z'
loop_
 _atom_site_type_symbol
 _atom_site_label
 _atom_site_symmetry_multiplicity
 _atom_site_fract_x
 _atom_site_fract_y
 _atom_site_fract_z
 _atom_site_occupancy
  Sb  Sb0  1  0.54651800  0.28070900  0.48606900  1
  Sb  Sb1  1  0.21929100  0.04651800  0.98606900  1
  Sb  Sb2  1  0.45348200  0.71929100  0.48606900  1
  Sb  Sb3  1  0.78070900  0.95348200  0.98606900  1
  Sb  Sb4  1  0.04651800  0.78070900  0.98606900  1
  Sb  Sb5  1  0.71929100  0.54651800  0.48606900  1
  Sb  Sb6  1  0.95348200  0.21929100  0.98606900  1
  Sb  Sb7  1  0.28070900  0.45348200  0.48606900  1
  Cl  Cl8  1  0.35815300  0.94196500  0.97557000  1
  Cl  Cl9  1  0.55803500  0.85815300  0.47557000  1
  Cl  Cl10  1  0.80697300  0.96031500  0.29581900  1
  Cl  Cl11  1  0.64184700  0.05803500  0.97557000  1
  Cl  Cl12  1  0.44196500  0.14184700  0.47557000  1
  Cl  Cl13  1  0.70074700  0.20130500  0.47624100  1
  Cl  Cl14  1  0.29869500  0.20074700  0.97624100  1
  Cl  Cl15  1  0.70130500  0.79925300  0.97624100  1
  Cl  Cl16  1  0.19302700  0.03968500  0.29581900  1
  Cl  Cl17  1  0.46031500  0.69302700  0.79581900  1
  Cl  Cl18  1  0.53968500  0.30697300  0.79581900  1
  Cl  Cl19  1  0.29925300  0.79869500  0.47624100  1
  Cl  Cl20  1  0.85815300  0.44196500  0.47557000  1
  Cl  Cl21  1  0.05803500  0.35815300  0.97557000  1
  Cl  Cl22  1  0.30697300  0.46031500  0.79581900  1
  Cl  Cl23  1  0.14184700  0.55803500  0.47557000  1
  Cl  Cl24  1  0.94196500  0.64184700  0.97557000  1
  Cl  Cl25  1  0.20074700  0.70130500  0.97624100  1
  Cl  Cl26  1  0.79869500  0.70074700  0.47624100  1
  Cl  Cl27  1  0.20130500  0.29925300  0.47624100  1
  Cl  Cl28  1  0.69302700  0.53968500  0.79581900  1
  Cl  Cl29  1  0.96031500  0.19302700  0.29581900  1
  Cl  Cl30  1  0.03968500  0.80697300  0.29581900  1
  Cl  Cl31  1  0.79925300  0.29869500  0.97624100  1
  F  F32  1  0.87889050  0.07829750  0.97600450  1
  F  F33  1  0.80220750  0.95872550  0.73229950  1
  F  F34  1  0.45872550  0.69779250  0.23229950  1
  F  F35  1  0.54127450  0.30220750  0.23229950  1
  F  F36  1  0.42170250  0.37889050  0.47600450  1
  F  F37  1  0.57829750  0.62110950  0.47600450  1
  F  F38  1  0.19779250  0.04127450  0.73229950  1
  F  F39  1  0.12110950  0.92170250  0.97600450  1
  F  F40  1  0.37889050  0.57829750  0.47600450  1
  F  F41  1  0.30220750  0.45872550  0.23229950  1
  F  F42  1  0.95872550  0.19779250  0.73229950  1
  F  F43  1  0.04127450  0.80220750  0.73229950  1
  F  F44  1  0.92170250  0.87889050  0.97600450  1
  F  F45  1  0.07829750  0.12110950  0.97600450  1
  F  F46  1  0.69779250  0.54127450  0.23229950  1
  F  F47  1  0.62110950  0.42170250  0.47600450  1
