# generated using pymatgen
data_KSn
_symmetry_space_group_name_H-M   'P 1'
_cell_length_a   11.52310000
_cell_length_b   11.52310000
_cell_length_c   18.89348600
_cell_angle_alpha   90.00000000
_cell_angle_beta   90.00000000
_cell_angle_gamma   90.00000000
_symmetry_Int_Tables_number   1
_chemical_formula_structural   KSn
_chemical_formula_sum   'K32 Sn32'
_cell_volume   2508.71171436
_cell_formula_units_Z   32
loop_
 _symmetry_equiv_pos_site_id
 _symmetry_equiv_pos_as_xyz
  1  'x, y, z'
loop_
 _atom_site_type_symbol
 _atom_site_label
 _atom_site_symmetry_multiplicity
 _atom_site_fract_x
 _atom_site_fract_y
 _atom_site_fract_z
 _atom_site_occupancy
  K  K0  1  0.25000000  0.36245600  0.12500000  1
  K  K1  1  0.62179700  0.37820300  0.25000000  1
  K  K2  1  0.87820300  0.87820300  0.25000000  1
  K  K3  1  0.75000000  0.13754400  0.12500000  1
  K  K4  1  0.12179700  0.12179700  0.25000000  1
  K  K5  1  0.37820300  0.62179700  0.25000000  1
  K  K6  1  0.36245600  0.25000000  0.37500000  1
  K  K7  1  0.75000000  0.63754400  0.12500000  1
  K  K8  1  0.62179700  0.87820300  0.00000000  1
  K  K9  1  0.25000000  0.86245600  0.12500000  1
  K  K10  1  0.63754400  0.75000000  0.37500000  1
  K  K11  1  0.37820300  0.12179700  0.00000000  1
  K  K12  1  0.13754400  0.75000000  0.37500000  1
  K  K13  1  0.87820300  0.37820300  0.00000000  1
  K  K14  1  0.12179700  0.62179700  0.00000000  1
  K  K15  1  0.86245600  0.25000000  0.37500000  1
  K  K16  1  0.75000000  0.86245600  0.62500000  1
  K  K17  1  0.12179700  0.87820300  0.75000000  1
  K  K18  1  0.37820300  0.37820300  0.75000000  1
  K  K19  1  0.25000000  0.63754400  0.62500000  1
  K  K20  1  0.62179700  0.62179700  0.75000000  1
  K  K21  1  0.87820300  0.12179700  0.75000000  1
  K  K22  1  0.86245600  0.75000000  0.87500000  1
  K  K23  1  0.25000000  0.13754400  0.62500000  1
  K  K24  1  0.12179700  0.37820300  0.50000000  1
  K  K25  1  0.75000000  0.36245600  0.62500000  1
  K  K26  1  0.13754400  0.25000000  0.87500000  1
  K  K27  1  0.87820300  0.62179700  0.50000000  1
  K  K28  1  0.63754400  0.25000000  0.87500000  1
  K  K29  1  0.37820300  0.87820300  0.50000000  1
  K  K30  1  0.62179700  0.12179700  0.50000000  1
  K  K31  1  0.36245600  0.75000000  0.87500000  1
  Sn  Sn32  1  0.88691050  0.56505350  0.30628450  1
  Sn  Sn33  1  0.11308950  0.06505350  0.44371550  1
  Sn  Sn34  1  0.56505350  0.88691050  0.19371550  1
  Sn  Sn35  1  0.38691050  0.93494650  0.30628450  1
  Sn  Sn36  1  0.06505350  0.61308950  0.19371550  1
  Sn  Sn37  1  0.43494650  0.61308950  0.05628450  1
  Sn  Sn38  1  0.56505350  0.38691050  0.05628450  1
  Sn  Sn39  1  0.93494650  0.38691050  0.19371550  1
  Sn  Sn40  1  0.06505350  0.11308950  0.05628450  1
  Sn  Sn41  1  0.61308950  0.43494650  0.44371550  1
  Sn  Sn42  1  0.88691050  0.93494650  0.44371550  1
  Sn  Sn43  1  0.43494650  0.11308950  0.19371550  1
  Sn  Sn44  1  0.61308950  0.06505350  0.30628450  1
  Sn  Sn45  1  0.11308950  0.43494650  0.30628450  1
  Sn  Sn46  1  0.93494650  0.88691050  0.05628450  1
  Sn  Sn47  1  0.38691050  0.56505350  0.44371550  1
  Sn  Sn48  1  0.38691050  0.06505350  0.80628450  1
  Sn  Sn49  1  0.61308950  0.56505350  0.94371550  1
  Sn  Sn50  1  0.06505350  0.38691050  0.69371550  1
  Sn  Sn51  1  0.88691050  0.43494650  0.80628450  1
  Sn  Sn52  1  0.56505350  0.11308950  0.69371550  1
  Sn  Sn53  1  0.93494650  0.11308950  0.55628450  1
  Sn  Sn54  1  0.06505350  0.88691050  0.55628450  1
  Sn  Sn55  1  0.43494650  0.88691050  0.69371550  1
  Sn  Sn56  1  0.56505350  0.61308950  0.55628450  1
  Sn  Sn57  1  0.11308950  0.93494650  0.94371550  1
  Sn  Sn58  1  0.38691050  0.43494650  0.94371550  1
  Sn  Sn59  1  0.93494650  0.61308950  0.69371550  1
  Sn  Sn60  1  0.11308950  0.56505350  0.80628450  1
  Sn  Sn61  1  0.61308950  0.93494650  0.80628450  1
  Sn  Sn62  1  0.43494650  0.38691050  0.55628450  1
  Sn  Sn63  1  0.88691050  0.06505350  0.94371550  1
