# generated using pymatgen
data_NbP2NCl12
_symmetry_space_group_name_H-M   'P 1'
_cell_length_a   13.96983000
_cell_length_b   9.03945800
_cell_length_c   15.92642667
_cell_angle_alpha   90.00000000
_cell_angle_beta   103.76416350
_cell_angle_gamma   90.00000000
_symmetry_Int_Tables_number   1
_chemical_formula_structural   NbP2NCl12
_chemical_formula_sum   'Nb4 P8 N4 Cl48'
_cell_volume   1953.42964076
_cell_formula_units_Z   4
loop_
 _symmetry_equiv_pos_site_id
 _symmetry_equiv_pos_as_xyz
  1  'x, y, z'
loop_
 _atom_site_type_symbol
 _atom_site_label
 _atom_site_symmetry_multiplicity
 _atom_site_fract_x
 _atom_site_fract_y
 _atom_site_fract_z
 _atom_site_occupancy
  Nb  Nb0  1  0.00000000  0.00000000  0.50000000  1
  Nb  Nb1  1  0.00000000  0.00000000  0.00000000  1
  Nb  Nb2  1  0.50000000  0.50000000  0.50000000  1
  Nb  Nb3  1  0.50000000  0.50000000  0.00000000  1
  P  P4  1  0.60987800  0.92995700  0.77071500  1
  P  P5  1  0.39012200  0.92995700  0.72928500  1
  P  P6  1  0.60987800  0.07004300  0.27071500  1
  P  P7  1  0.39012200  0.07004300  0.22928500  1
  P  P8  1  0.10987800  0.42995700  0.77071500  1
  P  P9  1  0.89012200  0.42995700  0.72928500  1
  P  P10  1  0.10987800  0.57004300  0.27071500  1
  P  P11  1  0.89012200  0.57004300  0.22928500  1
  N  N12  1  0.50000000  0.87903400  0.75000000  1
  N  N13  1  0.50000000  0.12096600  0.25000000  1
  N  N14  1  0.00000000  0.37903400  0.75000000  1
  N  N15  1  0.00000000  0.62096600  0.25000000  1
  Cl  Cl16  1  0.53893050  0.75745150  0.00848300  1
  Cl  Cl17  1  0.15767750  0.05501150  0.47267700  1
  Cl  Cl18  1  0.46106950  0.24254850  0.99151700  1
  Cl  Cl19  1  0.30702300  0.79048800  0.64885200  1
  Cl  Cl20  1  0.63180400  0.12931700  0.82423900  1
  Cl  Cl21  1  0.69297700  0.79048800  0.85114800  1
  Cl  Cl22  1  0.84232250  0.05501150  0.02732300  1
  Cl  Cl23  1  0.30702300  0.20951200  0.14885200  1
  Cl  Cl24  1  0.06822900  0.97813700  0.15136500  1
  Cl  Cl25  1  0.46106950  0.75745150  0.49151700  1
  Cl  Cl26  1  0.06822900  0.02186300  0.65136500  1
  Cl  Cl27  1  0.84232250  0.94498850  0.52732300  1
  Cl  Cl28  1  0.15767750  0.94498850  0.97267700  1
  Cl  Cl29  1  0.66307700  0.06439200  0.16601900  1
  Cl  Cl30  1  0.33692300  0.06439200  0.33398100  1
  Cl  Cl31  1  0.93177100  0.97813700  0.34863500  1
  Cl  Cl32  1  0.33692300  0.93560800  0.83398100  1
  Cl  Cl33  1  0.53893050  0.24254850  0.50848300  1
  Cl  Cl34  1  0.93177100  0.02186300  0.84863500  1
  Cl  Cl35  1  0.69297700  0.20951200  0.35114800  1
  Cl  Cl36  1  0.36819600  0.87068300  0.17576100  1
  Cl  Cl37  1  0.36819600  0.12931700  0.67576100  1
  Cl  Cl38  1  0.66307700  0.93560800  0.66601900  1
  Cl  Cl39  1  0.63180400  0.87068300  0.32423900  1
  Cl  Cl40  1  0.03893050  0.25745150  0.00848300  1
  Cl  Cl41  1  0.65767750  0.55501150  0.47267700  1
  Cl  Cl42  1  0.96106950  0.74254850  0.99151700  1
  Cl  Cl43  1  0.80702300  0.29048800  0.64885200  1
  Cl  Cl44  1  0.13180400  0.62931700  0.82423900  1
  Cl  Cl45  1  0.19297700  0.29048800  0.85114800  1
  Cl  Cl46  1  0.34232250  0.55501150  0.02732300  1
  Cl  Cl47  1  0.80702300  0.70951200  0.14885200  1
  Cl  Cl48  1  0.56822900  0.47813700  0.15136500  1
  Cl  Cl49  1  0.96106950  0.25745150  0.49151700  1
  Cl  Cl50  1  0.56822900  0.52186300  0.65136500  1
  Cl  Cl51  1  0.34232250  0.44498850  0.52732300  1
  Cl  Cl52  1  0.65767750  0.44498850  0.97267700  1
  Cl  Cl53  1  0.16307700  0.56439200  0.16601900  1
  Cl  Cl54  1  0.83692300  0.56439200  0.33398100  1
  Cl  Cl55  1  0.43177100  0.47813700  0.34863500  1
  Cl  Cl56  1  0.83692300  0.43560800  0.83398100  1
  Cl  Cl57  1  0.03893050  0.74254850  0.50848300  1
  Cl  Cl58  1  0.43177100  0.52186300  0.84863500  1
  Cl  Cl59  1  0.19297700  0.70951200  0.35114800  1
  Cl  Cl60  1  0.86819600  0.37068300  0.17576100  1
  Cl  Cl61  1  0.86819600  0.62931700  0.67576100  1
  Cl  Cl62  1  0.16307700  0.43560800  0.66601900  1
  Cl  Cl63  1  0.13180400  0.37068300  0.32423900  1
