# generated using pymatgen
data_SrV3O7
_symmetry_space_group_name_H-M   'P 1'
_cell_length_a   5.36933100
_cell_length_b   5.66598700
_cell_length_c   10.61440500
_cell_angle_alpha   90.00000000
_cell_angle_beta   90.00000000
_cell_angle_gamma   90.00000000
_symmetry_Int_Tables_number   1
_chemical_formula_structural   SrV3O7
_chemical_formula_sum   'Sr2 V6 O14'
_cell_volume   322.91736921
_cell_formula_units_Z   2
loop_
 _symmetry_equiv_pos_site_id
 _symmetry_equiv_pos_as_xyz
  1  'x, y, z'
loop_
 _atom_site_type_symbol
 _atom_site_label
 _atom_site_symmetry_multiplicity
 _atom_site_fract_x
 _atom_site_fract_y
 _atom_site_fract_z
 _atom_site_occupancy
  Sr  Sr0  1  0.00000000  0.35447750  0.00000000  1
  Sr  Sr1  1  0.50000000  0.64552250  0.50000000  1
  V  V2  1  0.50000000  0.92305550  0.00000000  1
  V  V3  1  0.50000000  0.11623150  0.26991700  1
  V  V4  1  0.50000000  0.11623150  0.73008300  1
  V  V5  1  0.00000000  0.07694450  0.50000000  1
  V  V6  1  0.00000000  0.88376850  0.23008300  1
  V  V7  1  0.00000000  0.88376850  0.76991700  1
  O  O8  1  0.50000000  0.63004350  0.00000000  1
  O  O9  1  0.00000000  0.36995650  0.50000000  1
  O  O10  1  0.00000000  0.60114550  0.19000100  1
  O  O11  1  0.50000000  0.39885450  0.30999900  1
  O  O12  1  0.50000000  0.39885450  0.69000100  1
  O  O13  1  0.00000000  0.60114550  0.80999900  1
  O  O14  1  0.73688700  0.04803450  0.13030000  1
  O  O15  1  0.23688700  0.95196550  0.36970000  1
  O  O16  1  0.76311300  0.95196550  0.63030000  1
  O  O17  1  0.26311300  0.04803450  0.86970000  1
  O  O18  1  0.76311300  0.95196550  0.36970000  1
  O  O19  1  0.26311300  0.04803450  0.13030000  1
  O  O20  1  0.73688700  0.04803450  0.86970000  1
  O  O21  1  0.23688700  0.95196550  0.63030000  1
