# generated using pymatgen
data_K2U7O22
_symmetry_space_group_name_H-M   'P 1'
_cell_length_a   6.98241200
_cell_length_b   7.36974700
_cell_length_c   19.78732000
_cell_angle_alpha   90.00000000
_cell_angle_beta   90.00000000
_cell_angle_gamma   90.00000000
_symmetry_Int_Tables_number   1
_chemical_formula_structural   K2U7O22
_chemical_formula_sum   'K4 U14 O44'
_cell_volume   1018.22798064
_cell_formula_units_Z   2
loop_
 _symmetry_equiv_pos_site_id
 _symmetry_equiv_pos_as_xyz
  1  'x, y, z'
loop_
 _atom_site_type_symbol
 _atom_site_label
 _atom_site_symmetry_multiplicity
 _atom_site_fract_x
 _atom_site_fract_y
 _atom_site_fract_z
 _atom_site_occupancy
  K  K0  1  0.82121500  0.50000000  0.69199500  1
  K  K1  1  0.32121500  0.50000000  0.80800500  1
  K  K2  1  0.17878500  0.50000000  0.30800500  1
  K  K3  1  0.67878500  0.50000000  0.19199500  1
  U  U4  1  0.00000000  0.00000000  0.00000000  1
  U  U5  1  0.50000000  0.00000000  0.50000000  1
  U  U6  1  0.02819100  0.00000000  0.78465800  1
  U  U7  1  0.52819100  0.00000000  0.71534200  1
  U  U8  1  0.97180900  0.00000000  0.21534200  1
  U  U9  1  0.47180900  0.00000000  0.28465800  1
  U  U10  1  0.05638900  0.00000000  0.59696700  1
  U  U11  1  0.55638900  0.00000000  0.90303300  1
  U  U12  1  0.94361100  0.00000000  0.40303300  1
  U  U13  1  0.44361100  0.00000000  0.09696700  1
  U  U14  1  0.76948600  0.50000000  0.95692600  1
  U  U15  1  0.26948600  0.50000000  0.54307400  1
  U  U16  1  0.23051400  0.50000000  0.04307400  1
  U  U17  1  0.73051400  0.50000000  0.45692600  1
  O  O18  1  0.00000000  0.69256000  0.00000000  1
  O  O19  1  0.50000000  0.30744000  0.50000000  1
  O  O20  1  0.00000000  0.30744000  0.00000000  1
  O  O21  1  0.50000000  0.69256000  0.50000000  1
  O  O22  1  0.03125300  0.75078000  0.78105000  1
  O  O23  1  0.53125300  0.24922000  0.71895000  1
  O  O24  1  0.96874700  0.75078000  0.21895000  1
  O  O25  1  0.46874700  0.24922000  0.28105000  1
  O  O26  1  0.96874700  0.24922000  0.21895000  1
  O  O27  1  0.46874700  0.75078000  0.28105000  1
  O  O28  1  0.03125300  0.24922000  0.78105000  1
  O  O29  1  0.53125300  0.75078000  0.71895000  1
  O  O30  1  0.08501800  0.74228700  0.59138100  1
  O  O31  1  0.58501800  0.25771300  0.90861900  1
  O  O32  1  0.91498200  0.74228700  0.40861900  1
  O  O33  1  0.41498200  0.25771300  0.09138100  1
  O  O34  1  0.91498200  0.25771300  0.40861900  1
  O  O35  1  0.41498200  0.74228700  0.09138100  1
  O  O36  1  0.08501800  0.25771300  0.59138100  1
  O  O37  1  0.58501800  0.74228700  0.90861900  1
  O  O38  1  0.69497300  0.00000000  0.01328000  1
  O  O39  1  0.19497300  0.00000000  0.48672000  1
  O  O40  1  0.30502700  0.00000000  0.98672000  1
  O  O41  1  0.80502700  0.00000000  0.51328000  1
  O  O42  1  0.93318900  0.00000000  0.90531100  1
  O  O43  1  0.43318900  0.00000000  0.59468900  1
  O  O44  1  0.06681100  0.00000000  0.09468900  1
  O  O45  1  0.56681100  0.00000000  0.40531100  1
  O  O46  1  0.70821900  0.00000000  0.80655700  1
  O  O47  1  0.20821900  0.00000000  0.69344300  1
  O  O48  1  0.29178100  0.00000000  0.19344300  1
  O  O49  1  0.79178100  0.00000000  0.30655700  1
  O  O50  1  0.84099700  0.00000000  0.67358500  1
  O  O51  1  0.34099700  0.00000000  0.82641500  1
  O  O52  1  0.15900300  0.00000000  0.32641500  1
  O  O53  1  0.65900300  0.00000000  0.17358500  1
  O  O54  1  0.88450200  0.50000000  0.87551200  1
  O  O55  1  0.38450200  0.50000000  0.62448800  1
  O  O56  1  0.11549800  0.50000000  0.12448800  1
  O  O57  1  0.61549800  0.50000000  0.37551200  1
  O  O58  1  0.83704900  0.50000000  0.54116200  1
  O  O59  1  0.33704900  0.50000000  0.95883800  1
  O  O60  1  0.16295100  0.50000000  0.45883800  1
  O  O61  1  0.66295100  0.50000000  0.04116200  1
