# generated using pymatgen
data_MgTe2O5
_symmetry_space_group_name_H-M   'P 1'
_cell_length_a   6.04403600
_cell_length_b   7.39787100
_cell_length_c   10.83451800
_cell_angle_alpha   90.00000000
_cell_angle_beta   90.00000000
_cell_angle_gamma   90.00000000
_symmetry_Int_Tables_number   1
_chemical_formula_structural   MgTe2O5
_chemical_formula_sum   'Mg4 Te8 O20'
_cell_volume   484.44378868
_cell_formula_units_Z   4
loop_
 _symmetry_equiv_pos_site_id
 _symmetry_equiv_pos_as_xyz
  1  'x, y, z'
loop_
 _atom_site_type_symbol
 _atom_site_label
 _atom_site_symmetry_multiplicity
 _atom_site_fract_x
 _atom_site_fract_y
 _atom_site_fract_z
 _atom_site_occupancy
  Mg  Mg0  1  0.25000000  0.00000000  0.44115200  1
  Mg  Mg1  1  0.75000000  0.50000000  0.05884800  1
  Mg  Mg2  1  0.75000000  0.00000000  0.55884800  1
  Mg  Mg3  1  0.25000000  0.50000000  0.94115200  1
  Te  Te4  1  0.48946800  0.86309300  0.15352300  1
  Te  Te5  1  0.98946800  0.63690700  0.34647700  1
  Te  Te6  1  0.51053200  0.36309300  0.34647700  1
  Te  Te7  1  0.01053200  0.13690700  0.15352300  1
  Te  Te8  1  0.98946800  0.86309300  0.84647700  1
  Te  Te9  1  0.48946800  0.63690700  0.65352300  1
  Te  Te10  1  0.01053200  0.36309300  0.65352300  1
  Te  Te11  1  0.51053200  0.13690700  0.84647700  1
  O  O12  1  0.25000000  0.50000000  0.56010300  1
  O  O13  1  0.75000000  0.00000000  0.93989700  1
  O  O14  1  0.75000000  0.50000000  0.43989700  1
  O  O15  1  0.25000000  0.00000000  0.06010300  1
  O  O16  1  0.55073700  0.35337400  0.93493200  1
  O  O17  1  0.05073700  0.14662600  0.56506800  1
  O  O18  1  0.44926300  0.85337400  0.56506800  1
  O  O19  1  0.94926300  0.64662600  0.93493200  1
  O  O20  1  0.44926300  0.64662600  0.06506800  1
  O  O21  1  0.94926300  0.85337400  0.43493200  1
  O  O22  1  0.55073700  0.14662600  0.43493200  1
  O  O23  1  0.05073700  0.35337400  0.06506800  1
  O  O24  1  0.18643200  0.19130100  0.29403600  1
  O  O25  1  0.68643200  0.30869900  0.20596400  1
  O  O26  1  0.81356800  0.69130100  0.20596400  1
  O  O27  1  0.31356800  0.80869900  0.29403600  1
  O  O28  1  0.81356800  0.80869900  0.70596400  1
  O  O29  1  0.31356800  0.69130100  0.79403600  1
  O  O30  1  0.18643200  0.30869900  0.79403600  1
  O  O31  1  0.68643200  0.19130100  0.70596400  1
