# generated using pymatgen
data_K2RbMn2F7
_symmetry_space_group_name_H-M   'P 1'
_cell_length_a   4.28354800
_cell_length_b   4.28354800
_cell_length_c   21.99529400
_cell_angle_alpha   90.00000000
_cell_angle_beta   90.00000000
_cell_angle_gamma   90.00000000
_symmetry_Int_Tables_number   1
_chemical_formula_structural   K2RbMn2F7
_chemical_formula_sum   'K4 Rb2 Mn4 F14'
_cell_volume   403.58688693
_cell_formula_units_Z   2
loop_
 _symmetry_equiv_pos_site_id
 _symmetry_equiv_pos_as_xyz
  1  'x, y, z'
loop_
 _atom_site_type_symbol
 _atom_site_label
 _atom_site_symmetry_multiplicity
 _atom_site_fract_x
 _atom_site_fract_y
 _atom_site_fract_z
 _atom_site_occupancy
  K  K0  1  0.00000000  0.00000000  0.31379500  1
  K  K1  1  0.50000000  0.50000000  0.18620500  1
  K  K2  1  0.50000000  0.50000000  0.81379500  1
  K  K3  1  0.00000000  0.00000000  0.68620500  1
  Rb  Rb4  1  0.50000000  0.50000000  0.00000000  1
  Rb  Rb5  1  0.00000000  0.00000000  0.50000000  1
  Mn  Mn6  1  0.50000000  0.50000000  0.40083000  1
  Mn  Mn7  1  0.00000000  0.00000000  0.09917000  1
  Mn  Mn8  1  0.00000000  0.00000000  0.90083000  1
  Mn  Mn9  1  0.50000000  0.50000000  0.59917000  1
  F  F10  1  0.50000000  0.00000000  0.40127300  1
  F  F11  1  0.00000000  0.50000000  0.40127300  1
  F  F12  1  0.00000000  0.00000000  0.19534300  1
  F  F13  1  0.50000000  0.50000000  0.30465700  1
  F  F14  1  0.00000000  0.00000000  0.00000000  1
  F  F15  1  0.50000000  0.00000000  0.09872700  1
  F  F16  1  0.00000000  0.50000000  0.09872700  1
  F  F17  1  0.00000000  0.50000000  0.90127300  1
  F  F18  1  0.50000000  0.00000000  0.90127300  1
  F  F19  1  0.50000000  0.50000000  0.69534300  1
  F  F20  1  0.00000000  0.00000000  0.80465700  1
  F  F21  1  0.50000000  0.50000000  0.50000000  1
  F  F22  1  0.00000000  0.50000000  0.59872700  1
  F  F23  1  0.50000000  0.00000000  0.59872700  1
