# generated using pymatgen
data_Tl3PO4
_symmetry_space_group_name_H-M   'P 1'
_cell_length_a   8.86042980
_cell_length_b   8.86042980
_cell_length_c   5.21791400
_cell_angle_alpha   90.00000000
_cell_angle_beta   90.00000000
_cell_angle_gamma   120.00000000
_symmetry_Int_Tables_number   1
_chemical_formula_structural   Tl3PO4
_chemical_formula_sum   'Tl6 P2 O8'
_cell_volume   354.76202604
_cell_formula_units_Z   2
loop_
 _symmetry_equiv_pos_site_id
 _symmetry_equiv_pos_as_xyz
  1  'x, y, z'
loop_
 _atom_site_type_symbol
 _atom_site_label
 _atom_site_symmetry_multiplicity
 _atom_site_fract_x
 _atom_site_fract_y
 _atom_site_fract_z
 _atom_site_occupancy
  Tl  Tl0  1  0.08944900  0.37024700  0.49827700  1
  Tl  Tl1  1  0.62975300  0.71920200  0.49827700  1
  Tl  Tl2  1  0.71920200  0.08944900  0.99827700  1
  Tl  Tl3  1  0.91055100  0.62975300  0.99827700  1
  Tl  Tl4  1  0.37024700  0.28079800  0.99827700  1
  Tl  Tl5  1  0.28079800  0.91055100  0.49827700  1
  P  P6  1  0.66666667  0.33333333  0.48707900  1
  P  P7  1  0.33333333  0.66666667  0.98707900  1
  O  O8  1  0.14355600  0.54156500  0.08148900  1
  O  O9  1  0.60199100  0.14355600  0.58148900  1
  O  O10  1  0.54156500  0.39800900  0.58148900  1
  O  O11  1  0.45843500  0.60199100  0.08148900  1
  O  O12  1  0.66666667  0.33333333  0.18422300  1
  O  O13  1  0.85644400  0.45843500  0.58148900  1
  O  O14  1  0.33333333  0.66666667  0.68422300  1
  O  O15  1  0.39800900  0.85644400  0.08148900  1
