# generated using pymatgen
data_BeF2
_symmetry_space_group_name_H-M   'P 1'
_cell_length_a   13.17213727
_cell_length_b   13.17213727
_cell_length_c   14.48203029
_cell_angle_alpha   90.00000000
_cell_angle_beta   90.00000000
_cell_angle_gamma   120.00000000
_symmetry_Int_Tables_number   1
_chemical_formula_structural   BeF2
_chemical_formula_sum   'Be36 F72'
_cell_volume   2176.06858347
_cell_formula_units_Z   36
loop_
 _symmetry_equiv_pos_site_id
 _symmetry_equiv_pos_as_xyz
  1  'x, y, z'
loop_
 _atom_site_type_symbol
 _atom_site_label
 _atom_site_symmetry_multiplicity
 _atom_site_fract_x
 _atom_site_fract_y
 _atom_site_fract_z
 _atom_site_occupancy
  Be  Be0  1  0.56326367  0.89647033  0.56347533  1
  Be  Be1  1  0.89647033  0.56326367  0.43652467  1
  Be  Be2  1  0.33320667  0.43673633  0.56347533  1
  Be  Be3  1  0.89647033  0.33320667  0.43652467  1
  Be  Be4  1  0.10352967  0.43673633  0.56347533  1
  Be  Be5  1  0.66679333  0.10352967  0.43652467  1
  Be  Be6  1  0.10352967  0.66679333  0.56347533  1
  Be  Be7  1  0.43673633  0.33320667  0.43652467  1
  Be  Be8  1  0.33320667  0.89647033  0.56347533  1
  Be  Be9  1  0.43673633  0.10352967  0.43652467  1
  Be  Be10  1  0.56326367  0.66679333  0.56347533  1
  Be  Be11  1  0.66679333  0.56326367  0.43652467  1
  Be  Be12  1  0.22993033  0.22980367  0.89680867  1
  Be  Be13  1  0.56313700  0.89659700  0.76985800  1
  Be  Be14  1  0.99987333  0.77006967  0.89680867  1
  Be  Be15  1  0.56313700  0.66654000  0.76985800  1
  Be  Be16  1  0.77019633  0.77006967  0.89680867  1
  Be  Be17  1  0.33346000  0.43686300  0.76985800  1
  Be  Be18  1  0.77019633  0.00012667  0.89680867  1
  Be  Be19  1  0.10340300  0.66654000  0.76985800  1
  Be  Be20  1  0.99987333  0.22980367  0.89680867  1
  Be  Be21  1  0.10340300  0.43686300  0.76985800  1
  Be  Be22  1  0.22993033  0.00012667  0.89680867  1
  Be  Be23  1  0.33346000  0.89659700  0.76985800  1
  Be  Be24  1  0.89659700  0.56313700  0.23014200  1
  Be  Be25  1  0.22980367  0.22993033  0.10319133  1
  Be  Be26  1  0.66654000  0.10340300  0.23014200  1
  Be  Be27  1  0.22980367  0.99987333  0.10319133  1
  Be  Be28  1  0.43686300  0.10340300  0.23014200  1
  Be  Be29  1  0.00012667  0.77019633  0.10319133  1
  Be  Be30  1  0.43686300  0.33346000  0.23014200  1
  Be  Be31  1  0.77006967  0.99987333  0.10319133  1
  Be  Be32  1  0.66654000  0.56313700  0.23014200  1
  Be  Be33  1  0.77006967  0.77019633  0.10319133  1
  Be  Be34  1  0.89659700  0.33346000  0.23014200  1
  Be  Be35  1  0.00012667  0.22993033  0.10319133  1
  F  F36  1  0.89978133  0.10021867  0.11815967  1
  F  F37  1  0.21375867  0.78624133  0.53934733  1
  F  F38  1  0.35292800  0.00000000  0.50000000  1
  F  F39  1  0.40161567  0.33333333  0.33333333  1
  F  F40  1  0.64707200  0.64707200  0.50000000  1
  F  F41  1  0.93171767  0.33333333  0.33333333  1
  F  F42  1  0.78624133  0.21375867  0.46065267  1
  F  F43  1  0.79956267  0.89978133  0.88184033  1
  F  F44  1  0.78624133  0.57248267  0.46065267  1
  F  F45  1  0.35292800  0.35292800  0.50000000  1
  F  F46  1  0.10021867  0.89978133  0.88184033  1
  F  F47  1  0.00000000  0.35292800  0.50000000  1
  F  F48  1  0.66666667  0.59838433  0.33333333  1
  F  F49  1  0.93171767  0.59838433  0.33333333  1
  F  F50  1  0.42751733  0.21375867  0.46065267  1
  F  F51  1  0.20043733  0.10021867  0.11815967  1
  F  F52  1  0.40161567  0.06828233  0.33333333  1
  F  F53  1  0.21375867  0.42751733  0.53934733  1
  F  F54  1  0.66666667  0.06828233  0.33333333  1
  F  F55  1  0.00000000  0.64707200  0.50000000  1
  F  F56  1  0.89978133  0.79956267  0.11815967  1
  F  F57  1  0.57248267  0.78624133  0.53934733  1
  F  F58  1  0.10021867  0.20043733  0.88184033  1
  F  F59  1  0.64707200  0.00000000  0.50000000  1
  F  F60  1  0.56644800  0.43355200  0.45149300  1
  F  F61  1  0.88042533  0.11957467  0.87268067  1
  F  F62  1  0.01959467  0.33333333  0.83333333  1
  F  F63  1  0.06828233  0.66666667  0.66666667  1
  F  F64  1  0.31373867  0.98040533  0.83333333  1
  F  F65  1  0.59838433  0.66666667  0.66666667  1
  F  F66  1  0.45290800  0.54709200  0.79398600  1
  F  F67  1  0.46622933  0.23311467  0.21517367  1
  F  F68  1  0.45290800  0.90581600  0.79398600  1
  F  F69  1  0.01959467  0.68626133  0.83333333  1
  F  F70  1  0.76688533  0.23311467  0.21517367  1
  F  F71  1  0.66666667  0.68626133  0.83333333  1
  F  F72  1  0.33333333  0.93171767  0.66666667  1
  F  F73  1  0.59838433  0.93171767  0.66666667  1
  F  F74  1  0.09418400  0.54709200  0.79398600  1
  F  F75  1  0.86710400  0.43355200  0.45149300  1
  F  F76  1  0.06828233  0.40161567  0.66666667  1
  F  F77  1  0.88042533  0.76085067  0.87268067  1
  F  F78  1  0.33333333  0.40161567  0.66666667  1
  F  F79  1  0.66666667  0.98040533  0.83333333  1
  F  F80  1  0.56644800  0.13289600  0.45149300  1
  F  F81  1  0.23914933  0.11957467  0.87268067  1
  F  F82  1  0.76688533  0.53377067  0.21517367  1
  F  F83  1  0.31373867  0.33333333  0.83333333  1
  F  F84  1  0.23311467  0.76688533  0.78482633  1
  F  F85  1  0.54709200  0.45290800  0.20601400  1
  F  F86  1  0.68626133  0.66666667  0.16666667  1
  F  F87  1  0.73494900  0.00000000  0.00000000  1
  F  F88  1  0.98040533  0.31373867  0.16666667  1
  F  F89  1  0.26505100  0.00000000  0.00000000  1
  F  F90  1  0.11957467  0.88042533  0.12731933  1
  F  F91  1  0.13289600  0.56644800  0.54850700  1
  F  F92  1  0.11957467  0.23914933  0.12731933  1
  F  F93  1  0.68626133  0.01959467  0.16666667  1
  F  F94  1  0.43355200  0.56644800  0.54850700  1
  F  F95  1  0.33333333  0.01959467  0.16666667  1
  F  F96  1  0.00000000  0.26505100  0.00000000  1
  F  F97  1  0.26505100  0.26505100  0.00000000  1
  F  F98  1  0.76085067  0.88042533  0.12731933  1
  F  F99  1  0.53377067  0.76688533  0.78482633  1
  F  F100  1  0.73494900  0.73494900  0.00000000  1
  F  F101  1  0.54709200  0.09418400  0.20601400  1
  F  F102  1  0.00000000  0.73494900  0.00000000  1
  F  F103  1  0.33333333  0.31373867  0.16666667  1
  F  F104  1  0.23311467  0.46622933  0.78482633  1
  F  F105  1  0.90581600  0.45290800  0.20601400  1
  F  F106  1  0.43355200  0.86710400  0.54850700  1
  F  F107  1  0.98040533  0.66666667  0.16666667  1
