# generated using pymatgen
data_Al3Mo
_symmetry_space_group_name_H-M   'P 1'
_cell_length_a   16.44841800
_cell_length_b   3.60496800
_cell_length_c   8.39725208
_cell_angle_alpha   90.00000000
_cell_angle_beta   101.87335376
_cell_angle_gamma   90.00000000
_symmetry_Int_Tables_number   1
_chemical_formula_structural   Al3Mo
_chemical_formula_sum   'Al24 Mo8'
_cell_volume   487.27044473
_cell_formula_units_Z   8
loop_
 _symmetry_equiv_pos_site_id
 _symmetry_equiv_pos_as_xyz
  1  'x, y, z'
loop_
 _atom_site_type_symbol
 _atom_site_label
 _atom_site_symmetry_multiplicity
 _atom_site_fract_x
 _atom_site_fract_y
 _atom_site_fract_z
 _atom_site_occupancy
  Al  Al0  1  0.56549700  0.00000000  0.92074200  1
  Al  Al1  1  0.56549400  0.50000000  0.17853700  1
  Al  Al2  1  0.56046500  0.00000000  0.41560200  1
  Al  Al3  1  0.68756300  0.00000000  0.72319600  1
  Al  Al4  1  0.68885500  0.50000000  0.98121700  1
  Al  Al5  1  0.68774600  0.50000000  0.47141300  1
  Al  Al6  1  0.81114500  0.00000000  0.01878300  1
  Al  Al7  1  0.81243700  0.50000000  0.27680400  1
  Al  Al8  1  0.81225400  0.00000000  0.52858700  1
  Al  Al9  1  0.93450600  0.00000000  0.82146300  1
  Al  Al10  1  0.93450300  0.50000000  0.07925800  1
  Al  Al11  1  0.93953500  0.50000000  0.58439800  1
  Al  Al12  1  0.06549700  0.50000000  0.92074200  1
  Al  Al13  1  0.06549400  0.00000000  0.17853700  1
  Al  Al14  1  0.06046500  0.50000000  0.41560200  1
  Al  Al15  1  0.18756300  0.50000000  0.72319600  1
  Al  Al16  1  0.18885500  0.00000000  0.98121700  1
  Al  Al17  1  0.18774600  0.00000000  0.47141300  1
  Al  Al18  1  0.31114500  0.50000000  0.01878300  1
  Al  Al19  1  0.31243700  0.00000000  0.27680400  1
  Al  Al20  1  0.31225400  0.50000000  0.52858700  1
  Al  Al21  1  0.43450600  0.50000000  0.82146300  1
  Al  Al22  1  0.43450300  0.00000000  0.07925800  1
  Al  Al23  1  0.43953500  0.00000000  0.58439800  1
  Mo  Mo24  1  0.57324400  0.50000000  0.67947900  1
  Mo  Mo25  1  0.69513800  0.00000000  0.22905000  1
  Mo  Mo26  1  0.80486200  0.50000000  0.77095000  1
  Mo  Mo27  1  0.92675600  0.00000000  0.32052100  1
  Mo  Mo28  1  0.07324400  0.00000000  0.67947900  1
  Mo  Mo29  1  0.19513800  0.50000000  0.22905000  1
  Mo  Mo30  1  0.30486200  0.00000000  0.77095000  1
  Mo  Mo31  1  0.42675600  0.50000000  0.32052100  1
