# generated using pymatgen
data_Rb2CO3
_symmetry_space_group_name_H-M   'P 1'
_cell_length_a   6.03579100
_cell_length_b   7.61849100
_cell_length_c   10.12631700
_cell_angle_alpha   90.00000000
_cell_angle_beta   90.00000000
_cell_angle_gamma   90.00000000
_symmetry_Int_Tables_number   1
_chemical_formula_structural   Rb2CO3
_chemical_formula_sum   'Rb8 C4 O12'
_cell_volume   465.64470697
_cell_formula_units_Z   4
loop_
 _symmetry_equiv_pos_site_id
 _symmetry_equiv_pos_as_xyz
  1  'x, y, z'
loop_
 _atom_site_type_symbol
 _atom_site_label
 _atom_site_symmetry_multiplicity
 _atom_site_fract_x
 _atom_site_fract_y
 _atom_site_fract_z
 _atom_site_occupancy
  Rb  Rb0  1  0.75000000  0.80771500  0.91975700  1
  Rb  Rb1  1  0.25000000  0.69228500  0.41975700  1
  Rb  Rb2  1  0.25000000  0.53548400  0.76982300  1
  Rb  Rb3  1  0.75000000  0.30771500  0.58024300  1
  Rb  Rb4  1  0.75000000  0.96451600  0.26982300  1
  Rb  Rb5  1  0.25000000  0.03548400  0.73017700  1
  Rb  Rb6  1  0.25000000  0.19228500  0.08024300  1
  Rb  Rb7  1  0.75000000  0.46451600  0.23017700  1
  C  C8  1  0.75000000  0.74791200  0.58463600  1
  C  C9  1  0.25000000  0.25208800  0.41536400  1
  C  C10  1  0.25000000  0.75208800  0.08463600  1
  C  C11  1  0.75000000  0.24791200  0.91536400  1
  O  O12  1  0.93756700  0.28170800  0.85639700  1
  O  O13  1  0.06243300  0.21829200  0.35639700  1
  O  O14  1  0.06243300  0.71829200  0.14360300  1
  O  O15  1  0.56243300  0.78170800  0.64360300  1
  O  O16  1  0.75000000  0.17786800  0.03363800  1
  O  O17  1  0.25000000  0.82213200  0.96636200  1
  O  O18  1  0.93756700  0.78170800  0.64360300  1
  O  O19  1  0.75000000  0.67786800  0.46636200  1
  O  O20  1  0.56243300  0.28170800  0.85639700  1
  O  O21  1  0.25000000  0.32213200  0.53363800  1
  O  O22  1  0.43756700  0.71829200  0.14360300  1
  O  O23  1  0.43756700  0.21829200  0.35639700  1
