# generated using pymatgen
data_MoPO5
_symmetry_space_group_name_H-M   'P 1'
_cell_length_a   7.13335300
_cell_length_b   7.57744575
_cell_length_c   7.97243523
_cell_angle_alpha   90.44542703
_cell_angle_beta   89.84309182
_cell_angle_gamma   118.06060315
_symmetry_Int_Tables_number   1
_chemical_formula_structural   MoPO5
_chemical_formula_sum   'Mo4 P4 O20'
_cell_volume   380.26342845
_cell_formula_units_Z   4
loop_
 _symmetry_equiv_pos_site_id
 _symmetry_equiv_pos_as_xyz
  1  'x, y, z'
loop_
 _atom_site_type_symbol
 _atom_site_label
 _atom_site_symmetry_multiplicity
 _atom_site_fract_x
 _atom_site_fract_y
 _atom_site_fract_z
 _atom_site_occupancy
  Mo  Mo0  1  0.71396200  0.47152500  0.26436700  1
  Mo  Mo1  1  0.21484100  0.96781400  0.23362000  1
  Mo  Mo2  1  0.28603800  0.52847500  0.73563300  1
  Mo  Mo3  1  0.78515900  0.03218600  0.76638000  1
  P  P4  1  0.48455400  0.24513800  0.90757200  1
  P  P5  1  0.98560300  0.24368000  0.40809100  1
  P  P6  1  0.01439700  0.75632000  0.59190900  1
  P  P7  1  0.51544600  0.75486200  0.09242800  1
  O  O8  1  0.95725700  0.89567200  0.69590500  1
  O  O9  1  0.04274300  0.10432800  0.30409500  1
  O  O10  1  0.48707100  0.25186900  0.32183200  1
  O  O11  1  0.32967600  0.60282900  0.98322000  1
  O  O12  1  0.20498100  0.87688000  0.47386000  1
  O  O13  1  0.44941500  0.89795500  0.18156900  1
  O  O14  1  0.92216700  0.36079300  0.28273400  1
  O  O15  1  0.00075100  0.73910300  0.17263700  1
  O  O16  1  0.81836900  0.61195600  0.48712900  1
  O  O17  1  0.99924900  0.26089700  0.82736300  1
  O  O18  1  0.55058500  0.10204500  0.81843100  1
  O  O19  1  0.57452800  0.64802500  0.23074700  1
  O  O20  1  0.42547200  0.35197500  0.76925300  1
  O  O21  1  0.07783300  0.63920700  0.71726600  1
  O  O22  1  0.79501900  0.12312000  0.52614000  1
  O  O23  1  0.67032400  0.39717100  0.01678000  1
  O  O24  1  0.18163100  0.38804400  0.51287100  1
  O  O25  1  0.28567200  0.12609500  0.01884500  1
  O  O26  1  0.51292900  0.74813100  0.67816800  1
  O  O27  1  0.71432800  0.87390500  0.98115500  1
