# generated using pymatgen
data_Tm2TiO5
_symmetry_space_group_name_H-M   'P 1'
_cell_length_a   12.64211000
_cell_length_b   7.65189400
_cell_length_c   17.34533912
_cell_angle_alpha   90.00000000
_cell_angle_beta   91.53027139
_cell_angle_gamma   90.00000000
_symmetry_Int_Tables_number   1
_chemical_formula_structural   Tm2TiO5
_chemical_formula_sum   'Tm32 Ti16 O80'
_cell_volume   1677.32178982
_cell_formula_units_Z   16
loop_
 _symmetry_equiv_pos_site_id
 _symmetry_equiv_pos_as_xyz
  1  'x, y, z'
loop_
 _atom_site_type_symbol
 _atom_site_label
 _atom_site_symmetry_multiplicity
 _atom_site_fract_x
 _atom_site_fract_y
 _atom_site_fract_z
 _atom_site_occupancy
  Tm  Tm0  1  0.00611800  0.00000000  0.99758800  1
  Tm  Tm1  1  0.27111300  0.22715700  0.98918300  1
  Tm  Tm2  1  0.27111300  0.77284300  0.98918300  1
  Tm  Tm3  1  0.41321600  0.26567600  0.16337200  1
  Tm  Tm4  1  0.15921200  0.00000000  0.16289300  1
  Tm  Tm5  1  0.57787200  0.24797900  0.32529800  1
  Tm  Tm6  1  0.32231900  0.00000000  0.34168600  1
  Tm  Tm7  1  0.72619400  0.26458200  0.50612400  1
  Tm  Tm8  1  0.41321600  0.73432400  0.16337200  1
  Tm  Tm9  1  0.41443950  0.73153550  0.67401600  1
  Tm  Tm10  1  0.49365400  0.00000000  0.50460300  1
  Tm  Tm11  1  0.57787200  0.75202100  0.32529800  1
  Tm  Tm12  1  0.58299200  0.74130700  0.84137800  1
  Tm  Tm13  1  0.72619400  0.73541800  0.50612400  1
  Tm  Tm14  1  0.58299200  0.25869300  0.84137800  1
  Tm  Tm15  1  0.41443950  0.26846450  0.67401600  1
  Tm  Tm16  1  0.50611800  0.50000000  0.99758800  1
  Tm  Tm17  1  0.77111300  0.72715700  0.98918300  1
  Tm  Tm18  1  0.77111300  0.27284300  0.98918300  1
  Tm  Tm19  1  0.91321600  0.76567600  0.16337200  1
  Tm  Tm20  1  0.65921200  0.50000000  0.16289300  1
  Tm  Tm21  1  0.07787200  0.74797900  0.32529800  1
  Tm  Tm22  1  0.82231900  0.50000000  0.34168600  1
  Tm  Tm23  1  0.22619400  0.76458200  0.50612400  1
  Tm  Tm24  1  0.91321600  0.23432400  0.16337200  1
  Tm  Tm25  1  0.91443950  0.23153550  0.67401600  1
  Tm  Tm26  1  0.99365400  0.50000000  0.50460300  1
  Tm  Tm27  1  0.07787200  0.25202100  0.32529800  1
  Tm  Tm28  1  0.08299200  0.24130700  0.84137800  1
  Tm  Tm29  1  0.22619400  0.23541800  0.50612400  1
  Tm  Tm30  1  0.08299200  0.75869300  0.84137800  1
  Tm  Tm31  1  0.91443950  0.76846450  0.67401600  1
  Ti  Ti32  1  0.52583000  0.00000000  0.00006500  1
  Ti  Ti33  1  0.66480500  0.00000000  0.17394000  1
  Ti  Ti34  1  0.80720700  0.00000000  0.33267300  1
  Ti  Ti35  1  0.83366700  0.00000000  0.82925000  1
  Ti  Ti36  1  0.66438900  0.00000000  0.67524300  1
  Ti  Ti37  1  0.98123700  0.00000000  0.49293300  1
  Ti  Ti38  1  0.17818500  0.00000000  0.67224300  1
  Ti  Ti39  1  0.35083500  0.00000000  0.81351600  1
  Ti  Ti40  1  0.02583000  0.50000000  0.00006500  1
  Ti  Ti41  1  0.16480500  0.50000000  0.17394000  1
  Ti  Ti42  1  0.30720700  0.50000000  0.33267300  1
  Ti  Ti43  1  0.33366700  0.50000000  0.82925000  1
  Ti  Ti44  1  0.16438900  0.50000000  0.67524300  1
  Ti  Ti45  1  0.48123700  0.50000000  0.49293300  1
  Ti  Ti46  1  0.67818500  0.50000000  0.67224300  1
  Ti  Ti47  1  0.85083500  0.50000000  0.81351600  1
  O  O48  1  0.44552400  0.19420100  0.03322300  1
  O  O49  1  0.16179200  0.00000000  0.28912800  1
  O  O50  1  0.44552400  0.80579900  0.03322300  1
  O  O51  1  0.58667050  0.20169050  0.18441900  1
  O  O52  1  0.65187400  0.00000000  0.29342400  1
  O  O53  1  0.26529700  0.81514800  0.11504300  1
  O  O54  1  0.65091700  0.00000000  0.56728700  1
  O  O55  1  0.76557150  0.20134550  0.38149900  1
  O  O56  1  0.58667050  0.79830950  0.18441900  1
  O  O57  1  0.65970600  0.00000000  0.05384500  1
  O  O58  1  0.76557150  0.79865450  0.38149900  1
  O  O59  1  0.41906150  0.81179550  0.28250900  1
  O  O60  1  0.26529700  0.18485200  0.11504300  1
  O  O61  1  0.40960600  0.68454300  0.54148600  1
  O  O62  1  0.81571000  0.00000000  0.21288100  1
  O  O63  1  0.97059200  0.00000000  0.87538500  1
  O  O64  1  0.56865800  0.80083400  0.44461900  1
  O  O65  1  0.02998400  0.00000000  0.67480100  1
  O  O66  1  0.58812450  0.82669850  0.71711700  1
  O  O67  1  0.41906150  0.18820450  0.28250900  1
  O  O68  1  0.95627300  0.00000000  0.38289700  1
  O  O69  1  0.99345800  0.00000000  0.12345000  1
  O  O70  1  0.40960600  0.31545700  0.54148600  1
  O  O71  1  0.74814950  0.83768950  0.87264300  1
  O  O72  1  0.56865800  0.19916600  0.44461900  1
  O  O73  1  0.58812450  0.17330150  0.71711700  1
  O  O74  1  0.24123900  0.19889200  0.63183200  1
  O  O75  1  0.19762800  0.00000000  0.78500600  1
  O  O76  1  0.12328100  0.00000000  0.52386400  1
  O  O77  1  0.31723400  0.00000000  0.92288200  1
  O  O78  1  0.41108800  0.22549000  0.80214900  1
  O  O79  1  0.24123900  0.80110800  0.63183200  1
  O  O80  1  0.74814950  0.16231050  0.87264300  1
  O  O81  1  0.32469700  0.00000000  0.46679500  1
  O  O82  1  0.38433200  0.00000000  0.69624200  1
  O  O83  1  0.61413500  0.31810700  0.96441400  1
  O  O84  1  0.41108800  0.77451000  0.80214900  1
  O  O85  1  0.53844500  0.00000000  0.89365500  1
  O  O86  1  0.61413500  0.68189300  0.96441400  1
  O  O87  1  0.81077500  0.00000000  0.71778500  1
  O  O88  1  0.94552400  0.69420100  0.03322300  1
  O  O89  1  0.66179200  0.50000000  0.28912800  1
  O  O90  1  0.94552400  0.30579900  0.03322300  1
  O  O91  1  0.08667050  0.70169050  0.18441900  1
  O  O92  1  0.15187400  0.50000000  0.29342400  1
  O  O93  1  0.76529700  0.31514800  0.11504300  1
  O  O94  1  0.15091700  0.50000000  0.56728700  1
  O  O95  1  0.26557150  0.70134550  0.38149900  1
  O  O96  1  0.08667050  0.29830950  0.18441900  1
  O  O97  1  0.15970600  0.50000000  0.05384500  1
  O  O98  1  0.26557150  0.29865450  0.38149900  1
  O  O99  1  0.91906150  0.31179550  0.28250900  1
  O  O100  1  0.76529700  0.68485200  0.11504300  1
  O  O101  1  0.90960600  0.18454300  0.54148600  1
  O  O102  1  0.31571000  0.50000000  0.21288100  1
  O  O103  1  0.47059200  0.50000000  0.87538500  1
  O  O104  1  0.06865800  0.30083400  0.44461900  1
  O  O105  1  0.52998400  0.50000000  0.67480100  1
  O  O106  1  0.08812450  0.32669850  0.71711700  1
  O  O107  1  0.91906150  0.68820450  0.28250900  1
  O  O108  1  0.45627300  0.50000000  0.38289700  1
  O  O109  1  0.49345800  0.50000000  0.12345000  1
  O  O110  1  0.90960600  0.81545700  0.54148600  1
  O  O111  1  0.24814950  0.33768950  0.87264300  1
  O  O112  1  0.06865800  0.69916600  0.44461900  1
  O  O113  1  0.08812450  0.67330150  0.71711700  1
  O  O114  1  0.74123900  0.69889200  0.63183200  1
  O  O115  1  0.69762800  0.50000000  0.78500600  1
  O  O116  1  0.62328100  0.50000000  0.52386400  1
  O  O117  1  0.81723400  0.50000000  0.92288200  1
  O  O118  1  0.91108800  0.72549000  0.80214900  1
  O  O119  1  0.74123900  0.30110800  0.63183200  1
  O  O120  1  0.24814950  0.66231050  0.87264300  1
  O  O121  1  0.82469700  0.50000000  0.46679500  1
  O  O122  1  0.88433200  0.50000000  0.69624200  1
  O  O123  1  0.11413500  0.81810700  0.96441400  1
  O  O124  1  0.91108800  0.27451000  0.80214900  1
  O  O125  1  0.03844500  0.50000000  0.89365500  1
  O  O126  1  0.11413500  0.18189300  0.96441400  1
  O  O127  1  0.31077500  0.50000000  0.71778500  1
