# generated using pymatgen
data_SrCuH6O5
_symmetry_space_group_name_H-M   'P 1'
_cell_length_a   5.46737800
_cell_length_b   6.29672500
_cell_length_c   7.97729588
_cell_angle_alpha   90.00000000
_cell_angle_beta   107.79438099
_cell_angle_gamma   90.00000000
_symmetry_Int_Tables_number   1
_chemical_formula_structural   SrCuH6O5
_chemical_formula_sum   'Sr2 Cu2 H12 O10'
_cell_volume   261.49246098
_cell_formula_units_Z   2
loop_
 _symmetry_equiv_pos_site_id
 _symmetry_equiv_pos_as_xyz
  1  'x, y, z'
loop_
 _atom_site_type_symbol
 _atom_site_label
 _atom_site_symmetry_multiplicity
 _atom_site_fract_x
 _atom_site_fract_y
 _atom_site_fract_z
 _atom_site_occupancy
  Sr  Sr0  1  0.00000000  0.55059600  0.75000000  1
  Sr  Sr1  1  0.00000000  0.44940400  0.25000000  1
  Cu  Cu2  1  0.00000000  0.00000000  0.00000000  1
  Cu  Cu3  1  0.00000000  0.00000000  0.50000000  1
  H  H4  1  0.36710300  0.94665500  0.89411800  1
  H  H5  1  0.56752200  0.29414800  0.85429400  1
  H  H6  1  0.43247800  0.29414800  0.64570600  1
  H  H7  1  0.66297900  0.26362600  0.47573400  1
  H  H8  1  0.56752200  0.70585200  0.35429400  1
  H  H9  1  0.33702100  0.73637400  0.52426600  1
  H  H10  1  0.43247800  0.70585200  0.14570600  1
  H  H11  1  0.33702100  0.26362600  0.02426600  1
  H  H12  1  0.36710300  0.05334500  0.39411800  1
  H  H13  1  0.66297900  0.73637400  0.97573400  1
  H  H14  1  0.63289700  0.05334500  0.10588200  1
  H  H15  1  0.63289700  0.94665500  0.60588200  1
  O  O16  1  0.71712900  0.15756800  0.05180100  1
  O  O17  1  0.50000000  0.61091800  0.25000000  1
  O  O18  1  0.84860000  0.72177400  0.99979200  1
  O  O19  1  0.84860000  0.27822600  0.49979200  1
  O  O20  1  0.15140000  0.27822600  0.00020800  1
  O  O21  1  0.28287100  0.15756800  0.44819900  1
  O  O22  1  0.50000000  0.38908200  0.75000000  1
  O  O23  1  0.28287100  0.84243200  0.94819900  1
  O  O24  1  0.15140000  0.72177400  0.50020800  1
  O  O25  1  0.71712900  0.84243200  0.55180100  1
