# generated using pymatgen
data_LiCrP2O7
_symmetry_space_group_name_H-M   'P 1'
_cell_length_a   15.42262800
_cell_length_b   5.02369000
_cell_length_c   8.87891934
_cell_angle_alpha   90.00000000
_cell_angle_beta   110.66963911
_cell_angle_gamma   90.00000000
_symmetry_Int_Tables_number   1
_chemical_formula_structural   LiCrP2O7
_chemical_formula_sum   'Li4 Cr4 P8 O28'
_cell_volume   643.64444312
_cell_formula_units_Z   4
loop_
 _symmetry_equiv_pos_site_id
 _symmetry_equiv_pos_as_xyz
  1  'x, y, z'
loop_
 _atom_site_type_symbol
 _atom_site_label
 _atom_site_symmetry_multiplicity
 _atom_site_fract_x
 _atom_site_fract_y
 _atom_site_fract_z
 _atom_site_occupancy
  Li  Li0  1  0.20071250  0.32722950  0.04690500  1
  Li  Li1  1  0.20071250  0.67277050  0.54690500  1
  Li  Li2  1  0.70071250  0.82722950  0.04690500  1
  Li  Li3  1  0.70071250  0.17277050  0.54690500  1
  Cr  Cr4  1  0.49761700  0.00926200  0.49675600  1
  Cr  Cr5  1  0.49761700  0.99073800  0.99675600  1
  Cr  Cr6  1  0.99761700  0.50926200  0.49675600  1
  Cr  Cr7  1  0.99761700  0.49073800  0.99675600  1
  P  P8  1  0.39902350  0.36091750  0.69395000  1
  P  P9  1  0.09805050  0.13436250  0.30883700  1
  P  P10  1  0.09805050  0.86563750  0.80883700  1
  P  P11  1  0.39902350  0.63908250  0.19395000  1
  P  P12  1  0.89902350  0.86091750  0.69395000  1
  P  P13  1  0.59805050  0.63436250  0.30883700  1
  P  P14  1  0.59805050  0.36563750  0.80883700  1
  P  P15  1  0.89902350  0.13908250  0.19395000  1
  O  O16  1  0.40060600  0.80272000  0.34045800  1
  O  O17  1  0.49876800  0.47349000  0.25360600  1
  O  O18  1  0.32329450  0.55711350  0.63258200  1
  O  O19  1  0.40749150  0.83468450  0.06253800  1
  O  O20  1  0.09192100  0.35517400  0.43154000  1
  O  O21  1  0.49876800  0.52651000  0.75360600  1
  O  O22  1  0.10033150  0.71967650  0.65619900  1
  O  O23  1  0.17240300  0.93661800  0.38050500  1
  O  O24  1  0.10033150  0.28032350  0.15619900  1
  O  O25  1  0.40749150  0.16531550  0.56253800  1
  O  O26  1  0.17240300  0.06338200  0.88050500  1
  O  O27  1  0.40060600  0.19728000  0.84045800  1
  O  O28  1  0.09192100  0.64482600  0.93154000  1
  O  O29  1  0.32329450  0.44288650  0.13258200  1
  O  O30  1  0.90060600  0.30272000  0.34045800  1
  O  O31  1  0.99876800  0.97349000  0.25360600  1
  O  O32  1  0.82329450  0.05711350  0.63258200  1
  O  O33  1  0.90749150  0.33468450  0.06253800  1
  O  O34  1  0.59192100  0.85517400  0.43154000  1
  O  O35  1  0.99876800  0.02651000  0.75360600  1
  O  O36  1  0.60033150  0.21967650  0.65619900  1
  O  O37  1  0.67240300  0.43661800  0.38050500  1
  O  O38  1  0.60033150  0.78032350  0.15619900  1
  O  O39  1  0.90749150  0.66531550  0.56253800  1
  O  O40  1  0.67240300  0.56338200  0.88050500  1
  O  O41  1  0.90060600  0.69728000  0.84045800  1
  O  O42  1  0.59192100  0.14482600  0.93154000  1
  O  O43  1  0.82329450  0.94288650  0.13258200  1
