# generated using pymatgen
data_MnBr2
_symmetry_space_group_name_H-M   'P 1'
_cell_length_a   11.08422000
_cell_length_b   11.08422000
_cell_length_c   11.08422000
_cell_angle_alpha   90.00000000
_cell_angle_beta   90.00000000
_cell_angle_gamma   90.00000000
_symmetry_Int_Tables_number   1
_chemical_formula_structural   MnBr2
_chemical_formula_sum   'Mn16 Br32'
_cell_volume   1361.80652665
_cell_formula_units_Z   16
loop_
 _symmetry_equiv_pos_site_id
 _symmetry_equiv_pos_as_xyz
  1  'x, y, z'
loop_
 _atom_site_type_symbol
 _atom_site_label
 _atom_site_symmetry_multiplicity
 _atom_site_fract_x
 _atom_site_fract_y
 _atom_site_fract_z
 _atom_site_occupancy
  Mn  Mn0  1  0.12500000  0.87500000  0.37500000  1
  Mn  Mn1  1  0.12500000  0.62500000  0.12500000  1
  Mn  Mn2  1  0.37500000  0.87500000  0.12500000  1
  Mn  Mn3  1  0.37500000  0.62500000  0.37500000  1
  Mn  Mn4  1  0.12500000  0.37500000  0.87500000  1
  Mn  Mn5  1  0.12500000  0.12500000  0.62500000  1
  Mn  Mn6  1  0.37500000  0.37500000  0.62500000  1
  Mn  Mn7  1  0.37500000  0.12500000  0.87500000  1
  Mn  Mn8  1  0.62500000  0.87500000  0.87500000  1
  Mn  Mn9  1  0.62500000  0.62500000  0.62500000  1
  Mn  Mn10  1  0.87500000  0.87500000  0.62500000  1
  Mn  Mn11  1  0.87500000  0.62500000  0.87500000  1
  Mn  Mn12  1  0.62500000  0.37500000  0.37500000  1
  Mn  Mn13  1  0.62500000  0.12500000  0.12500000  1
  Mn  Mn14  1  0.87500000  0.37500000  0.12500000  1
  Mn  Mn15  1  0.87500000  0.12500000  0.37500000  1
  Br  Br16  1  0.36934100  0.86934100  0.36934100  1
  Br  Br17  1  0.63065900  0.13065900  0.36934100  1
  Br  Br18  1  0.38065900  0.38065900  0.38065900  1
  Br  Br19  1  0.11934100  0.11934100  0.38065900  1
  Br  Br20  1  0.38065900  0.11934100  0.11934100  1
  Br  Br21  1  0.13065900  0.86934100  0.13065900  1
  Br  Br22  1  0.11934100  0.38065900  0.11934100  1
  Br  Br23  1  0.86934100  0.13065900  0.13065900  1
  Br  Br24  1  0.36934100  0.36934100  0.86934100  1
  Br  Br25  1  0.63065900  0.63065900  0.86934100  1
  Br  Br26  1  0.38065900  0.88065900  0.88065900  1
  Br  Br27  1  0.11934100  0.61934100  0.88065900  1
  Br  Br28  1  0.38065900  0.61934100  0.61934100  1
  Br  Br29  1  0.13065900  0.36934100  0.63065900  1
  Br  Br30  1  0.11934100  0.88065900  0.61934100  1
  Br  Br31  1  0.86934100  0.63065900  0.63065900  1
  Br  Br32  1  0.86934100  0.86934100  0.86934100  1
  Br  Br33  1  0.13065900  0.13065900  0.86934100  1
  Br  Br34  1  0.88065900  0.38065900  0.88065900  1
  Br  Br35  1  0.61934100  0.11934100  0.88065900  1
  Br  Br36  1  0.88065900  0.11934100  0.61934100  1
  Br  Br37  1  0.63065900  0.86934100  0.63065900  1
  Br  Br38  1  0.61934100  0.38065900  0.61934100  1
  Br  Br39  1  0.36934100  0.13065900  0.63065900  1
  Br  Br40  1  0.86934100  0.36934100  0.36934100  1
  Br  Br41  1  0.13065900  0.63065900  0.36934100  1
  Br  Br42  1  0.88065900  0.88065900  0.38065900  1
  Br  Br43  1  0.61934100  0.61934100  0.38065900  1
  Br  Br44  1  0.88065900  0.61934100  0.11934100  1
  Br  Br45  1  0.63065900  0.36934100  0.13065900  1
  Br  Br46  1  0.61934100  0.88065900  0.11934100  1
  Br  Br47  1  0.36934100  0.63065900  0.13065900  1
