# generated using pymatgen
data_Zr2P2O9
_symmetry_space_group_name_H-M   'P 1'
_cell_length_a   13.95442000
_cell_length_b   6.68903800
_cell_length_c   10.27343162
_cell_angle_alpha   90.00000000
_cell_angle_beta   131.59262036
_cell_angle_gamma   90.00000000
_symmetry_Int_Tables_number   1
_chemical_formula_structural   Zr2P2O9
_chemical_formula_sum   'Zr8 P8 O36'
_cell_volume   717.17475960
_cell_formula_units_Z   4
loop_
 _symmetry_equiv_pos_site_id
 _symmetry_equiv_pos_as_xyz
  1  'x, y, z'
loop_
 _atom_site_type_symbol
 _atom_site_label
 _atom_site_symmetry_multiplicity
 _atom_site_fract_x
 _atom_site_fract_y
 _atom_site_fract_z
 _atom_site_occupancy
  Zr  Zr0  1  0.44326000  0.50000000  0.09831500  1
  Zr  Zr1  1  0.55674000  0.50000000  0.90168500  1
  Zr  Zr2  1  0.31544400  0.00000000  0.36416100  1
  Zr  Zr3  1  0.68455600  0.00000000  0.63583900  1
  Zr  Zr4  1  0.94326000  0.00000000  0.09831500  1
  Zr  Zr5  1  0.05674000  0.00000000  0.90168500  1
  Zr  Zr6  1  0.81544400  0.50000000  0.36416100  1
  Zr  Zr7  1  0.18455600  0.50000000  0.63583900  1
  P  P8  1  0.40693300  0.00000000  0.16534400  1
  P  P9  1  0.67024700  0.50000000  0.54138300  1
  P  P10  1  0.59306700  0.00000000  0.83465600  1
  P  P11  1  0.32975300  0.50000000  0.45861700  1
  P  P12  1  0.90693300  0.50000000  0.16534400  1
  P  P13  1  0.17024700  0.00000000  0.54138300  1
  P  P14  1  0.09306700  0.50000000  0.83465600  1
  P  P15  1  0.82975300  0.00000000  0.45861700  1
  O  O16  1  0.68510050  0.68858050  0.63987500  1
  O  O17  1  0.57016050  0.81214650  0.89449800  1
  O  O18  1  0.51654700  0.00000000  0.63415600  1
  O  O19  1  0.42983950  0.18785350  0.10550200  1
  O  O20  1  0.68510050  0.31141950  0.63987500  1
  O  O21  1  0.31489950  0.31141950  0.36012500  1
  O  O22  1  0.26748300  0.00000000  0.09791100  1
  O  O23  1  0.73251700  0.00000000  0.90208900  1
  O  O24  1  0.48345300  0.00000000  0.36584400  1
  O  O25  1  0.72791300  0.00000000  0.47666300  1
  O  O26  1  0.53472100  0.50000000  0.35774200  1
  O  O27  1  0.46527900  0.50000000  0.64225800  1
  O  O28  1  0.88637000  0.00000000  0.84447300  1
  O  O29  1  0.31489950  0.68858050  0.36012500  1
  O  O30  1  0.42983950  0.81214650  0.10550200  1
  O  O31  1  0.27208700  0.00000000  0.52333700  1
  O  O32  1  0.57016050  0.18785350  0.89449800  1
  O  O33  1  0.11363000  0.00000000  0.15552700  1
  O  O34  1  0.18510050  0.18858050  0.63987500  1
  O  O35  1  0.07016050  0.31214650  0.89449800  1
  O  O36  1  0.01654700  0.50000000  0.63415600  1
  O  O37  1  0.92983950  0.68785350  0.10550200  1
  O  O38  1  0.18510050  0.81141950  0.63987500  1
  O  O39  1  0.81489950  0.81141950  0.36012500  1
  O  O40  1  0.76748300  0.50000000  0.09791100  1
  O  O41  1  0.23251700  0.50000000  0.90208900  1
  O  O42  1  0.98345300  0.50000000  0.36584400  1
  O  O43  1  0.22791300  0.50000000  0.47666300  1
  O  O44  1  0.03472100  0.00000000  0.35774200  1
  O  O45  1  0.96527900  0.00000000  0.64225800  1
  O  O46  1  0.38637000  0.50000000  0.84447300  1
  O  O47  1  0.81489950  0.18858050  0.36012500  1
  O  O48  1  0.92983950  0.31214650  0.10550200  1
  O  O49  1  0.77208700  0.50000000  0.52333700  1
  O  O50  1  0.07016050  0.68785350  0.89449800  1
  O  O51  1  0.61363000  0.50000000  0.15552700  1
