# generated using pymatgen
data_SiO2
_symmetry_space_group_name_H-M   'P 1'
_cell_length_a   13.57929000
_cell_length_b   20.23892000
_cell_length_c   20.39886400
_cell_angle_alpha   90.00000000
_cell_angle_beta   90.00000000
_cell_angle_gamma   90.00000000
_symmetry_Int_Tables_number   1
_chemical_formula_structural   SiO2
_chemical_formula_sum   'Si96 O192'
_cell_volume   5606.22313786
_cell_formula_units_Z   96
loop_
 _symmetry_equiv_pos_site_id
 _symmetry_equiv_pos_as_xyz
  1  'x, y, z'
loop_
 _atom_site_type_symbol
 _atom_site_label
 _atom_site_symmetry_multiplicity
 _atom_site_fract_x
 _atom_site_fract_y
 _atom_site_fract_z
 _atom_site_occupancy
  Si  Si0  1  0.35908400  0.69059500  0.62103300  1
  Si  Si1  1  0.13603850  0.12170250  0.42392950  1
  Si  Si2  1  0.14315350  0.27700850  0.57585050  1
  Si  Si3  1  0.86552550  0.19686450  0.27738350  1
  Si  Si4  1  0.34898200  0.07675800  0.61999800  1
  Si  Si5  1  0.49731200  0.81118100  0.42496300  1
  Si  Si6  1  0.14027150  0.87665050  0.81405050  1
  Si  Si7  1  0.35908400  0.69059500  0.37896700  1
  Si  Si8  1  0.64356300  0.78119100  0.31166100  1
  Si  Si9  1  0.13603850  0.87829750  0.42392950  1
  Si  Si10  1  0.35908400  0.30940500  0.37896700  1
  Si  Si11  1  0.14027150  0.12334950  0.18594950  1
  Si  Si12  1  0.35184050  0.07895550  0.77411150  1
  Si  Si13  1  0.49731200  0.81118100  0.57503700  1
  Si  Si14  1  0.13603850  0.12170250  0.57607050  1
  Si  Si15  1  0.35184050  0.92104450  0.22588850  1
  Si  Si16  1  0.14315350  0.72299150  0.42414950  1
  Si  Si17  1  0.86552550  0.80313550  0.72261650  1
  Si  Si18  1  0.00494700  0.07550100  0.30485300  1
  Si  Si19  1  0.49768750  0.57819950  0.57676650  1
  Si  Si20  1  0.14315350  0.72299150  0.57585050  1
  Si  Si21  1  0.13603850  0.87829750  0.57607050  1
  Si  Si22  1  0.51174600  0.18184400  0.19120500  1
  Si  Si23  1  0.49768750  0.57819950  0.42323350  1
  Si  Si24  1  0.49731200  0.18881900  0.57503700  1
  Si  Si25  1  0.64356300  0.78119100  0.68833900  1
  Si  Si26  1  0.34898200  0.92324200  0.38000200  1
  Si  Si27  1  0.35184050  0.07895550  0.22588850  1
  Si  Si28  1  0.49768750  0.42180050  0.42323350  1
  Si  Si29  1  0.86552550  0.19686450  0.72261650  1
  Si  Si30  1  0.34898200  0.07675800  0.38000200  1
  Si  Si31  1  0.35184050  0.92104450  0.77411150  1
  Si  Si32  1  0.51174600  0.81815600  0.19120500  1
  Si  Si33  1  0.35908400  0.30940500  0.62103300  1
  Si  Si34  1  0.00494700  0.92449900  0.69514700  1
  Si  Si35  1  0.00494700  0.92449900  0.30485300  1
  Si  Si36  1  0.64356300  0.21880900  0.31166100  1
  Si  Si37  1  0.86552550  0.80313550  0.27738350  1
  Si  Si38  1  0.51174600  0.81815600  0.80879500  1
  Si  Si39  1  0.14027150  0.87665050  0.18594950  1
  Si  Si40  1  0.49731200  0.18881900  0.42496300  1
  Si  Si41  1  0.64356300  0.21880900  0.68833900  1
  Si  Si42  1  0.14027150  0.12334950  0.81405050  1
  Si  Si43  1  0.51174600  0.18184400  0.80879500  1
  Si  Si44  1  0.14315350  0.27700850  0.42414950  1
  Si  Si45  1  0.49768750  0.42180050  0.57676650  1
  Si  Si46  1  0.00494700  0.07550100  0.69514700  1
  Si  Si47  1  0.34898200  0.92324200  0.61999800  1
  Si  Si48  1  0.85908400  0.19059500  0.12103300  1
  Si  Si49  1  0.63603850  0.62170250  0.92392950  1
  Si  Si50  1  0.64315350  0.77700850  0.07585050  1
  Si  Si51  1  0.36552550  0.69686450  0.77738350  1
  Si  Si52  1  0.84898200  0.57675800  0.11999800  1
  Si  Si53  1  0.99731200  0.31118100  0.92496300  1
  Si  Si54  1  0.64027150  0.37665050  0.31405050  1
  Si  Si55  1  0.85908400  0.19059500  0.87896700  1
  Si  Si56  1  0.14356300  0.28119100  0.81166100  1
  Si  Si57  1  0.63603850  0.37829750  0.92392950  1
  Si  Si58  1  0.85908400  0.80940500  0.87896700  1
  Si  Si59  1  0.64027150  0.62334950  0.68594950  1
  Si  Si60  1  0.85184050  0.57895550  0.27411150  1
  Si  Si61  1  0.99731200  0.31118100  0.07503700  1
  Si  Si62  1  0.63603850  0.62170250  0.07607050  1
  Si  Si63  1  0.85184050  0.42104450  0.72588850  1
  Si  Si64  1  0.64315350  0.22299150  0.92414950  1
  Si  Si65  1  0.36552550  0.30313550  0.22261650  1
  Si  Si66  1  0.50494700  0.57550100  0.80485300  1
  Si  Si67  1  0.99768750  0.07819950  0.07676650  1
  Si  Si68  1  0.64315350  0.22299150  0.07585050  1
  Si  Si69  1  0.63603850  0.37829750  0.07607050  1
  Si  Si70  1  0.01174600  0.68184400  0.69120500  1
  Si  Si71  1  0.99768750  0.07819950  0.92323350  1
  Si  Si72  1  0.99731200  0.68881900  0.07503700  1
  Si  Si73  1  0.14356300  0.28119100  0.18833900  1
  Si  Si74  1  0.84898200  0.42324200  0.88000200  1
  Si  Si75  1  0.85184050  0.57895550  0.72588850  1
  Si  Si76  1  0.99768750  0.92180050  0.92323350  1
  Si  Si77  1  0.36552550  0.69686450  0.22261650  1
  Si  Si78  1  0.84898200  0.57675800  0.88000200  1
  Si  Si79  1  0.85184050  0.42104450  0.27411150  1
  Si  Si80  1  0.01174600  0.31815600  0.69120500  1
  Si  Si81  1  0.85908400  0.80940500  0.12103300  1
  Si  Si82  1  0.50494700  0.42449900  0.19514700  1
  Si  Si83  1  0.50494700  0.42449900  0.80485300  1
  Si  Si84  1  0.14356300  0.71880900  0.81166100  1
  Si  Si85  1  0.36552550  0.30313550  0.77738350  1
  Si  Si86  1  0.01174600  0.31815600  0.30879500  1
  Si  Si87  1  0.64027150  0.37665050  0.68594950  1
  Si  Si88  1  0.99731200  0.68881900  0.92496300  1
  Si  Si89  1  0.14356300  0.71880900  0.18833900  1
  Si  Si90  1  0.64027150  0.62334950  0.31405050  1
  Si  Si91  1  0.01174600  0.68184400  0.30879500  1
  Si  Si92  1  0.64315350  0.77700850  0.92414950  1
  Si  Si93  1  0.99768750  0.92180050  0.07676650  1
  Si  Si94  1  0.50494700  0.57550100  0.19514700  1
  Si  Si95  1  0.84898200  0.42324200  0.11999800  1
  O  O96  1  0.40522050  0.38242650  0.60896450  1
  O  O97  1  0.53676200  0.80965900  0.50000000  1
  O  O98  1  0.42986850  0.25372150  0.41138250  1
  O  O99  1  0.25706900  0.89278300  0.18638600  1
  O  O100  1  0.38260500  0.00000000  0.61307700  1
  O  O101  1  0.05569250  0.08678450  0.37635650  1
  O  O102  1  0.06366500  0.68298600  0.61969600  1
  O  O103  1  0.42986850  0.74627850  0.41138250  1
  O  O104  1  0.24324400  0.91315800  0.58412400  1
  O  O105  1  0.40522050  0.38242650  0.39103550  1
  O  O106  1  0.05569250  0.91321550  0.37635650  1
  O  O107  1  0.34739250  0.29556750  0.30100550  1
  O  O108  1  0.45037150  0.88665750  0.80312650  1
  O  O109  1  0.05569250  0.91321550  0.62364350  1
  O  O110  1  0.40522050  0.61757350  0.60896450  1
  O  O111  1  0.91219200  0.12510100  0.29484100  1
  O  O112  1  0.96412100  0.00000000  0.30130500  1
  O  O113  1  0.34739250  0.29556750  0.69899450  1
  O  O114  1  0.42986850  0.25372150  0.58861750  1
  O  O115  1  0.59309750  0.81122650  0.62261950  1
  O  O116  1  0.33865300  0.90259800  0.69686400  1
  O  O117  1  0.93927700  0.74525100  0.69813900  1
  O  O118  1  0.33865300  0.09740200  0.30313600  1
  O  O119  1  0.06366500  0.68298600  0.38030400  1
  O  O120  1  0.14470450  0.80073450  0.40323450  1
  O  O121  1  0.10068100  0.88583000  0.50000000  1
  O  O122  1  0.59676650  0.81686050  0.24743150  1
  O  O123  1  0.62145000  0.70228300  0.69325900  1
  O  O124  1  0.40522050  0.61757350  0.39103550  1
  O  O125  1  0.62145000  0.70228300  0.30674100  1
  O  O126  1  0.14470450  0.19926550  0.59676550  1
  O  O127  1  0.59676650  0.81686050  0.75256850  1
  O  O128  1  0.97503950  0.00000000  0.08415550  1
  O  O129  1  0.24324400  0.08684200  0.41587600  1
  O  O130  1  0.09802600  0.90231300  0.11584300  1
  O  O131  1  0.45037150  0.11334250  0.80312650  1
  O  O132  1  0.06366500  0.31701400  0.38030400  1
  O  O133  1  0.11026100  0.71496400  0.50000000  1
  O  O134  1  0.36152400  0.00000000  0.78407400  1
  O  O135  1  0.08631150  0.91386250  0.75309650  1
  O  O136  1  0.14470450  0.80073450  0.59676550  1
  O  O137  1  0.08631150  0.08613750  0.24690350  1
  O  O138  1  0.97503950  0.00000000  0.91584450  1
  O  O139  1  0.93927700  0.74525100  0.30186100  1
  O  O140  1  0.59309750  0.18877350  0.37738050  1
  O  O141  1  0.93927700  0.25474900  0.69813900  1
  O  O142  1  0.76086150  0.79567250  0.31515150  1
  O  O143  1  0.93927700  0.25474900  0.30186100  1
  O  O144  1  0.25228700  0.30770000  0.58599900  1
  O  O145  1  0.43244200  0.12226900  0.58579800  1
  O  O146  1  0.96412100  0.00000000  0.69869500  1
  O  O147  1  0.62145000  0.29771700  0.69325900  1
  O  O148  1  0.09802600  0.90231300  0.88415700  1
  O  O149  1  0.36152400  0.00000000  0.21592600  1
  O  O150  1  0.53676200  0.19034100  0.50000000  1
  O  O151  1  0.42986850  0.74627850  0.58861750  1
  O  O152  1  0.10068100  0.11417000  0.50000000  1
  O  O153  1  0.59309750  0.81122650  0.37738050  1
  O  O154  1  0.25706900  0.89278300  0.81361400  1
  O  O155  1  0.91219200  0.12510100  0.70515900  1
  O  O156  1  0.25706900  0.10721700  0.81361400  1
  O  O157  1  0.25706900  0.10721700  0.18638600  1
  O  O158  1  0.38260500  0.00000000  0.38692300  1
  O  O159  1  0.08631150  0.08613750  0.75309650  1
  O  O160  1  0.25228700  0.69230000  0.41400100  1
  O  O161  1  0.09802600  0.09768700  0.88415700  1
  O  O162  1  0.43244200  0.87773100  0.41420200  1
  O  O163  1  0.91219200  0.87489900  0.29484100  1
  O  O164  1  0.76086150  0.20432750  0.31515150  1
  O  O165  1  0.43244200  0.87773100  0.58579800  1
  O  O166  1  0.34739250  0.70443250  0.69899450  1
  O  O167  1  0.08631150  0.91386250  0.24690350  1
  O  O168  1  0.59309750  0.18877350  0.62261950  1
  O  O169  1  0.51152300  0.59790500  0.50000000  1
  O  O170  1  0.24324400  0.08684200  0.58412400  1
  O  O171  1  0.59676650  0.18313950  0.75256850  1
  O  O172  1  0.45037150  0.88665750  0.19687350  1
  O  O173  1  0.09802600  0.09768700  0.11584300  1
  O  O174  1  0.24324400  0.91315800  0.41587600  1
  O  O175  1  0.14470450  0.19926550  0.40323450  1
  O  O176  1  0.76086150  0.79567250  0.68484850  1
  O  O177  1  0.33865300  0.90259800  0.30313600  1
  O  O178  1  0.91219200  0.87489900  0.70515900  1
  O  O179  1  0.11026100  0.28503600  0.50000000  1
  O  O180  1  0.45037150  0.11334250  0.19687350  1
  O  O181  1  0.05569250  0.08678450  0.62364350  1
  O  O182  1  0.51152300  0.40209500  0.50000000  1
  O  O183  1  0.43244200  0.12226900  0.41420200  1
  O  O184  1  0.25228700  0.69230000  0.58599900  1
  O  O185  1  0.25228700  0.30770000  0.41400100  1
  O  O186  1  0.62145000  0.29771700  0.30674100  1
  O  O187  1  0.33865300  0.09740200  0.69686400  1
  O  O188  1  0.06366500  0.31701400  0.61969600  1
  O  O189  1  0.59676650  0.18313950  0.24743150  1
  O  O190  1  0.34739250  0.70443250  0.30100550  1
  O  O191  1  0.76086150  0.20432750  0.68484850  1
  O  O192  1  0.90522050  0.88242650  0.10896450  1
  O  O193  1  0.03676200  0.30965900  0.00000000  1
  O  O194  1  0.92986850  0.75372150  0.91138250  1
  O  O195  1  0.75706900  0.39278300  0.68638600  1
  O  O196  1  0.88260500  0.50000000  0.11307700  1
  O  O197  1  0.55569250  0.58678450  0.87635650  1
  O  O198  1  0.56366500  0.18298600  0.11969600  1
  O  O199  1  0.92986850  0.24627850  0.91138250  1
  O  O200  1  0.74324400  0.41315800  0.08412400  1
  O  O201  1  0.90522050  0.88242650  0.89103550  1
  O  O202  1  0.55569250  0.41321550  0.87635650  1
  O  O203  1  0.84739250  0.79556750  0.80100550  1
  O  O204  1  0.95037150  0.38665750  0.30312650  1
  O  O205  1  0.55569250  0.41321550  0.12364350  1
  O  O206  1  0.90522050  0.11757350  0.10896450  1
  O  O207  1  0.41219200  0.62510100  0.79484100  1
  O  O208  1  0.46412100  0.50000000  0.80130500  1
  O  O209  1  0.84739250  0.79556750  0.19899450  1
  O  O210  1  0.92986850  0.75372150  0.08861750  1
  O  O211  1  0.09309750  0.31122650  0.12261950  1
  O  O212  1  0.83865300  0.40259800  0.19686400  1
  O  O213  1  0.43927700  0.24525100  0.19813900  1
  O  O214  1  0.83865300  0.59740200  0.80313600  1
  O  O215  1  0.56366500  0.18298600  0.88030400  1
  O  O216  1  0.64470450  0.30073450  0.90323450  1
  O  O217  1  0.60068100  0.38583000  0.00000000  1
  O  O218  1  0.09676650  0.31686050  0.74743150  1
  O  O219  1  0.12145000  0.20228300  0.19325900  1
  O  O220  1  0.90522050  0.11757350  0.89103550  1
  O  O221  1  0.12145000  0.20228300  0.80674100  1
  O  O222  1  0.64470450  0.69926550  0.09676550  1
  O  O223  1  0.09676650  0.31686050  0.25256850  1
  O  O224  1  0.47503950  0.50000000  0.58415550  1
  O  O225  1  0.74324400  0.58684200  0.91587600  1
  O  O226  1  0.59802600  0.40231300  0.61584300  1
  O  O227  1  0.95037150  0.61334250  0.30312650  1
  O  O228  1  0.56366500  0.81701400  0.88030400  1
  O  O229  1  0.61026100  0.21496400  0.00000000  1
  O  O230  1  0.86152400  0.50000000  0.28407400  1
  O  O231  1  0.58631150  0.41386250  0.25309650  1
  O  O232  1  0.64470450  0.30073450  0.09676550  1
  O  O233  1  0.58631150  0.58613750  0.74690350  1
  O  O234  1  0.47503950  0.50000000  0.41584450  1
  O  O235  1  0.43927700  0.24525100  0.80186100  1
  O  O236  1  0.09309750  0.68877350  0.87738050  1
  O  O237  1  0.43927700  0.75474900  0.19813900  1
  O  O238  1  0.26086150  0.29567250  0.81515150  1
  O  O239  1  0.43927700  0.75474900  0.80186100  1
  O  O240  1  0.75228700  0.80770000  0.08599900  1
  O  O241  1  0.93244200  0.62226900  0.08579800  1
  O  O242  1  0.46412100  0.50000000  0.19869500  1
  O  O243  1  0.12145000  0.79771700  0.19325900  1
  O  O244  1  0.59802600  0.40231300  0.38415700  1
  O  O245  1  0.86152400  0.50000000  0.71592600  1
  O  O246  1  0.03676200  0.69034100  0.00000000  1
  O  O247  1  0.92986850  0.24627850  0.08861750  1
  O  O248  1  0.60068100  0.61417000  0.00000000  1
  O  O249  1  0.09309750  0.31122650  0.87738050  1
  O  O250  1  0.75706900  0.39278300  0.31361400  1
  O  O251  1  0.41219200  0.62510100  0.20515900  1
  O  O252  1  0.75706900  0.60721700  0.31361400  1
  O  O253  1  0.75706900  0.60721700  0.68638600  1
  O  O254  1  0.88260500  0.50000000  0.88692300  1
  O  O255  1  0.58631150  0.58613750  0.25309650  1
  O  O256  1  0.75228700  0.19230000  0.91400100  1
  O  O257  1  0.59802600  0.59768700  0.38415700  1
  O  O258  1  0.93244200  0.37773100  0.91420200  1
  O  O259  1  0.41219200  0.37489900  0.79484100  1
  O  O260  1  0.26086150  0.70432750  0.81515150  1
  O  O261  1  0.93244200  0.37773100  0.08579800  1
  O  O262  1  0.84739250  0.20443250  0.19899450  1
  O  O263  1  0.58631150  0.41386250  0.74690350  1
  O  O264  1  0.09309750  0.68877350  0.12261950  1
  O  O265  1  0.01152300  0.09790500  0.00000000  1
  O  O266  1  0.74324400  0.58684200  0.08412400  1
  O  O267  1  0.09676650  0.68313950  0.25256850  1
  O  O268  1  0.95037150  0.38665750  0.69687350  1
  O  O269  1  0.59802600  0.59768700  0.61584300  1
  O  O270  1  0.74324400  0.41315800  0.91587600  1
  O  O271  1  0.64470450  0.69926550  0.90323450  1
  O  O272  1  0.26086150  0.29567250  0.18484850  1
  O  O273  1  0.83865300  0.40259800  0.80313600  1
  O  O274  1  0.41219200  0.37489900  0.20515900  1
  O  O275  1  0.61026100  0.78503600  0.00000000  1
  O  O276  1  0.95037150  0.61334250  0.69687350  1
  O  O277  1  0.55569250  0.58678450  0.12364350  1
  O  O278  1  0.01152300  0.90209500  0.00000000  1
  O  O279  1  0.93244200  0.62226900  0.91420200  1
  O  O280  1  0.75228700  0.19230000  0.08599900  1
  O  O281  1  0.75228700  0.80770000  0.91400100  1
  O  O282  1  0.12145000  0.79771700  0.80674100  1
  O  O283  1  0.83865300  0.59740200  0.19686400  1
  O  O284  1  0.56366500  0.81701400  0.11969600  1
  O  O285  1  0.09676650  0.68313950  0.74743150  1
  O  O286  1  0.84739250  0.20443250  0.80100550  1
  O  O287  1  0.26086150  0.70432750  0.18484850  1
