# generated using pymatgen
data_LiS2N(O2F)2
_symmetry_space_group_name_H-M   'P 1'
_cell_length_a   8.73812764
_cell_length_b   8.73812764
_cell_length_c   12.96651500
_cell_angle_alpha   90.00000000
_cell_angle_beta   90.00000000
_cell_angle_gamma   120.00000000
_symmetry_Int_Tables_number   1
_chemical_formula_structural   LiS2N(O2F)2
_chemical_formula_sum   'Li6 S12 N6 O24 F12'
_cell_volume   857.41419077
_cell_formula_units_Z   6
loop_
 _symmetry_equiv_pos_site_id
 _symmetry_equiv_pos_as_xyz
  1  'x, y, z'
loop_
 _atom_site_type_symbol
 _atom_site_label
 _atom_site_symmetry_multiplicity
 _atom_site_fract_x
 _atom_site_fract_y
 _atom_site_fract_z
 _atom_site_occupancy
  Li  Li0  1  0.33333333  0.66666667  0.51819500  1
  Li  Li1  1  0.66666667  0.33333333  0.48180500  1
  Li  Li2  1  0.33333333  0.66666667  0.98180500  1
  Li  Li3  1  0.66666667  0.33333333  0.01819500  1
  Li  Li4  1  0.66666667  0.33333333  0.25000000  1
  Li  Li5  1  0.33333333  0.66666667  0.75000000  1
  S  S6  1  0.63693600  0.66376200  0.35701800  1
  S  S7  1  0.02682600  0.36306400  0.14298200  1
  S  S8  1  0.33623800  0.97317400  0.35701800  1
  S  S9  1  0.97317400  0.63693600  0.64298200  1
  S  S10  1  0.63693600  0.66376200  0.14298200  1
  S  S11  1  0.36306400  0.33623800  0.85701800  1
  S  S12  1  0.66376200  0.02682600  0.85701800  1
  S  S13  1  0.97317400  0.63693600  0.85701800  1
  S  S14  1  0.66376200  0.02682600  0.64298200  1
  S  S15  1  0.36306400  0.33623800  0.64298200  1
  S  S16  1  0.33623800  0.97317400  0.14298200  1
  S  S17  1  0.02682600  0.36306400  0.35701800  1
  N  N18  1  0.87612100  0.59820300  0.75000000  1
  N  N19  1  0.72208200  0.12387900  0.75000000  1
  N  N20  1  0.12387900  0.40179700  0.25000000  1
  N  N21  1  0.27791800  0.87612100  0.25000000  1
  N  N22  1  0.40179700  0.27791800  0.75000000  1
  N  N23  1  0.59820300  0.72208200  0.25000000  1
  O  O24  1  0.44292100  0.28679500  0.56305800  1
  O  O25  1  0.44292100  0.28679500  0.93694200  1
  O  O26  1  0.38487900  0.51201800  0.86044000  1
  O  O27  1  0.15612600  0.44292100  0.06305800  1
  O  O28  1  0.51201800  0.12713900  0.13956000  1
  O  O29  1  0.12713900  0.61512100  0.86044000  1
  O  O30  1  0.55707900  0.71320500  0.06305800  1
  O  O31  1  0.55707900  0.71320500  0.43694200  1
  O  O32  1  0.71320500  0.15612600  0.56305800  1
  O  O33  1  0.48798200  0.87286100  0.63956000  1
  O  O34  1  0.28679500  0.84387400  0.43694200  1
  O  O35  1  0.71320500  0.15612600  0.93694200  1
  O  O36  1  0.61512100  0.48798200  0.36044000  1
  O  O37  1  0.61512100  0.48798200  0.13956000  1
  O  O38  1  0.12713900  0.61512100  0.63956000  1
  O  O39  1  0.87286100  0.38487900  0.13956000  1
  O  O40  1  0.48798200  0.87286100  0.86044000  1
  O  O41  1  0.15612600  0.44292100  0.43694200  1
  O  O42  1  0.87286100  0.38487900  0.36044000  1
  O  O43  1  0.84387400  0.55707900  0.56305800  1
  O  O44  1  0.38487900  0.51201800  0.63956000  1
  O  O45  1  0.28679500  0.84387400  0.06305800  1
  O  O46  1  0.84387400  0.55707900  0.93694200  1
  O  O47  1  0.51201800  0.12713900  0.36044000  1
  F  F48  1  0.05347500  0.84438800  0.87245200  1
  F  F49  1  0.94652500  0.15561200  0.12754800  1
  F  F50  1  0.84438800  0.79091300  0.12754800  1
  F  F51  1  0.84438800  0.79091300  0.37245200  1
  F  F52  1  0.15561200  0.20908700  0.62754800  1
  F  F53  1  0.20908700  0.05347500  0.12754800  1
  F  F54  1  0.15561200  0.20908700  0.87245200  1
  F  F55  1  0.94652500  0.15561200  0.37245200  1
  F  F56  1  0.20908700  0.05347500  0.37245200  1
  F  F57  1  0.05347500  0.84438800  0.62754800  1
  F  F58  1  0.79091300  0.94652500  0.62754800  1
  F  F59  1  0.79091300  0.94652500  0.87245200  1
