# generated using pymatgen
data_Hf(SeCl6)2
_symmetry_space_group_name_H-M   'P 1'
_cell_length_a   12.32361400
_cell_length_b   13.13480400
_cell_length_c   22.59290800
_cell_angle_alpha   90.00000000
_cell_angle_beta   90.00000000
_cell_angle_gamma   90.00000000
_symmetry_Int_Tables_number   1
_chemical_formula_structural   Hf(SeCl6)2
_chemical_formula_sum   'Hf8 Se16 Cl96'
_cell_volume   3657.07458117
_cell_formula_units_Z   8
loop_
 _symmetry_equiv_pos_site_id
 _symmetry_equiv_pos_as_xyz
  1  'x, y, z'
loop_
 _atom_site_type_symbol
 _atom_site_label
 _atom_site_symmetry_multiplicity
 _atom_site_fract_x
 _atom_site_fract_y
 _atom_site_fract_z
 _atom_site_occupancy
  Hf  Hf0  1  0.25000000  0.75000000  0.12628000  1
  Hf  Hf1  1  0.50000000  0.50000000  0.37628000  1
  Hf  Hf2  1  0.25000000  0.25000000  0.62628000  1
  Hf  Hf3  1  0.50000000  0.00000000  0.87628000  1
  Hf  Hf4  1  0.75000000  0.75000000  0.62628000  1
  Hf  Hf5  1  0.00000000  0.50000000  0.87628000  1
  Hf  Hf6  1  0.75000000  0.25000000  0.12628000  1
  Hf  Hf7  1  0.00000000  0.00000000  0.37628000  1
  Se  Se8  1  0.49372650  0.22557000  0.29445650  1
  Se  Se9  1  0.74372650  0.52443000  0.04445650  1
  Se  Se10  1  0.50627350  0.77443000  0.29445650  1
  Se  Se11  1  0.25627350  0.47557000  0.04445650  1
  Se  Se12  1  0.49372650  0.72557000  0.79445650  1
  Se  Se13  1  0.74372650  0.02443000  0.54445650  1
  Se  Se14  1  0.50627350  0.27443000  0.79445650  1
  Se  Se15  1  0.25627350  0.97557000  0.54445650  1
  Se  Se16  1  0.99372650  0.22557000  0.79445650  1
  Se  Se17  1  0.24372650  0.52443000  0.54445650  1
  Se  Se18  1  0.00627350  0.77443000  0.79445650  1
  Se  Se19  1  0.75627350  0.47557000  0.54445650  1
  Se  Se20  1  0.99372650  0.72557000  0.29445650  1
  Se  Se21  1  0.24372650  0.02443000  0.04445650  1
  Se  Se22  1  0.00627350  0.27443000  0.29445650  1
  Se  Se23  1  0.75627350  0.97557000  0.04445650  1
  Cl  Cl24  1  0.13487100  0.35272600  0.04801600  1
  Cl  Cl25  1  0.38704100  0.65552400  0.37324700  1
  Cl  Cl26  1  0.11031550  0.33687250  0.22340500  1
  Cl  Cl27  1  0.62239800  0.57098400  0.45077700  1
  Cl  Cl28  1  0.38912700  0.41712100  0.29776800  1
  Cl  Cl29  1  0.13912700  0.83287900  0.04776800  1
  Cl  Cl30  1  0.36087300  0.66712100  0.04776800  1
  Cl  Cl31  1  0.37760200  0.42901600  0.45077700  1
  Cl  Cl32  1  0.61087300  0.58287900  0.29776800  1
  Cl  Cl33  1  0.88968450  0.66312750  0.22340500  1
  Cl  Cl34  1  0.35662200  0.42201950  0.11829050  1
  Cl  Cl35  1  0.13968450  0.58687250  0.47340500  1
  Cl  Cl36  1  0.12760200  0.82098400  0.20077700  1
  Cl  Cl37  1  0.37239800  0.67901600  0.20077700  1
  Cl  Cl38  1  0.86295900  0.40552400  0.12324700  1
  Cl  Cl39  1  0.86031550  0.41312750  0.47340500  1
  Cl  Cl40  1  0.10662200  0.32798050  0.36829050  1
  Cl  Cl41  1  0.14337800  0.07798050  0.11829050  1
  Cl  Cl42  1  0.11512900  0.60272600  0.29801600  1
  Cl  Cl43  1  0.38487100  0.89727400  0.29801600  1
  Cl  Cl44  1  0.61295900  0.34447600  0.37324700  1
  Cl  Cl45  1  0.86512900  0.64727400  0.04801600  1
  Cl  Cl46  1  0.13704100  0.59447600  0.12324700  1
  Cl  Cl47  1  0.39337800  0.17201950  0.36829050  1
  Cl  Cl48  1  0.13487100  0.85272600  0.54801600  1
  Cl  Cl49  1  0.38704100  0.15552400  0.87324700  1
  Cl  Cl50  1  0.11031550  0.83687250  0.72340500  1
  Cl  Cl51  1  0.62239800  0.07098400  0.95077700  1
  Cl  Cl52  1  0.38912700  0.91712100  0.79776800  1
  Cl  Cl53  1  0.13912700  0.33287900  0.54776800  1
  Cl  Cl54  1  0.36087300  0.16712100  0.54776800  1
  Cl  Cl55  1  0.37760200  0.92901600  0.95077700  1
  Cl  Cl56  1  0.61087300  0.08287900  0.79776800  1
  Cl  Cl57  1  0.88968450  0.16312750  0.72340500  1
  Cl  Cl58  1  0.35662200  0.92201950  0.61829050  1
  Cl  Cl59  1  0.13968450  0.08687250  0.97340500  1
  Cl  Cl60  1  0.12760200  0.32098400  0.70077700  1
  Cl  Cl61  1  0.37239800  0.17901600  0.70077700  1
  Cl  Cl62  1  0.86295900  0.90552400  0.62324700  1
  Cl  Cl63  1  0.86031550  0.91312750  0.97340500  1
  Cl  Cl64  1  0.10662200  0.82798050  0.86829050  1
  Cl  Cl65  1  0.14337800  0.57798050  0.61829050  1
  Cl  Cl66  1  0.11512900  0.10272600  0.79801600  1
  Cl  Cl67  1  0.38487100  0.39727400  0.79801600  1
  Cl  Cl68  1  0.61295900  0.84447600  0.87324700  1
  Cl  Cl69  1  0.86512900  0.14727400  0.54801600  1
  Cl  Cl70  1  0.13704100  0.09447600  0.62324700  1
  Cl  Cl71  1  0.39337800  0.67201950  0.86829050  1
  Cl  Cl72  1  0.63487100  0.35272600  0.54801600  1
  Cl  Cl73  1  0.88704100  0.65552400  0.87324700  1
  Cl  Cl74  1  0.61031550  0.33687250  0.72340500  1
  Cl  Cl75  1  0.12239800  0.57098400  0.95077700  1
  Cl  Cl76  1  0.88912700  0.41712100  0.79776800  1
  Cl  Cl77  1  0.63912700  0.83287900  0.54776800  1
  Cl  Cl78  1  0.86087300  0.66712100  0.54776800  1
  Cl  Cl79  1  0.87760200  0.42901600  0.95077700  1
  Cl  Cl80  1  0.11087300  0.58287900  0.79776800  1
  Cl  Cl81  1  0.38968450  0.66312750  0.72340500  1
  Cl  Cl82  1  0.85662200  0.42201950  0.61829050  1
  Cl  Cl83  1  0.63968450  0.58687250  0.97340500  1
  Cl  Cl84  1  0.62760200  0.82098400  0.70077700  1
  Cl  Cl85  1  0.87239800  0.67901600  0.70077700  1
  Cl  Cl86  1  0.36295900  0.40552400  0.62324700  1
  Cl  Cl87  1  0.36031550  0.41312750  0.97340500  1
  Cl  Cl88  1  0.60662200  0.32798050  0.86829050  1
  Cl  Cl89  1  0.64337800  0.07798050  0.61829050  1
  Cl  Cl90  1  0.61512900  0.60272600  0.79801600  1
  Cl  Cl91  1  0.88487100  0.89727400  0.79801600  1
  Cl  Cl92  1  0.11295900  0.34447600  0.87324700  1
  Cl  Cl93  1  0.36512900  0.64727400  0.54801600  1
  Cl  Cl94  1  0.63704100  0.59447600  0.62324700  1
  Cl  Cl95  1  0.89337800  0.17201950  0.86829050  1
  Cl  Cl96  1  0.63487100  0.85272600  0.04801600  1
  Cl  Cl97  1  0.88704100  0.15552400  0.37324700  1
  Cl  Cl98  1  0.61031550  0.83687250  0.22340500  1
  Cl  Cl99  1  0.12239800  0.07098400  0.45077700  1
  Cl  Cl100  1  0.88912700  0.91712100  0.29776800  1
  Cl  Cl101  1  0.63912700  0.33287900  0.04776800  1
  Cl  Cl102  1  0.86087300  0.16712100  0.04776800  1
  Cl  Cl103  1  0.87760200  0.92901600  0.45077700  1
  Cl  Cl104  1  0.11087300  0.08287900  0.29776800  1
  Cl  Cl105  1  0.38968450  0.16312750  0.22340500  1
  Cl  Cl106  1  0.85662200  0.92201950  0.11829050  1
  Cl  Cl107  1  0.63968450  0.08687250  0.47340500  1
  Cl  Cl108  1  0.62760200  0.32098400  0.20077700  1
  Cl  Cl109  1  0.87239800  0.17901600  0.20077700  1
  Cl  Cl110  1  0.36295900  0.90552400  0.12324700  1
  Cl  Cl111  1  0.36031550  0.91312750  0.47340500  1
  Cl  Cl112  1  0.60662200  0.82798050  0.36829050  1
  Cl  Cl113  1  0.64337800  0.57798050  0.11829050  1
  Cl  Cl114  1  0.61512900  0.10272600  0.29801600  1
  Cl  Cl115  1  0.88487100  0.39727400  0.29801600  1
  Cl  Cl116  1  0.11295900  0.84447600  0.37324700  1
  Cl  Cl117  1  0.36512900  0.14727400  0.04801600  1
  Cl  Cl118  1  0.63704100  0.09447600  0.12324700  1
  Cl  Cl119  1  0.89337800  0.67201950  0.36829050  1
