# generated using pymatgen
data_AlAs3(SeCl)4
_symmetry_space_group_name_H-M   'P 1'
_cell_length_a   21.27420800
_cell_length_b   13.20562600
_cell_length_c   14.48857961
_cell_angle_alpha   90.00000000
_cell_angle_beta   126.91943073
_cell_angle_gamma   90.00000000
_symmetry_Int_Tables_number   1
_chemical_formula_structural   AlAs3(SeCl)4
_chemical_formula_sum   'Al8 As24 Se32 Cl32'
_cell_volume   3254.21579393
_cell_formula_units_Z   8
loop_
 _symmetry_equiv_pos_site_id
 _symmetry_equiv_pos_as_xyz
  1  'x, y, z'
loop_
 _atom_site_type_symbol
 _atom_site_label
 _atom_site_symmetry_multiplicity
 _atom_site_fract_x
 _atom_site_fract_y
 _atom_site_fract_z
 _atom_site_occupancy
  Al  Al0  1  0.22836600  0.54010800  0.41994800  1
  Al  Al1  1  0.72836600  0.95989200  0.91994800  1
  Al  Al2  1  0.27163400  0.95989200  0.58005200  1
  Al  Al3  1  0.77163400  0.54010800  0.08005200  1
  Al  Al4  1  0.72836600  0.04010800  0.41994800  1
  Al  Al5  1  0.22836600  0.45989200  0.91994800  1
  Al  Al6  1  0.77163400  0.45989200  0.58005200  1
  Al  Al7  1  0.27163400  0.04010800  0.08005200  1
  As  As8  1  0.61369950  0.68523150  0.61413600  1
  As  As9  1  0.38630050  0.68523150  0.88586400  1
  As  As10  1  0.91378850  0.70962050  0.55110600  1
  As  As11  1  0.88630050  0.81476850  0.38586400  1
  As  As12  1  0.91378850  0.29037950  0.05110600  1
  As  As13  1  0.58621150  0.20962050  0.94889400  1
  As  As14  1  0.09945900  0.74035300  0.57644300  1
  As  As15  1  0.09945900  0.25964700  0.07644300  1
  As  As16  1  0.58621150  0.79037950  0.44889400  1
  As  As17  1  0.40054100  0.75964700  0.42355700  1
  As  As18  1  0.11369950  0.81476850  0.11413600  1
  As  As19  1  0.40054100  0.24035300  0.92355700  1
  As  As20  1  0.11369950  0.18523150  0.61413600  1
  As  As21  1  0.88630050  0.18523150  0.88586400  1
  As  As22  1  0.41378850  0.20962050  0.55110600  1
  As  As23  1  0.38630050  0.31476850  0.38586400  1
  As  As24  1  0.41378850  0.79037950  0.05110600  1
  As  As25  1  0.08621150  0.70962050  0.94889400  1
  As  As26  1  0.59945900  0.24035300  0.57644300  1
  As  As27  1  0.59945900  0.75964700  0.07644300  1
  As  As28  1  0.08621150  0.29037950  0.44889400  1
  As  As29  1  0.90054100  0.25964700  0.42355700  1
  As  As30  1  0.61369950  0.31476850  0.11413600  1
  As  As31  1  0.90054100  0.74035300  0.92355700  1
  Se  Se32  1  0.95724400  0.89512800  0.58581300  1
  Se  Se33  1  0.40876600  0.39043300  0.83304900  1
  Se  Se34  1  0.09123400  0.89043300  0.66695100  1
  Se  Se35  1  0.99274500  0.78540800  0.38099700  1
  Se  Se36  1  0.09123400  0.10956700  0.16695100  1
  Se  Se37  1  0.03267050  0.37222850  0.12231100  1
  Se  Se38  1  0.40876600  0.60956700  0.33304900  1
  Se  Se39  1  0.00725500  0.78540800  0.11900300  1
  Se  Se40  1  0.49274500  0.71459200  0.88099700  1
  Se  Se41  1  0.54275600  0.60487200  0.41418700  1
  Se  Se42  1  0.46732950  0.87222850  0.37768900  1
  Se  Se43  1  0.50725500  0.71459200  0.61900300  1
  Se  Se44  1  0.04275600  0.89512800  0.91418700  1
  Se  Se45  1  0.45724400  0.60487200  0.08581300  1
  Se  Se46  1  0.46732950  0.12777150  0.87768900  1
  Se  Se47  1  0.03267050  0.62777150  0.62231100  1
  Se  Se48  1  0.45724400  0.39512800  0.58581300  1
  Se  Se49  1  0.90876600  0.89043300  0.83304900  1
  Se  Se50  1  0.59123400  0.39043300  0.66695100  1
  Se  Se51  1  0.49274500  0.28540800  0.38099700  1
  Se  Se52  1  0.59123400  0.60956700  0.16695100  1
  Se  Se53  1  0.53267050  0.87222850  0.12231100  1
  Se  Se54  1  0.90876600  0.10956700  0.33304900  1
  Se  Se55  1  0.50725500  0.28540800  0.11900300  1
  Se  Se56  1  0.99274500  0.21459200  0.88099700  1
  Se  Se57  1  0.04275600  0.10487200  0.41418700  1
  Se  Se58  1  0.96732950  0.37222850  0.37768900  1
  Se  Se59  1  0.00725500  0.21459200  0.61900300  1
  Se  Se60  1  0.54275600  0.39512800  0.91418700  1
  Se  Se61  1  0.95724400  0.10487200  0.08581300  1
  Se  Se62  1  0.96732950  0.62777150  0.87768900  1
  Se  Se63  1  0.53267050  0.12777150  0.62231100  1
  Cl  Cl64  1  0.17687600  0.87826000  0.43222900  1
  Cl  Cl65  1  0.12020250  0.55669050  0.39978000  1
  Cl  Cl66  1  0.28555500  0.91100000  0.73453500  1
  Cl  Cl67  1  0.71444500  0.91100000  0.76546500  1
  Cl  Cl68  1  0.74128850  0.37932050  0.05549100  1
  Cl  Cl69  1  0.87979750  0.55669050  0.10022000  1
  Cl  Cl70  1  0.24128850  0.12067950  0.55549100  1
  Cl  Cl71  1  0.32312400  0.37826000  0.06777100  1
  Cl  Cl72  1  0.75871150  0.12067950  0.94450900  1
  Cl  Cl73  1  0.32312400  0.62174000  0.56777100  1
  Cl  Cl74  1  0.17687600  0.12174000  0.93222900  1
  Cl  Cl75  1  0.78555500  0.58900000  0.23453500  1
  Cl  Cl76  1  0.62020250  0.94330950  0.89978000  1
  Cl  Cl77  1  0.37979750  0.94330950  0.60022000  1
  Cl  Cl78  1  0.25871150  0.37932050  0.44450900  1
  Cl  Cl79  1  0.21444500  0.58900000  0.26546500  1
  Cl  Cl80  1  0.67687600  0.37826000  0.43222900  1
  Cl  Cl81  1  0.62020250  0.05669050  0.39978000  1
  Cl  Cl82  1  0.78555500  0.41100000  0.73453500  1
  Cl  Cl83  1  0.21444500  0.41100000  0.76546500  1
  Cl  Cl84  1  0.24128850  0.87932050  0.05549100  1
  Cl  Cl85  1  0.37979750  0.05669050  0.10022000  1
  Cl  Cl86  1  0.74128850  0.62067950  0.55549100  1
  Cl  Cl87  1  0.82312400  0.87826000  0.06777100  1
  Cl  Cl88  1  0.25871150  0.62067950  0.94450900  1
  Cl  Cl89  1  0.82312400  0.12174000  0.56777100  1
  Cl  Cl90  1  0.67687600  0.62174000  0.93222900  1
  Cl  Cl91  1  0.28555500  0.08900000  0.23453500  1
  Cl  Cl92  1  0.12020250  0.44330950  0.89978000  1
  Cl  Cl93  1  0.87979750  0.44330950  0.60022000  1
  Cl  Cl94  1  0.75871150  0.87932050  0.44450900  1
  Cl  Cl95  1  0.71444500  0.08900000  0.26546500  1
