# generated using pymatgen
data_Sr5(ReO6)2
_symmetry_space_group_name_H-M   'P 1'
_cell_length_a   10.08876640
_cell_length_b   10.08876640
_cell_length_c   57.43101178
_cell_angle_alpha   90.00000000
_cell_angle_beta   90.00000000
_cell_angle_gamma   120.00000000
_symmetry_Int_Tables_number   1
_chemical_formula_structural   Sr5(ReO6)2
_chemical_formula_sum   'Sr90 Re36 O216'
_cell_volume   5062.36239778
_cell_formula_units_Z   18
loop_
 _symmetry_equiv_pos_site_id
 _symmetry_equiv_pos_as_xyz
  1  'x, y, z'
loop_
 _atom_site_type_symbol
 _atom_site_label
 _atom_site_symmetry_multiplicity
 _atom_site_fract_x
 _atom_site_fract_y
 _atom_site_fract_z
 _atom_site_occupancy
  Sr  Sr0  1  0.35758067  0.00974033  0.31295833  1
  Sr  Sr1  1  0.69981433  0.99393967  0.21586267  1
  Sr  Sr2  1  0.67640700  0.98549300  0.02037500  1
  Sr  Sr3  1  0.01450700  0.69091400  0.02037500  1
  Sr  Sr4  1  0.37254133  0.03314767  0.11747067  1
  Sr  Sr5  1  0.96685233  0.33939367  0.11747067  1
  Sr  Sr6  1  0.64241933  0.65215967  0.18704167  1
  Sr  Sr7  1  0.67272700  0.63351900  0.04919600  1
  Sr  Sr8  1  0.29412533  0.30018567  0.21586267  1
  Sr  Sr9  1  0.33333333  0.66666667  0.27048467  1
  Sr  Sr10  1  0.31882633  0.34307367  0.14629167  1
  Sr  Sr11  1  0.99025967  0.34784033  0.31295833  1
  Sr  Sr12  1  0.00974033  0.35758067  0.18704167  1
  Sr  Sr13  1  0.33333333  0.66666667  0.06284867  1
  Sr  Sr14  1  0.00606033  0.70587467  0.21586267  1
  Sr  Sr15  1  0.00000000  0.00000000  0.25000000  1
  Sr  Sr16  1  0.30908600  0.32359300  0.02037500  1
  Sr  Sr17  1  0.65215967  0.64241933  0.31295833  1
  Sr  Sr18  1  0.66060633  0.62745867  0.11747067  1
  Sr  Sr19  1  0.36648100  0.03920800  0.04919600  1
  Sr  Sr20  1  0.65692633  0.97575267  0.14629167  1
  Sr  Sr21  1  0.30018567  0.29412533  0.28413733  1
  Sr  Sr22  1  0.02424733  0.68117367  0.14629167  1
  Sr  Sr23  1  0.70587467  0.00606033  0.28413733  1
  Sr  Sr24  1  0.00000000  0.00000000  0.10381800  1
  Sr  Sr25  1  0.34784033  0.99025967  0.18704167  1
  Sr  Sr26  1  0.99393967  0.69981433  0.28413733  1
  Sr  Sr27  1  0.66666667  0.33333333  0.08333333  1
  Sr  Sr28  1  0.66666667  0.33333333  0.22951533  1
  Sr  Sr29  1  0.96079200  0.32727300  0.04919600  1
  Sr  Sr30  1  0.02424733  0.34307367  0.64629167  1
  Sr  Sr31  1  0.36648100  0.32727300  0.54919600  1
  Sr  Sr32  1  0.34307367  0.31882633  0.35370833  1
  Sr  Sr33  1  0.68117367  0.02424733  0.35370833  1
  Sr  Sr34  1  0.03920800  0.36648100  0.45080400  1
  Sr  Sr35  1  0.63351900  0.67272700  0.45080400  1
  Sr  Sr36  1  0.30908600  0.98549300  0.52037500  1
  Sr  Sr37  1  0.33939367  0.96685233  0.38252933  1
  Sr  Sr38  1  0.96079200  0.63351900  0.54919600  1
  Sr  Sr39  1  0.00000000  0.00000000  0.60381800  1
  Sr  Sr40  1  0.98549300  0.67640700  0.47962500  1
  Sr  Sr41  1  0.65692633  0.68117367  0.64629167  1
  Sr  Sr42  1  0.67640700  0.69091400  0.52037500  1
  Sr  Sr43  1  0.00000000  0.00000000  0.39618200  1
  Sr  Sr44  1  0.67272700  0.03920800  0.54919600  1
  Sr  Sr45  1  0.66666667  0.33333333  0.58333333  1
  Sr  Sr46  1  0.97575267  0.65692633  0.35370833  1
  Sr  Sr47  1  0.31882633  0.97575267  0.64629167  1
  Sr  Sr48  1  0.32727300  0.96079200  0.45080400  1
  Sr  Sr49  1  0.03314767  0.37254133  0.38252933  1
  Sr  Sr50  1  0.32359300  0.30908600  0.47962500  1
  Sr  Sr51  1  0.96685233  0.62745867  0.61747067  1
  Sr  Sr52  1  0.69091400  0.01450700  0.47962500  1
  Sr  Sr53  1  0.37254133  0.33939367  0.61747067  1
  Sr  Sr54  1  0.66666667  0.33333333  0.43715133  1
  Sr  Sr55  1  0.01450700  0.32359300  0.52037500  1
  Sr  Sr56  1  0.66060633  0.03314767  0.61747067  1
  Sr  Sr57  1  0.33333333  0.66666667  0.41666667  1
  Sr  Sr58  1  0.33333333  0.66666667  0.56284867  1
  Sr  Sr59  1  0.62745867  0.66060633  0.38252933  1
  Sr  Sr60  1  0.69091400  0.67640700  0.97962500  1
  Sr  Sr61  1  0.03314767  0.66060633  0.88252933  1
  Sr  Sr62  1  0.00974033  0.65215967  0.68704167  1
  Sr  Sr63  1  0.34784033  0.35758067  0.68704167  1
  Sr  Sr64  1  0.70587467  0.69981433  0.78413733  1
  Sr  Sr65  1  0.30018567  0.00606033  0.78413733  1
  Sr  Sr66  1  0.97575267  0.31882633  0.85370833  1
  Sr  Sr67  1  0.00606033  0.30018567  0.71586267  1
  Sr  Sr68  1  0.62745867  0.96685233  0.88252933  1
  Sr  Sr69  1  0.66666667  0.33333333  0.93715133  1
  Sr  Sr70  1  0.65215967  0.00974033  0.81295833  1
  Sr  Sr71  1  0.32359300  0.01450700  0.97962500  1
  Sr  Sr72  1  0.34307367  0.02424733  0.85370833  1
  Sr  Sr73  1  0.66666667  0.33333333  0.72951533  1
  Sr  Sr74  1  0.33939367  0.37254133  0.88252933  1
  Sr  Sr75  1  0.33333333  0.66666667  0.91666667  1
  Sr  Sr76  1  0.64241933  0.99025967  0.68704167  1
  Sr  Sr77  1  0.98549300  0.30908600  0.97962500  1
  Sr  Sr78  1  0.99393967  0.29412533  0.78413733  1
  Sr  Sr79  1  0.69981433  0.70587467  0.71586267  1
  Sr  Sr80  1  0.99025967  0.64241933  0.81295833  1
  Sr  Sr81  1  0.63351900  0.96079200  0.95080400  1
  Sr  Sr82  1  0.35758067  0.34784033  0.81295833  1
  Sr  Sr83  1  0.03920800  0.67272700  0.95080400  1
  Sr  Sr84  1  0.33333333  0.66666667  0.77048467  1
  Sr  Sr85  1  0.68117367  0.65692633  0.85370833  1
  Sr  Sr86  1  0.32727300  0.36648100  0.95080400  1
  Sr  Sr87  1  0.00000000  0.00000000  0.75000000  1
  Sr  Sr88  1  0.00000000  0.00000000  0.89618200  1
  Sr  Sr89  1  0.29412533  0.99393967  0.71586267  1
  Re  Re90  1  0.33333333  0.66666667  0.00493367  1
  Re  Re91  1  0.00000000  0.33211800  0.25000000  1
  Re  Re92  1  0.99878467  0.66545133  0.08333333  1
  Re  Re93  1  0.33333333  0.66666667  0.32839967  1
  Re  Re94  1  0.66666667  0.00121533  0.08333333  1
  Re  Re95  1  0.66666667  0.33333333  0.17160033  1
  Re  Re96  1  0.33211800  0.00000000  0.25000000  1
  Re  Re97  1  0.00000000  0.00000000  0.00000000  1
  Re  Re98  1  0.33333333  0.66666667  0.16666667  1
  Re  Re99  1  0.33454867  0.33333333  0.08333333  1
  Re  Re100  1  0.00000000  0.00000000  0.16173300  1
  Re  Re101  1  0.66788200  0.66788200  0.25000000  1
  Re  Re102  1  0.00000000  0.00000000  0.33826700  1
  Re  Re103  1  0.66666667  0.66545133  0.58333333  1
  Re  Re104  1  0.66545133  0.99878467  0.41666667  1
  Re  Re105  1  0.00000000  0.00000000  0.66173300  1
  Re  Re106  1  0.33333333  0.33454867  0.41666667  1
  Re  Re107  1  0.33333333  0.66666667  0.50493367  1
  Re  Re108  1  0.99878467  0.33333333  0.58333333  1
  Re  Re109  1  0.66666667  0.33333333  0.33333333  1
  Re  Re110  1  0.00000000  0.00000000  0.50000000  1
  Re  Re111  1  0.00121533  0.66666667  0.41666667  1
  Re  Re112  1  0.66666667  0.33333333  0.49506633  1
  Re  Re113  1  0.33454867  0.00121533  0.58333333  1
  Re  Re114  1  0.66666667  0.33333333  0.67160033  1
  Re  Re115  1  0.33333333  0.99878467  0.91666667  1
  Re  Re116  1  0.33211800  0.33211800  0.75000000  1
  Re  Re117  1  0.66666667  0.33333333  0.99506633  1
  Re  Re118  1  0.00000000  0.66788200  0.75000000  1
  Re  Re119  1  0.00000000  0.00000000  0.83826700  1
  Re  Re120  1  0.66545133  0.66666667  0.91666667  1
  Re  Re121  1  0.33333333  0.66666667  0.66666667  1
  Re  Re122  1  0.66666667  0.33333333  0.83333333  1
  Re  Re123  1  0.66788200  0.00000000  0.75000000  1
  Re  Re124  1  0.33333333  0.66666667  0.82839967  1
  Re  Re125  1  0.00121533  0.33454867  0.91666667  1
  O  O126  1  0.46983467  0.01827333  0.22710233  1
  O  O127  1  0.50721700  0.78462500  0.30779100  1
  O  O128  1  0.21454033  0.41223367  0.24939967  1
  O  O129  1  0.54193767  0.15566033  0.15460833  1
  O  O130  1  0.41223367  0.21454033  0.25060033  1
  O  O131  1  0.21510533  0.35160667  0.06043567  1
  O  O132  1  0.51087133  0.33596067  0.31472367  1
  O  O133  1  0.17491067  0.66403933  0.18527633  1
  O  O134  1  0.49278300  0.27740800  0.19220900  1
  O  O135  1  0.78462500  0.50721700  0.19220900  1
  O  O136  1  0.07890033  0.53102667  0.08393367  1
  O  O137  1  0.45129167  0.61074133  0.02554233  1
  O  O138  1  0.27740800  0.49278300  0.30779100  1
  O  O139  1  0.71961067  0.51100633  0.01205833  1
  O  O140  1  0.21537500  0.72259200  0.30779100  1
  O  O141  1  0.58776633  0.80230667  0.24939967  1
  O  O142  1  0.15944967  0.54870833  0.02554233  1
  O  O143  1  0.99917200  0.19700500  0.27509200  1
  O  O144  1  0.86367167  0.53116633  0.05824133  1
  O  O145  1  0.86436000  0.74556700  0.08273300  1
  O  O146  1  0.05294400  0.87527100  0.17872500  1
  O  O147  1  0.46966167  0.33416133  0.10842533  1
  O  O148  1  0.80230667  0.58776633  0.25060033  1
  O  O149  1  0.11822800  0.80316800  0.10623100  1
  O  O150  1  0.00082800  0.19783300  0.22490800  1
  O  O151  1  0.17767300  0.12472900  0.32127500  1
  O  O152  1  0.84157733  0.84420467  0.01860967  1
  O  O153  1  0.19769333  0.78545967  0.24939967  1
  O  O154  1  0.17753800  0.50824400  0.14805700  1
  O  O155  1  0.88204167  0.82611633  0.14112433  1
  O  O156  1  0.46883367  0.33250533  0.05824133  1
  O  O157  1  0.68494000  0.88177200  0.10623100  1
  O  O158  1  0.82232700  0.94705600  0.17872500  1
  O  O159  1  0.17388367  0.05592533  0.14112433  1
  O  O160  1  0.00262733  0.15842267  0.01860967  1
  O  O161  1  0.66583867  0.13550033  0.10842533  1
  O  O162  1  0.84433967  0.38627733  0.15460833  1
  O  O163  1  0.48912867  0.82508933  0.18527633  1
  O  O164  1  0.98172667  0.45156133  0.22710233  1
  O  O165  1  0.48899367  0.20860433  0.01205833  1
  O  O166  1  0.82508933  0.48912867  0.31472367  1
  O  O167  1  0.79139567  0.28038933  0.01205833  1
  O  O168  1  0.33596067  0.51087133  0.18527633  1
  O  O169  1  0.94705600  0.82232700  0.32127500  1
  O  O170  1  0.66749467  0.13632833  0.05824133  1
  O  O171  1  0.13650133  0.78489467  0.06043567  1
  O  O172  1  0.87527100  0.05294400  0.32127500  1
  O  O173  1  0.61372267  0.45806233  0.15460833  1
  O  O174  1  0.15579533  0.99737267  0.01860967  1
  O  O175  1  0.80299500  0.80216700  0.27509200  1
  O  O176  1  0.19700500  0.99917200  0.22490800  1
  O  O177  1  0.45212633  0.92109967  0.08393367  1
  O  O178  1  0.78545967  0.19769333  0.25060033  1
  O  O179  1  0.53016533  0.54843867  0.27289767  1
  O  O180  1  0.46897333  0.54787367  0.08393367  1
  O  O181  1  0.01827333  0.46983467  0.27289767  1
  O  O182  1  0.19783300  0.00082800  0.27509200  1
  O  O183  1  0.88120700  0.13564000  0.08273300  1
  O  O184  1  0.80216700  0.80299500  0.22490800  1
  O  O185  1  0.72259200  0.21537500  0.19220900  1
  O  O186  1  0.45156133  0.98172667  0.27289767  1
  O  O187  1  0.94407467  0.11795833  0.14112433  1
  O  O188  1  0.86449967  0.53033833  0.10842533  1
  O  O189  1  0.64839333  0.86349867  0.06043567  1
  O  O190  1  0.33070600  0.82246200  0.14805700  1
  O  O191  1  0.54843867  0.53016533  0.22710233  1
  O  O192  1  0.66403933  0.17491067  0.31472367  1
  O  O193  1  0.19683200  0.31506000  0.10623100  1
  O  O194  1  0.12472900  0.17767300  0.17872500  1
  O  O195  1  0.25443300  0.11879300  0.08273300  1
  O  O196  1  0.38925867  0.84055033  0.02554233  1
  O  O197  1  0.49175600  0.66929400  0.14805700  1
  O  O198  1  0.13650133  0.35160667  0.56043567  1
  O  O199  1  0.17388367  0.11795833  0.64112433  1
  O  O200  1  0.88120700  0.74556700  0.58273300  1
  O  O201  1  0.20860433  0.48899367  0.48794167  1
  O  O202  1  0.07890033  0.54787367  0.58393367  1
  O  O203  1  0.88177200  0.68494000  0.39376900  1
  O  O204  1  0.17753800  0.66929400  0.64805700  1
  O  O205  1  0.84157733  0.99737267  0.51860967  1
  O  O206  1  0.15944967  0.61074133  0.52554233  1
  O  O207  1  0.45129167  0.84055033  0.52554233  1
  O  O208  1  0.74556700  0.86436000  0.41726700  1
  O  O209  1  0.11795833  0.94407467  0.35887567  1
  O  O210  1  0.94407467  0.82611633  0.64112433  1
  O  O211  1  0.38627733  0.84433967  0.34539167  1
  O  O212  1  0.88204167  0.05592533  0.64112433  1
  O  O213  1  0.25443300  0.13564000  0.58273300  1
  O  O214  1  0.82611633  0.88204167  0.35887567  1
  O  O215  1  0.66583867  0.53033833  0.60842533  1
  O  O216  1  0.53033833  0.86449967  0.39157467  1
  O  O217  1  0.53102667  0.07890033  0.41606633  1
  O  O218  1  0.71961067  0.20860433  0.51205833  1
  O  O219  1  0.13632833  0.66749467  0.44175867  1
  O  O220  1  0.46897333  0.92109967  0.58393367  1
  O  O221  1  0.78489467  0.13650133  0.43956433  1
  O  O222  1  0.66749467  0.53116633  0.55824133  1
  O  O223  1  0.84433967  0.45806233  0.65460833  1
  O  O224  1  0.50824400  0.17753800  0.35194300  1
  O  O225  1  0.86436000  0.11879300  0.58273300  1
  O  O226  1  0.84420467  0.84157733  0.48139033  1
  O  O227  1  0.54870833  0.15944967  0.47445767  1
  O  O228  1  0.13550033  0.66583867  0.39157467  1
  O  O229  1  0.35160667  0.21510533  0.43956433  1
  O  O230  1  0.48899367  0.28038933  0.51205833  1
  O  O231  1  0.84055033  0.38925867  0.47445767  1
  O  O232  1  0.66929400  0.49175600  0.35194300  1
  O  O233  1  0.33250533  0.46883367  0.44175867  1
  O  O234  1  0.51100633  0.71961067  0.48794167  1
  O  O235  1  0.15579533  0.15842267  0.51860967  1
  O  O236  1  0.64839333  0.78489467  0.56043567  1
  O  O237  1  0.15566033  0.54193767  0.34539167  1
  O  O238  1  0.49175600  0.82246200  0.64805700  1
  O  O239  1  0.45806233  0.61372267  0.34539167  1
  O  O240  1  0.00262733  0.84420467  0.51860967  1
  O  O241  1  0.61372267  0.15566033  0.65460833  1
  O  O242  1  0.33416133  0.46966167  0.39157467  1
  O  O243  1  0.80316800  0.11822800  0.39376900  1
  O  O244  1  0.54193767  0.38627733  0.65460833  1
  O  O245  1  0.28038933  0.79139567  0.48794167  1
  O  O246  1  0.82246200  0.33070600  0.35194300  1
  O  O247  1  0.46966167  0.13550033  0.60842533  1
  O  O248  1  0.86367167  0.33250533  0.55824133  1
  O  O249  1  0.11879300  0.25443300  0.41726700  1
  O  O250  1  0.45212633  0.53102667  0.58393367  1
  O  O251  1  0.19683200  0.88177200  0.60623100  1
  O  O252  1  0.13564000  0.88120700  0.41726700  1
  O  O253  1  0.68494000  0.80316800  0.60623100  1
  O  O254  1  0.86449967  0.33416133  0.60842533  1
  O  O255  1  0.54787367  0.46897333  0.41606633  1
  O  O256  1  0.46883367  0.13632833  0.55824133  1
  O  O257  1  0.38925867  0.54870833  0.52554233  1
  O  O258  1  0.11822800  0.31506000  0.60623100  1
  O  O259  1  0.61074133  0.45129167  0.47445767  1
  O  O260  1  0.53116633  0.86367167  0.44175867  1
  O  O261  1  0.31506000  0.19683200  0.39376900  1
  O  O262  1  0.99737267  0.15579533  0.48139033  1
  O  O263  1  0.21510533  0.86349867  0.56043567  1
  O  O264  1  0.33070600  0.50824400  0.64805700  1
  O  O265  1  0.86349867  0.64839333  0.43956433  1
  O  O266  1  0.79139567  0.51100633  0.51205833  1
  O  O267  1  0.92109967  0.45212633  0.41606633  1
  O  O268  1  0.05592533  0.17388367  0.35887567  1
  O  O269  1  0.15842267  0.00262733  0.48139033  1
  O  O270  1  0.80316800  0.68494000  0.89376900  1
  O  O271  1  0.84055033  0.45129167  0.97445767  1
  O  O272  1  0.54787367  0.07890033  0.91606633  1
  O  O273  1  0.87527100  0.82232700  0.82127500  1
  O  O274  1  0.74556700  0.88120700  0.91726700  1
  O  O275  1  0.54843867  0.01827333  0.72710233  1
  O  O276  1  0.84420467  0.00262733  0.98139033  1
  O  O277  1  0.50824400  0.33070600  0.85194300  1
  O  O278  1  0.82611633  0.94407467  0.85887567  1
  O  O279  1  0.11795833  0.17388367  0.85887567  1
  O  O280  1  0.41223367  0.19769333  0.75060033  1
  O  O281  1  0.78462500  0.27740800  0.69220900  1
  O  O282  1  0.61074133  0.15944967  0.97445767  1
  O  O283  1  0.05294400  0.17767300  0.67872500  1
  O  O284  1  0.54870833  0.38925867  0.97445767  1
  O  O285  1  0.92109967  0.46897333  0.91606633  1
  O  O286  1  0.49278300  0.21537500  0.69220900  1
  O  O287  1  0.33250533  0.86367167  0.94175867  1
  O  O288  1  0.19700500  0.19783300  0.72490800  1
  O  O289  1  0.19769333  0.41223367  0.74939967  1
  O  O290  1  0.38627733  0.54193767  0.84539167  1
  O  O291  1  0.80299500  0.00082800  0.77509200  1
  O  O292  1  0.13564000  0.25443300  0.91726700  1
  O  O293  1  0.45156133  0.46983467  0.77289767  1
  O  O294  1  0.33416133  0.86449967  0.89157467  1
  O  O295  1  0.51100633  0.79139567  0.98794167  1
  O  O296  1  0.17491067  0.51087133  0.68527633  1
  O  O297  1  0.53102667  0.45212633  0.91606633  1
  O  O298  1  0.51087133  0.17491067  0.81472367  1
  O  O299  1  0.21537500  0.49278300  0.80779100  1
  O  O300  1  0.80216700  0.99917200  0.72490800  1
  O  O301  1  0.01827333  0.54843867  0.77289767  1
  O  O302  1  0.15566033  0.61372267  0.84539167  1
  O  O303  1  0.50721700  0.72259200  0.80779100  1
  O  O304  1  0.33596067  0.82508933  0.68527633  1
  O  O305  1  0.99917200  0.80216700  0.77509200  1
  O  O306  1  0.17767300  0.05294400  0.82127500  1
  O  O307  1  0.82246200  0.49175600  0.85194300  1
  O  O308  1  0.31506000  0.11822800  0.89376900  1
  O  O309  1  0.82232700  0.87527100  0.67872500  1
  O  O310  1  0.15842267  0.15579533  0.98139033  1
  O  O311  1  0.12472900  0.94705600  0.67872500  1
  O  O312  1  0.66929400  0.17753800  0.85194300  1
  O  O313  1  0.28038933  0.48899367  0.98794167  1
  O  O314  1  0.00082800  0.80299500  0.72490800  1
  O  O315  1  0.46983467  0.45156133  0.72710233  1
  O  O316  1  0.20860433  0.71961067  0.98794167  1
  O  O317  1  0.94705600  0.12472900  0.82127500  1
  O  O318  1  0.48912867  0.66403933  0.68527633  1
  O  O319  1  0.13632833  0.46883367  0.94175867  1
  O  O320  1  0.53033833  0.66583867  0.89157467  1
  O  O321  1  0.78545967  0.58776633  0.75060033  1
  O  O322  1  0.11879300  0.86436000  0.91726700  1
  O  O323  1  0.86349867  0.21510533  0.93956433  1
  O  O324  1  0.80230667  0.21454033  0.75060033  1
  O  O325  1  0.35160667  0.13650133  0.93956433  1
  O  O326  1  0.53116633  0.66749467  0.94175867  1
  O  O327  1  0.21454033  0.80230667  0.74939967  1
  O  O328  1  0.13550033  0.46966167  0.89157467  1
  O  O329  1  0.05592533  0.88204167  0.85887567  1
  O  O330  1  0.78489467  0.64839333  0.93956433  1
  O  O331  1  0.27740800  0.78462500  0.80779100  1
  O  O332  1  0.19783300  0.19700500  0.77509200  1
  O  O333  1  0.98172667  0.53016533  0.72710233  1
  O  O334  1  0.66403933  0.48912867  0.81472367  1
  O  O335  1  0.88177200  0.19683200  0.89376900  1
  O  O336  1  0.99737267  0.84157733  0.98139033  1
  O  O337  1  0.53016533  0.98172667  0.77289767  1
  O  O338  1  0.45806233  0.84433967  0.84539167  1
  O  O339  1  0.58776633  0.78545967  0.74939967  1
  O  O340  1  0.72259200  0.50721700  0.69220900  1
  O  O341  1  0.82508933  0.33596067  0.81472367  1
