# generated using pymatgen
data_Rb2Hg2PdCl8
_symmetry_space_group_name_H-M   'P 1'
_cell_length_a   11.76423800
_cell_length_b   7.05289400
_cell_length_c   10.28368456
_cell_angle_alpha   90.00000000
_cell_angle_beta   109.02542714
_cell_angle_gamma   90.00000000
_symmetry_Int_Tables_number   1
_chemical_formula_structural   Rb2Hg2PdCl8
_chemical_formula_sum   'Rb4 Hg4 Pd2 Cl16'
_cell_volume   806.64706731
_cell_formula_units_Z   2
loop_
 _symmetry_equiv_pos_site_id
 _symmetry_equiv_pos_as_xyz
  1  'x, y, z'
loop_
 _atom_site_type_symbol
 _atom_site_label
 _atom_site_symmetry_multiplicity
 _atom_site_fract_x
 _atom_site_fract_y
 _atom_site_fract_z
 _atom_site_occupancy
  Rb  Rb0  1  0.39097500  0.00000000  0.16308100  1
  Rb  Rb1  1  0.60902500  0.00000000  0.83691900  1
  Rb  Rb2  1  0.89097500  0.50000000  0.16308100  1
  Rb  Rb3  1  0.10902500  0.50000000  0.83691900  1
  Hg  Hg4  1  0.86758600  0.00000000  0.60548300  1
  Hg  Hg5  1  0.13241400  0.00000000  0.39451700  1
  Hg  Hg6  1  0.36758600  0.50000000  0.60548300  1
  Hg  Hg7  1  0.63241400  0.50000000  0.39451700  1
  Pd  Pd8  1  0.00000000  0.00000000  0.00000000  1
  Pd  Pd9  1  0.50000000  0.50000000  0.00000000  1
  Cl  Cl10  1  0.07918100  0.00000000  0.68778100  1
  Cl  Cl11  1  0.37338250  0.73252550  0.86723400  1
  Cl  Cl12  1  0.65731400  0.00000000  0.50413900  1
  Cl  Cl13  1  0.62661750  0.73252550  0.13276600  1
  Cl  Cl14  1  0.34268600  0.00000000  0.49586100  1
  Cl  Cl15  1  0.37338250  0.26747450  0.86723400  1
  Cl  Cl16  1  0.62661750  0.26747450  0.13276600  1
  Cl  Cl17  1  0.92081900  0.00000000  0.31221900  1
  Cl  Cl18  1  0.57918100  0.50000000  0.68778100  1
  Cl  Cl19  1  0.87338250  0.23252550  0.86723400  1
  Cl  Cl20  1  0.15731400  0.50000000  0.50413900  1
  Cl  Cl21  1  0.12661750  0.23252550  0.13276600  1
  Cl  Cl22  1  0.84268600  0.50000000  0.49586100  1
  Cl  Cl23  1  0.87338250  0.76747450  0.86723400  1
  Cl  Cl24  1  0.12661750  0.76747450  0.13276600  1
  Cl  Cl25  1  0.42081900  0.50000000  0.31221900  1
