# generated using pymatgen
data_Ba9Sc2(SiO4)6
_symmetry_space_group_name_H-M   'P 1'
_cell_length_a   9.99980840
_cell_length_b   9.99980840
_cell_length_c   22.23471856
_cell_angle_alpha   90.00000000
_cell_angle_beta   90.00000000
_cell_angle_gamma   120.00000000
_symmetry_Int_Tables_number   1
_chemical_formula_structural   Ba9Sc2(SiO4)6
_chemical_formula_sum   'Ba27 Sc6 Si18 O72'
_cell_volume   1925.50932510
_cell_formula_units_Z   3
loop_
 _symmetry_equiv_pos_site_id
 _symmetry_equiv_pos_as_xyz
  1  'x, y, z'
loop_
 _atom_site_type_symbol
 _atom_site_label
 _atom_site_symmetry_multiplicity
 _atom_site_fract_x
 _atom_site_fract_y
 _atom_site_fract_z
 _atom_site_occupancy
  Ba  Ba0  1  0.33798333  0.97718667  0.22474367  1
  Ba  Ba1  1  0.33333333  0.66666667  0.33005067  1
  Ba  Ba2  1  0.64385333  0.97253667  0.10858967  1
  Ba  Ba3  1  0.63920333  0.66201667  0.22474367  1
  Ba  Ba4  1  0.00000000  0.00000000  0.00000000  1
  Ba  Ba5  1  0.02746333  0.67131667  0.10858967  1
  Ba  Ba6  1  0.32868333  0.35614667  0.10858967  1
  Ba  Ba7  1  0.33333333  0.66666667  0.00328267  1
  Ba  Ba8  1  0.02281333  0.36079667  0.22474367  1
  Ba  Ba9  1  0.00465000  0.31052000  0.55807700  1
  Ba  Ba10  1  0.00000000  0.00000000  0.66338400  1
  Ba  Ba11  1  0.31052000  0.30587000  0.44192300  1
  Ba  Ba12  1  0.30587000  0.99535000  0.55807700  1
  Ba  Ba13  1  0.66666667  0.33333333  0.33333333  1
  Ba  Ba14  1  0.69413000  0.00465000  0.44192300  1
  Ba  Ba15  1  0.99535000  0.68948000  0.44192300  1
  Ba  Ba16  1  0.00000000  0.00000000  0.33661600  1
  Ba  Ba17  1  0.68948000  0.69413000  0.55807700  1
  Ba  Ba18  1  0.67131667  0.64385333  0.89141033  1
  Ba  Ba19  1  0.66666667  0.33333333  0.99671733  1
  Ba  Ba20  1  0.97718667  0.63920333  0.77525633  1
  Ba  Ba21  1  0.97253667  0.32868333  0.89141033  1
  Ba  Ba22  1  0.33333333  0.66666667  0.66666667  1
  Ba  Ba23  1  0.36079667  0.33798333  0.77525633  1
  Ba  Ba24  1  0.66201667  0.02281333  0.77525633  1
  Ba  Ba25  1  0.66666667  0.33333333  0.66994933  1
  Ba  Ba26  1  0.35614667  0.02746333  0.89141033  1
  Sc  Sc27  1  0.33333333  0.66666667  0.50182767  1
  Sc  Sc28  1  0.33333333  0.66666667  0.83150567  1
  Sc  Sc29  1  0.00000000  0.00000000  0.83516100  1
  Sc  Sc30  1  0.00000000  0.00000000  0.16483900  1
  Sc  Sc31  1  0.66666667  0.33333333  0.16849433  1
  Sc  Sc32  1  0.66666667  0.33333333  0.49817233  1
  Si  Si33  1  0.33884067  0.02606033  0.07638233  1
  Si  Si34  1  0.97393967  0.31278033  0.07638233  1
  Si  Si35  1  0.68721967  0.66115933  0.07638233  1
  Si  Si36  1  0.69272700  0.02055300  0.25695100  1
  Si  Si37  1  0.97944700  0.67217400  0.25695100  1
  Si  Si38  1  0.32782600  0.30727300  0.25695100  1
  Si  Si39  1  0.00550733  0.35939367  0.40971567  1
  Si  Si40  1  0.64060633  0.64611367  0.40971567  1
  Si  Si41  1  0.35388633  0.99449267  0.40971567  1
  Si  Si42  1  0.35939367  0.35388633  0.59028433  1
  Si  Si43  1  0.64611367  0.00550733  0.59028433  1
  Si  Si44  1  0.99449267  0.64060633  0.59028433  1
  Si  Si45  1  0.67217400  0.69272700  0.74304900  1
  Si  Si46  1  0.30727300  0.97944700  0.74304900  1
  Si  Si47  1  0.02055300  0.32782600  0.74304900  1
  Si  Si48  1  0.02606033  0.68721967  0.92361767  1
  Si  Si49  1  0.31278033  0.33884067  0.92361767  1
  Si  Si50  1  0.66115933  0.97393967  0.92361767  1
  O  O51  1  0.02422900  0.41047200  0.33980600  1
  O  O52  1  0.67690233  0.16659867  0.22747567  1
  O  O53  1  0.98976433  0.16673467  0.10585767  1
  O  O54  1  0.58952800  0.61375700  0.33980600  1
  O  O55  1  0.53261200  0.86105100  0.24032800  1
  O  O56  1  0.13894900  0.67156100  0.24032800  1
  O  O57  1  0.48969633  0.32309767  0.22747567  1
  O  O58  1  0.83340133  0.51030367  0.22747567  1
  O  O59  1  0.64243767  0.92286133  0.99352733  1
  O  O60  1  0.16553800  0.67590100  0.88545300  1
  O  O61  1  0.50112867  0.65743233  0.44788033  1
  O  O62  1  0.32843900  0.46738800  0.24032800  1
  O  O63  1  0.51036300  0.83446200  0.88545300  1
  O  O64  1  0.28042367  0.35756233  0.99352733  1
  O  O65  1  0.34256767  0.84369633  0.44788033  1
  O  O66  1  0.52771767  0.66177233  0.09300533  1
  O  O67  1  0.07713867  0.71957633  0.99352733  1
  O  O68  1  0.33822767  0.86594533  0.09300533  1
  O  O69  1  0.15630367  0.49887133  0.44788033  1
  O  O70  1  0.83326533  0.82302967  0.10585767  1
  O  O71  1  0.38624300  0.97577100  0.33980600  1
  O  O72  1  0.13405467  0.47228233  0.09300533  1
  O  O73  1  0.17697033  0.01023567  0.10585767  1
  O  O74  1  0.32409900  0.48963700  0.88545300  1
  O  O75  1  0.69089567  0.74380533  0.67313933  1
  O  O76  1  0.34356900  0.49993200  0.56080900  1
  O  O77  1  0.65643100  0.50006800  0.43919100  1
  O  O78  1  0.25619467  0.94709033  0.67313933  1
  O  O79  1  0.19927867  0.19438433  0.57366133  1
  O  O80  1  0.80561567  0.00489433  0.57366133  1
  O  O81  1  0.15636300  0.65643100  0.56080900  1
  O  O82  1  0.50006800  0.84363700  0.56080900  1
  O  O83  1  0.30910433  0.25619467  0.32686067  1
  O  O84  1  0.83220467  0.00923433  0.21878633  1
  O  O85  1  0.16779533  0.99076567  0.78121367  1
  O  O86  1  0.99510567  0.80072133  0.57366133  1
  O  O87  1  0.17702967  0.16779533  0.21878633  1
  O  O88  1  0.94709033  0.69089567  0.32686067  1
  O  O89  1  0.00923433  0.17702967  0.78121367  1
  O  O90  1  0.19438433  0.99510567  0.42633867  1
  O  O91  1  0.74380533  0.05290967  0.32686067  1
  O  O92  1  0.00489433  0.19927867  0.42633867  1
  O  O93  1  0.82297033  0.83220467  0.78121367  1
  O  O94  1  0.49993200  0.15636300  0.43919100  1
  O  O95  1  0.05290967  0.30910433  0.67313933  1
  O  O96  1  0.80072133  0.80561567  0.42633867  1
  O  O97  1  0.84363700  0.34356900  0.43919100  1
  O  O98  1  0.99076567  0.82297033  0.21878633  1
  O  O99  1  0.35756233  0.07713867  0.00647267  1
  O  O100  1  0.01023567  0.83326533  0.89414233  1
  O  O101  1  0.32309767  0.83340133  0.77252433  1
  O  O102  1  0.92286133  0.28042367  0.00647267  1
  O  O103  1  0.86594533  0.52771767  0.90699467  1
  O  O104  1  0.47228233  0.33822767  0.90699467  1
  O  O105  1  0.82302967  0.98976433  0.89414233  1
  O  O106  1  0.16673467  0.17697033  0.89414233  1
  O  O107  1  0.97577100  0.58952800  0.66019400  1
  O  O108  1  0.49887133  0.34256767  0.55211967  1
  O  O109  1  0.83446200  0.32409900  0.11454700  1
  O  O110  1  0.66177233  0.13405467  0.90699467  1
  O  O111  1  0.84369633  0.50112867  0.55211967  1
  O  O112  1  0.61375700  0.02422900  0.66019400  1
  O  O113  1  0.67590100  0.51036300  0.11454700  1
  O  O114  1  0.86105100  0.32843900  0.75967200  1
  O  O115  1  0.41047200  0.38624300  0.66019400  1
  O  O116  1  0.67156100  0.53261200  0.75967200  1
  O  O117  1  0.48963700  0.16553800  0.11454700  1
  O  O118  1  0.16659867  0.48969633  0.77252433  1
  O  O119  1  0.71957633  0.64243767  0.00647267  1
  O  O120  1  0.46738800  0.13894900  0.75967200  1
  O  O121  1  0.51030367  0.67690233  0.77252433  1
  O  O122  1  0.65743233  0.15630367  0.55211967  1
