# generated using pymatgen
data_Cu3P4(SI)3
_symmetry_space_group_name_H-M   'P 1'
_cell_length_a   7.14029900
_cell_length_b   10.13782300
_cell_length_c   19.47175300
_cell_angle_alpha   90.00000000
_cell_angle_beta   90.00000000
_cell_angle_gamma   90.00000000
_symmetry_Int_Tables_number   1
_chemical_formula_structural   Cu3P4(SI)3
_chemical_formula_sum   'Cu12 P16 S12 I12'
_cell_volume   1409.50348681
_cell_formula_units_Z   4
loop_
 _symmetry_equiv_pos_site_id
 _symmetry_equiv_pos_as_xyz
  1  'x, y, z'
loop_
 _atom_site_type_symbol
 _atom_site_label
 _atom_site_symmetry_multiplicity
 _atom_site_fract_x
 _atom_site_fract_y
 _atom_site_fract_z
 _atom_site_occupancy
  Cu  Cu0  1  0.45756900  0.51719100  0.31718800  1
  Cu  Cu1  1  0.54243100  0.48280900  0.68281200  1
  Cu  Cu2  1  0.46113100  0.25000000  0.13151700  1
  Cu  Cu3  1  0.54243100  0.01719100  0.68281200  1
  Cu  Cu4  1  0.04243100  0.51719100  0.81718800  1
  Cu  Cu5  1  0.45756900  0.98280900  0.31718800  1
  Cu  Cu6  1  0.53886900  0.75000000  0.86848300  1
  Cu  Cu7  1  0.96113100  0.75000000  0.36848300  1
  Cu  Cu8  1  0.95756900  0.48280900  0.18281200  1
  Cu  Cu9  1  0.04243100  0.98280900  0.81718800  1
  Cu  Cu10  1  0.03886900  0.25000000  0.63151700  1
  Cu  Cu11  1  0.95756900  0.01719100  0.18281200  1
  P  P12  1  0.41987800  0.25000000  0.85452200  1
  P  P13  1  0.16163800  0.36309300  0.88655600  1
  P  P14  1  0.66163800  0.86309300  0.61344400  1
  P  P15  1  0.16163800  0.13690700  0.88655600  1
  P  P16  1  0.08012200  0.25000000  0.35452200  1
  P  P17  1  0.33836200  0.13690700  0.38655600  1
  P  P18  1  0.37383900  0.25000000  0.02231700  1
  P  P19  1  0.12616100  0.25000000  0.52231700  1
  P  P20  1  0.91987800  0.75000000  0.64547800  1
  P  P21  1  0.87383900  0.75000000  0.47768300  1
  P  P22  1  0.58012200  0.75000000  0.14547800  1
  P  P23  1  0.83836200  0.86309300  0.11344400  1
  P  P24  1  0.83836200  0.63690700  0.11344400  1
  P  P25  1  0.66163800  0.63690700  0.61344400  1
  P  P26  1  0.33836200  0.36309300  0.38655600  1
  P  P27  1  0.62616100  0.75000000  0.97768300  1
  S  S28  1  0.70602000  0.91081300  0.50981300  1
  S  S29  1  0.79398000  0.91081300  0.00981300  1
  S  S30  1  0.29398000  0.08918700  0.49018700  1
  S  S31  1  0.91846800  0.25000000  0.44438100  1
  S  S32  1  0.70602000  0.58918700  0.50981300  1
  S  S33  1  0.20602000  0.08918700  0.99018700  1
  S  S34  1  0.20602000  0.41081300  0.99018700  1
  S  S35  1  0.58153200  0.25000000  0.94438100  1
  S  S36  1  0.79398000  0.58918700  0.00981300  1
  S  S37  1  0.29398000  0.41081300  0.49018700  1
  S  S38  1  0.41846800  0.75000000  0.05561900  1
  S  S39  1  0.08153200  0.75000000  0.55561900  1
  I  I40  1  0.82785100  0.25000000  0.14145300  1
  I  I41  1  0.67214900  0.25000000  0.64145300  1
  I  I42  1  0.82386500  0.96211900  0.30708900  1
  I  I43  1  0.17214900  0.75000000  0.85854700  1
  I  I44  1  0.17613500  0.03788100  0.69291100  1
  I  I45  1  0.32386500  0.03788100  0.19291100  1
  I  I46  1  0.17613500  0.46211900  0.69291100  1
  I  I47  1  0.32785100  0.75000000  0.35854700  1
  I  I48  1  0.82386500  0.53788100  0.30708900  1
  I  I49  1  0.67613500  0.96211900  0.80708900  1
  I  I50  1  0.67613500  0.53788100  0.80708900  1
  I  I51  1  0.32386500  0.46211900  0.19291100  1
