# generated using pymatgen
data_Pt(OF3)2
_symmetry_space_group_name_H-M   'P 1'
_cell_length_a   10.15721600
_cell_length_b   10.15721600
_cell_length_c   10.15721600
_cell_angle_alpha   90.00000000
_cell_angle_beta   90.00000000
_cell_angle_gamma   90.00000000
_symmetry_Int_Tables_number   1
_chemical_formula_structural   Pt(OF3)2
_chemical_formula_sum   'Pt8 O16 F48'
_cell_volume   1047.91019201
_cell_formula_units_Z   8
loop_
 _symmetry_equiv_pos_site_id
 _symmetry_equiv_pos_as_xyz
  1  'x, y, z'
loop_
 _atom_site_type_symbol
 _atom_site_label
 _atom_site_symmetry_multiplicity
 _atom_site_fract_x
 _atom_site_fract_y
 _atom_site_fract_z
 _atom_site_occupancy
  Pt  Pt0  1  0.00000000  0.00000000  0.00000000  1
  Pt  Pt1  1  0.00000000  0.00000000  0.50000000  1
  Pt  Pt2  1  0.50000000  0.00000000  0.00000000  1
  Pt  Pt3  1  0.00000000  0.50000000  0.00000000  1
  Pt  Pt4  1  0.50000000  0.50000000  0.50000000  1
  Pt  Pt5  1  0.50000000  0.50000000  0.00000000  1
  Pt  Pt6  1  0.00000000  0.50000000  0.50000000  1
  Pt  Pt7  1  0.50000000  0.00000000  0.50000000  1
  O  O8  1  0.28343050  0.28343050  0.28343050  1
  O  O9  1  0.78343050  0.21656950  0.71656950  1
  O  O10  1  0.71656950  0.78343050  0.21656950  1
  O  O11  1  0.21656950  0.71656950  0.78343050  1
  O  O12  1  0.21656950  0.21656950  0.21656950  1
  O  O13  1  0.21656950  0.78343050  0.28343050  1
  O  O14  1  0.28343050  0.21656950  0.78343050  1
  O  O15  1  0.78343050  0.28343050  0.21656950  1
  O  O16  1  0.78343050  0.78343050  0.78343050  1
  O  O17  1  0.28343050  0.71656950  0.21656950  1
  O  O18  1  0.21656950  0.28343050  0.71656950  1
  O  O19  1  0.71656950  0.21656950  0.28343050  1
  O  O20  1  0.71656950  0.71656950  0.71656950  1
  O  O21  1  0.71656950  0.28343050  0.78343050  1
  O  O22  1  0.78343050  0.71656950  0.28343050  1
  O  O23  1  0.28343050  0.78343050  0.71656950  1
  F  F24  1  0.10643250  0.14461750  0.94071650  1
  F  F25  1  0.14461750  0.05928350  0.39356750  1
  F  F26  1  0.05928350  0.60643250  0.35538250  1
  F  F27  1  0.85538250  0.44071650  0.39356750  1
  F  F28  1  0.05928350  0.39356750  0.14461750  1
  F  F29  1  0.35538250  0.05928350  0.60643250  1
  F  F30  1  0.44071650  0.39356750  0.85538250  1
  F  F31  1  0.94071650  0.10643250  0.14461750  1
  F  F32  1  0.14461750  0.94071650  0.10643250  1
  F  F33  1  0.39356750  0.14461750  0.05928350  1
  F  F34  1  0.60643250  0.35538250  0.05928350  1
  F  F35  1  0.39356750  0.85538250  0.44071650  1
  F  F36  1  0.39356750  0.35538250  0.55928350  1
  F  F37  1  0.35538250  0.44071650  0.10643250  1
  F  F38  1  0.44071650  0.89356750  0.14461750  1
  F  F39  1  0.64461750  0.05928350  0.10643250  1
  F  F40  1  0.44071650  0.10643250  0.35538250  1
  F  F41  1  0.14461750  0.44071650  0.89356750  1
  F  F42  1  0.05928350  0.10643250  0.64461750  1
  F  F43  1  0.55928350  0.39356750  0.35538250  1
  F  F44  1  0.35538250  0.55928350  0.39356750  1
  F  F45  1  0.10643250  0.35538250  0.44071650  1
  F  F46  1  0.89356750  0.14461750  0.44071650  1
  F  F47  1  0.10643250  0.64461750  0.05928350  1
  F  F48  1  0.60643250  0.64461750  0.44071650  1
  F  F49  1  0.64461750  0.55928350  0.89356750  1
  F  F50  1  0.55928350  0.10643250  0.85538250  1
  F  F51  1  0.35538250  0.94071650  0.89356750  1
  F  F52  1  0.55928350  0.89356750  0.64461750  1
  F  F53  1  0.85538250  0.55928350  0.10643250  1
  F  F54  1  0.94071650  0.89356750  0.35538250  1
  F  F55  1  0.44071650  0.60643250  0.64461750  1
  F  F56  1  0.64461750  0.44071650  0.60643250  1
  F  F57  1  0.89356750  0.64461750  0.55928350  1
  F  F58  1  0.10643250  0.85538250  0.55928350  1
  F  F59  1  0.89356750  0.35538250  0.94071650  1
  F  F60  1  0.89356750  0.85538250  0.05928350  1
  F  F61  1  0.85538250  0.94071650  0.60643250  1
  F  F62  1  0.94071650  0.39356750  0.64461750  1
  F  F63  1  0.14461750  0.55928350  0.60643250  1
  F  F64  1  0.94071650  0.60643250  0.85538250  1
  F  F65  1  0.64461750  0.94071650  0.39356750  1
  F  F66  1  0.55928350  0.60643250  0.14461750  1
  F  F67  1  0.05928350  0.89356750  0.85538250  1
  F  F68  1  0.85538250  0.05928350  0.89356750  1
  F  F69  1  0.60643250  0.85538250  0.94071650  1
  F  F70  1  0.39356750  0.64461750  0.94071650  1
  F  F71  1  0.60643250  0.14461750  0.55928350  1
