# generated using pymatgen
data_CsSiTe3
_symmetry_space_group_name_H-M   'P 1'
_cell_length_a   8.65797600
_cell_length_b   14.30232800
_cell_length_c   13.68171983
_cell_angle_alpha   90.00000000
_cell_angle_beta   100.57883116
_cell_angle_gamma   90.00000000
_symmetry_Int_Tables_number   1
_chemical_formula_structural   CsSiTe3
_chemical_formula_sum   'Cs8 Si8 Te24'
_cell_volume   1665.40074994
_cell_formula_units_Z   8
loop_
 _symmetry_equiv_pos_site_id
 _symmetry_equiv_pos_as_xyz
  1  'x, y, z'
loop_
 _atom_site_type_symbol
 _atom_site_label
 _atom_site_symmetry_multiplicity
 _atom_site_fract_x
 _atom_site_fract_y
 _atom_site_fract_z
 _atom_site_occupancy
  Cs  Cs0  1  0.52649400  0.74952800  0.18951600  1
  Cs  Cs1  1  0.43074650  0.08950450  0.41302900  1
  Cs  Cs2  1  0.52649400  0.25047200  0.68951600  1
  Cs  Cs3  1  0.43074650  0.91049550  0.91302900  1
  Cs  Cs4  1  0.02649400  0.24952800  0.18951600  1
  Cs  Cs5  1  0.93074650  0.58950450  0.41302900  1
  Cs  Cs6  1  0.02649400  0.75047200  0.68951600  1
  Cs  Cs7  1  0.93074650  0.41049550  0.91302900  1
  Si  Si8  1  0.88707300  0.94375200  0.38869200  1
  Si  Si9  1  0.52580100  0.42546800  0.13260500  1
  Si  Si10  1  0.52580100  0.57453200  0.63260500  1
  Si  Si11  1  0.88707300  0.05624800  0.88869200  1
  Si  Si12  1  0.38707300  0.44375200  0.38869200  1
  Si  Si13  1  0.02580100  0.92546800  0.13260500  1
  Si  Si14  1  0.02580100  0.07453200  0.63260500  1
  Si  Si15  1  0.38707300  0.55624800  0.88869200  1
  Te  Te16  1  0.79774100  0.99547600  0.20503600  1
  Te  Te17  1  0.58559450  0.27228750  0.22461600  1
  Te  Te18  1  0.69442600  0.84777100  0.45479100  1
  Te  Te19  1  0.16371850  0.86801250  0.41518500  1
  Te  Te20  1  0.69442600  0.15222900  0.95479100  1
  Te  Te21  1  0.25973550  0.02776650  0.13286100  1
  Te  Te22  1  0.79774100  0.00452400  0.70503600  1
  Te  Te23  1  0.25973550  0.97223350  0.63286100  1
  Te  Te24  1  0.58559450  0.72771250  0.72461600  1
  Te  Te25  1  0.41467100  0.38604500  0.95156900  1
  Te  Te26  1  0.41467100  0.61395500  0.45156900  1
  Te  Te27  1  0.16371850  0.13198750  0.91518500  1
  Te  Te28  1  0.29774100  0.49547600  0.20503600  1
  Te  Te29  1  0.08559450  0.77228750  0.22461600  1
  Te  Te30  1  0.19442600  0.34777100  0.45479100  1
  Te  Te31  1  0.66371850  0.36801250  0.41518500  1
  Te  Te32  1  0.19442600  0.65222900  0.95479100  1
  Te  Te33  1  0.75973550  0.52776650  0.13286100  1
  Te  Te34  1  0.29774100  0.50452400  0.70503600  1
  Te  Te35  1  0.75973550  0.47223350  0.63286100  1
  Te  Te36  1  0.08559450  0.22771250  0.72461600  1
  Te  Te37  1  0.91467100  0.88604500  0.95156900  1
  Te  Te38  1  0.91467100  0.11395500  0.45156900  1
  Te  Te39  1  0.66371850  0.63198750  0.91518500  1
