# generated using pymatgen
data_SiO2
_symmetry_space_group_name_H-M   'P 1'
_cell_length_a   8.58189200
_cell_length_b   19.30165000
_cell_length_c   23.46989600
_cell_angle_alpha   90.00000000
_cell_angle_beta   90.00000000
_cell_angle_gamma   90.00000000
_symmetry_Int_Tables_number   1
_chemical_formula_structural   SiO2
_chemical_formula_sum   'Si64 O128'
_cell_volume   3887.66331214
_cell_formula_units_Z   64
loop_
 _symmetry_equiv_pos_site_id
 _symmetry_equiv_pos_as_xyz
  1  'x, y, z'
loop_
 _atom_site_type_symbol
 _atom_site_label
 _atom_site_symmetry_multiplicity
 _atom_site_fract_x
 _atom_site_fract_y
 _atom_site_fract_z
 _atom_site_occupancy
  Si  Si0  1  0.31640000  0.60157900  0.02605200  1
  Si  Si1  1  0.31640000  0.39842100  0.97394800  1
  Si  Si2  1  0.81577150  0.25000000  0.13356050  1
  Si  Si3  1  0.81646800  0.75000000  0.00376300  1
  Si  Si4  1  0.81577150  0.75000000  0.86643950  1
  Si  Si5  1  0.18709050  0.89320150  0.68552450  1
  Si  Si6  1  0.68709050  0.89320150  0.81447550  1
  Si  Si7  1  0.81290950  0.89320150  0.68552450  1
  Si  Si8  1  0.18422850  0.75000000  0.86643950  1
  Si  Si9  1  0.31640000  0.89842100  0.02605200  1
  Si  Si10  1  0.18380550  0.97367450  0.91723350  1
  Si  Si11  1  0.68360000  0.60157900  0.02605200  1
  Si  Si12  1  0.31619450  0.97367450  0.58276650  1
  Si  Si13  1  0.31619450  0.02632550  0.41723350  1
  Si  Si14  1  0.31640000  0.10157900  0.97394800  1
  Si  Si15  1  0.31290950  0.89320150  0.81447550  1
  Si  Si16  1  0.18709050  0.10679850  0.31447550  1
  Si  Si17  1  0.68360000  0.10157900  0.97394800  1
  Si  Si18  1  0.81290950  0.10679850  0.31447550  1
  Si  Si19  1  0.68709050  0.10679850  0.18552450  1
  Si  Si20  1  0.68380550  0.97367450  0.58276650  1
  Si  Si21  1  0.81646800  0.25000000  0.99623700  1
  Si  Si22  1  0.18353200  0.25000000  0.99623700  1
  Si  Si23  1  0.31290950  0.10679850  0.18552450  1
  Si  Si24  1  0.81619450  0.97367450  0.91723350  1
  Si  Si25  1  0.68360000  0.89842100  0.02605200  1
  Si  Si26  1  0.18380550  0.02632550  0.08276650  1
  Si  Si27  1  0.18422850  0.25000000  0.13356050  1
  Si  Si28  1  0.68360000  0.39842100  0.97394800  1
  Si  Si29  1  0.68380550  0.02632550  0.41723350  1
  Si  Si30  1  0.18353200  0.75000000  0.00376300  1
  Si  Si31  1  0.81619450  0.02632550  0.08276650  1
  Si  Si32  1  0.81640000  0.10157900  0.52605200  1
  Si  Si33  1  0.81640000  0.89842100  0.47394800  1
  Si  Si34  1  0.31577150  0.75000000  0.63356050  1
  Si  Si35  1  0.31646800  0.25000000  0.50376300  1
  Si  Si36  1  0.31577150  0.25000000  0.36643950  1
  Si  Si37  1  0.68709050  0.39320150  0.18552450  1
  Si  Si38  1  0.18709050  0.39320150  0.31447550  1
  Si  Si39  1  0.31290950  0.39320150  0.18552450  1
  Si  Si40  1  0.68422850  0.25000000  0.36643950  1
  Si  Si41  1  0.81640000  0.39842100  0.52605200  1
  Si  Si42  1  0.68380550  0.47367450  0.41723350  1
  Si  Si43  1  0.18360000  0.10157900  0.52605200  1
  Si  Si44  1  0.81619450  0.47367450  0.08276650  1
  Si  Si45  1  0.81619450  0.52632550  0.91723350  1
  Si  Si46  1  0.81640000  0.60157900  0.47394800  1
  Si  Si47  1  0.81290950  0.39320150  0.31447550  1
  Si  Si48  1  0.68709050  0.60679850  0.81447550  1
  Si  Si49  1  0.18360000  0.60157900  0.47394800  1
  Si  Si50  1  0.31290950  0.60679850  0.81447550  1
  Si  Si51  1  0.18709050  0.60679850  0.68552450  1
  Si  Si52  1  0.18380550  0.47367450  0.08276650  1
  Si  Si53  1  0.31646800  0.75000000  0.49623700  1
  Si  Si54  1  0.68353200  0.75000000  0.49623700  1
  Si  Si55  1  0.81290950  0.60679850  0.68552450  1
  Si  Si56  1  0.31619450  0.47367450  0.41723350  1
  Si  Si57  1  0.18360000  0.39842100  0.52605200  1
  Si  Si58  1  0.68380550  0.52632550  0.58276650  1
  Si  Si59  1  0.68422850  0.75000000  0.63356050  1
  Si  Si60  1  0.18360000  0.89842100  0.47394800  1
  Si  Si61  1  0.18380550  0.52632550  0.91723350  1
  Si  Si62  1  0.68353200  0.25000000  0.50376300  1
  Si  Si63  1  0.31619450  0.52632550  0.58276650  1
  O  O64  1  0.00000000  0.95690800  0.92732600  1
  O  O65  1  0.26747000  0.18225900  0.16015800  1
  O  O66  1  0.79399700  0.25000000  0.06495100  1
  O  O67  1  0.28368100  0.94421500  0.42840300  1
  O  O68  1  0.78368100  0.05578500  0.92840300  1
  O  O69  1  0.75000000  0.09923200  0.25000000  1
  O  O70  1  0.28553050  0.57339750  0.96139250  1
  O  O71  1  0.26747000  0.68225900  0.83984200  1
  O  O72  1  0.73253000  0.31774100  0.16015800  1
  O  O73  1  0.00000000  0.25000000  0.97997100  1
  O  O74  1  0.25000000  0.90076800  0.75000000  1
  O  O75  1  0.73295750  0.04584150  0.35249950  1
  O  O76  1  0.73431750  0.81788750  0.03119450  1
  O  O77  1  0.73253000  0.68225900  0.83984200  1
  O  O78  1  0.73253000  0.18225900  0.16015800  1
  O  O79  1  0.73431750  0.31788750  0.96880550  1
  O  O80  1  0.00000000  0.04309200  0.07267400  1
  O  O81  1  0.71631900  0.05578500  0.57159700  1
  O  O82  1  0.73431750  0.18211250  0.96880550  1
  O  O83  1  0.26568250  0.31788750  0.96880550  1
  O  O84  1  0.26747000  0.81774100  0.83984200  1
  O  O85  1  0.50000000  0.90608400  0.04098400  1
  O  O86  1  0.26704250  0.04584150  0.35249950  1
  O  O87  1  0.21631900  0.94421500  0.07159700  1
  O  O88  1  0.20600300  0.75000000  0.93504900  1
  O  O89  1  0.50000000  0.09391600  0.95901600  1
  O  O90  1  0.50000000  0.59391600  0.04098400  1
  O  O91  1  0.26568250  0.68211250  0.03119450  1
  O  O92  1  0.00000000  0.09765100  0.31564600  1
  O  O93  1  0.28368100  0.05578500  0.57159700  1
  O  O94  1  0.71631900  0.94421500  0.42840300  1
  O  O95  1  0.71446950  0.92660250  0.96139250  1
  O  O96  1  0.76704250  0.95415850  0.85249950  1
  O  O97  1  0.75000000  0.90076800  0.75000000  1
  O  O98  1  0.28553050  0.92660250  0.96139250  1
  O  O99  1  0.50000000  0.09765100  0.18435400  1
  O  O100  1  0.71446950  0.42660250  0.03860750  1
  O  O101  1  0.00000000  0.90234900  0.68435400  1
  O  O102  1  0.71446950  0.07339750  0.03860750  1
  O  O103  1  0.78368100  0.94421500  0.07159700  1
  O  O104  1  0.21631900  0.05578500  0.92840300  1
  O  O105  1  0.28553050  0.42660250  0.03860750  1
  O  O106  1  0.50000000  0.90234900  0.81564600  1
  O  O107  1  0.00000000  0.25000000  0.15012800  1
  O  O108  1  0.28553050  0.07339750  0.03860750  1
  O  O109  1  0.20600300  0.25000000  0.06495100  1
  O  O110  1  0.79399700  0.75000000  0.93504900  1
  O  O111  1  0.73295750  0.95415850  0.64750050  1
  O  O112  1  0.23295750  0.04584150  0.14750050  1
  O  O113  1  0.00000000  0.75000000  0.84987200  1
  O  O114  1  0.76704250  0.04584150  0.14750050  1
  O  O115  1  0.50000000  0.04309200  0.42732600  1
  O  O116  1  0.26747000  0.31774100  0.16015800  1
  O  O117  1  0.73431750  0.68211250  0.03119450  1
  O  O118  1  0.25000000  0.09923200  0.25000000  1
  O  O119  1  0.26568250  0.18211250  0.96880550  1
  O  O120  1  0.26568250  0.81788750  0.03119450  1
  O  O121  1  0.23295750  0.95415850  0.85249950  1
  O  O122  1  0.73253000  0.81774100  0.83984200  1
  O  O123  1  0.71446950  0.57339750  0.96139250  1
  O  O124  1  0.50000000  0.40608400  0.95901600  1
  O  O125  1  0.26704250  0.95415850  0.64750050  1
  O  O126  1  0.00000000  0.75000000  0.02002900  1
  O  O127  1  0.50000000  0.95690800  0.57267400  1
  O  O128  1  0.50000000  0.45690800  0.42732600  1
  O  O129  1  0.76747000  0.68225900  0.66015800  1
  O  O130  1  0.29399700  0.75000000  0.56495100  1
  O  O131  1  0.78368100  0.44421500  0.92840300  1
  O  O132  1  0.28368100  0.55578500  0.42840300  1
  O  O133  1  0.25000000  0.59923200  0.75000000  1
  O  O134  1  0.78553050  0.07339750  0.46139250  1
  O  O135  1  0.76747000  0.18225900  0.33984200  1
  O  O136  1  0.23253000  0.81774100  0.66015800  1
  O  O137  1  0.50000000  0.75000000  0.47997100  1
  O  O138  1  0.75000000  0.40076800  0.25000000  1
  O  O139  1  0.23295750  0.54584150  0.85249950  1
  O  O140  1  0.23431750  0.31788750  0.53119450  1
  O  O141  1  0.23253000  0.18225900  0.33984200  1
  O  O142  1  0.23253000  0.68225900  0.66015800  1
  O  O143  1  0.23431750  0.81788750  0.46880550  1
  O  O144  1  0.50000000  0.54309200  0.57267400  1
  O  O145  1  0.21631900  0.55578500  0.07159700  1
  O  O146  1  0.23431750  0.68211250  0.46880550  1
  O  O147  1  0.76568250  0.81788750  0.46880550  1
  O  O148  1  0.76747000  0.31774100  0.33984200  1
  O  O149  1  0.00000000  0.40608400  0.54098400  1
  O  O150  1  0.76704250  0.54584150  0.85249950  1
  O  O151  1  0.71631900  0.44421500  0.57159700  1
  O  O152  1  0.70600300  0.25000000  0.43504900  1
  O  O153  1  0.00000000  0.59391600  0.45901600  1
  O  O154  1  0.00000000  0.09391600  0.54098400  1
  O  O155  1  0.76568250  0.18211250  0.53119450  1
  O  O156  1  0.50000000  0.59765100  0.81564600  1
  O  O157  1  0.78368100  0.55578500  0.07159700  1
  O  O158  1  0.21631900  0.44421500  0.92840300  1
  O  O159  1  0.21446950  0.42660250  0.46139250  1
  O  O160  1  0.26704250  0.45415850  0.35249950  1
  O  O161  1  0.25000000  0.40076800  0.25000000  1
  O  O162  1  0.78553050  0.42660250  0.46139250  1
  O  O163  1  0.00000000  0.59765100  0.68435400  1
  O  O164  1  0.21446950  0.92660250  0.53860750  1
  O  O165  1  0.50000000  0.40234900  0.18435400  1
  O  O166  1  0.21446950  0.57339750  0.53860750  1
  O  O167  1  0.28368100  0.44421500  0.57159700  1
  O  O168  1  0.71631900  0.55578500  0.42840300  1
  O  O169  1  0.78553050  0.92660250  0.53860750  1
  O  O170  1  0.00000000  0.40234900  0.31564600  1
  O  O171  1  0.50000000  0.75000000  0.65012800  1
  O  O172  1  0.78553050  0.57339750  0.53860750  1
  O  O173  1  0.70600300  0.75000000  0.56495100  1
  O  O174  1  0.29399700  0.25000000  0.43504900  1
  O  O175  1  0.23295750  0.45415850  0.14750050  1
  O  O176  1  0.73295750  0.54584150  0.64750050  1
  O  O177  1  0.50000000  0.25000000  0.34987200  1
  O  O178  1  0.26704250  0.54584150  0.64750050  1
  O  O179  1  0.00000000  0.54309200  0.92732600  1
  O  O180  1  0.76747000  0.81774100  0.66015800  1
  O  O181  1  0.23431750  0.18211250  0.53119450  1
  O  O182  1  0.75000000  0.59923200  0.75000000  1
  O  O183  1  0.76568250  0.68211250  0.46880550  1
  O  O184  1  0.76568250  0.31788750  0.53119450  1
  O  O185  1  0.73295750  0.45415850  0.35249950  1
  O  O186  1  0.23253000  0.31774100  0.33984200  1
  O  O187  1  0.21446950  0.07339750  0.46139250  1
  O  O188  1  0.00000000  0.90608400  0.45901600  1
  O  O189  1  0.76704250  0.45415850  0.14750050  1
  O  O190  1  0.50000000  0.25000000  0.52002900  1
  O  O191  1  0.00000000  0.45690800  0.07267400  1
