# generated using pymatgen
data_Ca2Si5N8
_symmetry_space_group_name_H-M   'P 1'
_cell_length_a   9.71054000
_cell_length_b   10.66060500
_cell_length_c   13.69600400
_cell_angle_alpha   90.00000000
_cell_angle_beta   90.00000000
_cell_angle_gamma   90.00000000
_symmetry_Int_Tables_number   1
_chemical_formula_structural   Ca2Si5N8
_chemical_formula_sum   'Ca16 Si40 N64'
_cell_volume   1417.81350165
_cell_formula_units_Z   8
loop_
 _symmetry_equiv_pos_site_id
 _symmetry_equiv_pos_as_xyz
  1  'x, y, z'
loop_
 _atom_site_type_symbol
 _atom_site_label
 _atom_site_symmetry_multiplicity
 _atom_site_fract_x
 _atom_site_fract_y
 _atom_site_fract_z
 _atom_site_occupancy
  Ca  Ca0  1  0.34451500  0.11355400  0.48502300  1
  Ca  Ca1  1  0.55937200  0.11424300  0.09727600  1
  Ca  Ca2  1  0.05937200  0.88575700  0.40272400  1
  Ca  Ca3  1  0.65548500  0.38644600  0.98502300  1
  Ca  Ca4  1  0.94062800  0.61424300  0.90272400  1
  Ca  Ca5  1  0.55937200  0.61424300  0.40272400  1
  Ca  Ca6  1  0.15548500  0.61355400  0.51497700  1
  Ca  Ca7  1  0.84451500  0.38644600  0.48502300  1
  Ca  Ca8  1  0.15548500  0.11355400  0.98502300  1
  Ca  Ca9  1  0.94062800  0.11424300  0.59727600  1
  Ca  Ca10  1  0.34451500  0.61355400  0.01497700  1
  Ca  Ca11  1  0.84451500  0.88644600  0.01497700  1
  Ca  Ca12  1  0.65548500  0.88644600  0.51497700  1
  Ca  Ca13  1  0.44062800  0.88575700  0.90272400  1
  Ca  Ca14  1  0.05937200  0.38575700  0.09727600  1
  Ca  Ca15  1  0.44062800  0.38575700  0.59727600  1
  Si  Si16  1  0.00394900  0.02076800  0.20875200  1
  Si  Si17  1  0.50394900  0.47923200  0.20875200  1
  Si  Si18  1  0.65150900  0.67000600  0.95931200  1
  Si  Si19  1  0.46520900  0.74381300  0.65560600  1
  Si  Si20  1  0.34849100  0.32999400  0.04068800  1
  Si  Si21  1  0.27526800  0.39896600  0.34940500  1
  Si  Si22  1  0.72825300  0.33548200  0.72566700  1
  Si  Si23  1  0.99605100  0.47923200  0.70875200  1
  Si  Si24  1  0.00394900  0.52076800  0.29124800  1
  Si  Si25  1  0.96520900  0.25618700  0.84439400  1
  Si  Si26  1  0.50394900  0.97923200  0.29124800  1
  Si  Si27  1  0.96520900  0.75618700  0.65560600  1
  Si  Si28  1  0.49605100  0.02076800  0.70875200  1
  Si  Si29  1  0.72473200  0.60103400  0.65059500  1
  Si  Si30  1  0.34849100  0.82999400  0.45931200  1
  Si  Si31  1  0.65150900  0.17000600  0.54068800  1
  Si  Si32  1  0.27174700  0.16451800  0.22566700  1
  Si  Si33  1  0.77526800  0.60103400  0.15059500  1
  Si  Si34  1  0.72825300  0.83548200  0.77433300  1
  Si  Si35  1  0.22473200  0.39896600  0.84940500  1
  Si  Si36  1  0.15150900  0.32999400  0.54068800  1
  Si  Si37  1  0.77174700  0.33548200  0.22566700  1
  Si  Si38  1  0.22473200  0.89896600  0.65059500  1
  Si  Si39  1  0.27174700  0.66451800  0.27433300  1
  Si  Si40  1  0.46520900  0.24381300  0.84439400  1
  Si  Si41  1  0.77174700  0.83548200  0.27433300  1
  Si  Si42  1  0.84849100  0.17000600  0.04068800  1
  Si  Si43  1  0.84849100  0.67000600  0.45931200  1
  Si  Si44  1  0.03479100  0.74381300  0.15560600  1
  Si  Si45  1  0.27526800  0.89896600  0.15059500  1
  Si  Si46  1  0.15150900  0.82999400  0.95931200  1
  Si  Si47  1  0.22825300  0.66451800  0.77433300  1
  Si  Si48  1  0.53479100  0.25618700  0.34439400  1
  Si  Si49  1  0.77526800  0.10103400  0.34940500  1
  Si  Si50  1  0.22825300  0.16451800  0.72566700  1
  Si  Si51  1  0.72473200  0.10103400  0.84940500  1
  Si  Si52  1  0.49605100  0.52076800  0.79124800  1
  Si  Si53  1  0.53479100  0.75618700  0.15560600  1
  Si  Si54  1  0.99605100  0.97923200  0.79124800  1
  Si  Si55  1  0.03479100  0.24381300  0.34439400  1
  N  N56  1  0.04221600  0.93244100  0.90255000  1
  N  N57  1  0.24898600  0.73924800  0.38190500  1
  N  N58  1  0.05639000  0.22967800  0.46682400  1
  N  N59  1  0.60734500  0.11618200  0.29791800  1
  N  N60  1  0.77006300  0.57936800  0.02732300  1
  N  N61  1  0.39265500  0.38381800  0.79791800  1
  N  N62  1  0.85667500  0.74597700  0.18288500  1
  N  N63  1  0.38879800  0.62124200  0.72222000  1
  N  N64  1  0.72993700  0.07936800  0.97267700  1
  N  N65  1  0.75101400  0.26075200  0.61809500  1
  N  N66  1  0.04221600  0.43244100  0.59745000  1
  N  N67  1  0.38879800  0.12124200  0.77778000  1
  N  N68  1  0.95778400  0.06755900  0.09745000  1
  N  N69  1  0.14332500  0.75402300  0.68288500  1
  N  N70  1  0.10734500  0.38381800  0.29791800  1
  N  N71  1  0.88879800  0.87875800  0.72222000  1
  N  N72  1  0.54221600  0.06755900  0.59745000  1
  N  N73  1  0.75101400  0.76075200  0.88190500  1
  N  N74  1  0.54221600  0.56755900  0.90255000  1
  N  N75  1  0.14332500  0.25402300  0.81711500  1
  N  N76  1  0.22993700  0.92063200  0.52732300  1
  N  N77  1  0.55639000  0.77032200  0.03317600  1
  N  N78  1  0.39265500  0.88381800  0.70208200  1
  N  N79  1  0.36781500  0.02209500  0.20951000  1
  N  N80  1  0.89265500  0.61618200  0.70208200  1
  N  N81  1  0.94361000  0.27032200  0.96682400  1
  N  N82  1  0.94361000  0.77032200  0.53317600  1
  N  N83  1  0.44361000  0.22967800  0.96682400  1
  N  N84  1  0.45778400  0.43244100  0.09745000  1
  N  N85  1  0.22993700  0.42063200  0.97267700  1
  N  N86  1  0.05639000  0.72967800  0.03317600  1
  N  N87  1  0.27006300  0.92063200  0.02732300  1
  N  N88  1  0.85667500  0.24597700  0.31711500  1
  N  N89  1  0.44361000  0.72967800  0.53317600  1
  N  N90  1  0.55639000  0.27032200  0.46682400  1
  N  N91  1  0.61120200  0.37875800  0.27778000  1
  N  N92  1  0.36781500  0.52209500  0.29049000  1
  N  N93  1  0.77006300  0.07936800  0.47267700  1
  N  N94  1  0.13218500  0.02209500  0.70951000  1
  N  N95  1  0.88879800  0.37875800  0.77778000  1
  N  N96  1  0.35667500  0.75402300  0.18288500  1
  N  N97  1  0.61120200  0.87875800  0.22222000  1
  N  N98  1  0.64332500  0.24597700  0.81711500  1
  N  N99  1  0.63218500  0.97790500  0.79049000  1
  N  N100  1  0.74898600  0.26075200  0.11809500  1
  N  N101  1  0.72993700  0.57936800  0.52732300  1
  N  N102  1  0.86781500  0.97790500  0.29049000  1
  N  N103  1  0.25101400  0.23924800  0.61809500  1
  N  N104  1  0.45778400  0.93244100  0.40255000  1
  N  N105  1  0.11120200  0.12124200  0.27778000  1
  N  N106  1  0.27006300  0.42063200  0.47267700  1
  N  N107  1  0.35667500  0.25402300  0.31711500  1
  N  N108  1  0.63218500  0.47790500  0.70951000  1
  N  N109  1  0.24898600  0.23924800  0.11809500  1
  N  N110  1  0.60734500  0.61618200  0.20208200  1
  N  N111  1  0.86781500  0.47790500  0.20951000  1
  N  N112  1  0.13218500  0.52209500  0.79049000  1
  N  N113  1  0.25101400  0.73924800  0.88190500  1
  N  N114  1  0.64332500  0.74597700  0.68288500  1
  N  N115  1  0.11120200  0.62124200  0.22222000  1
  N  N116  1  0.10734500  0.88381800  0.20208200  1
  N  N117  1  0.89265500  0.11618200  0.79791800  1
  N  N118  1  0.95778400  0.56755900  0.40255000  1
  N  N119  1  0.74898600  0.76075200  0.38190500  1
