# generated using pymatgen
data_Cr(PO3)4
_symmetry_space_group_name_H-M   'P 1'
_cell_length_a   5.15852000
_cell_length_b   13.56785100
_cell_length_c   7.44267410
_cell_angle_alpha   90.00000000
_cell_angle_beta   100.52728953
_cell_angle_gamma   90.00000000
_symmetry_Int_Tables_number   1
_chemical_formula_structural   Cr(PO3)4
_chemical_formula_sum   'Cr2 P8 O24'
_cell_volume   512.14498095
_cell_formula_units_Z   2
loop_
 _symmetry_equiv_pos_site_id
 _symmetry_equiv_pos_as_xyz
  1  'x, y, z'
loop_
 _atom_site_type_symbol
 _atom_site_label
 _atom_site_symmetry_multiplicity
 _atom_site_fract_x
 _atom_site_fract_y
 _atom_site_fract_z
 _atom_site_occupancy
  Cr  Cr0  1  0.00338400  0.76737800  0.50703600  1
  Cr  Cr1  1  0.99661600  0.26737800  0.49296400  1
  P  P2  1  0.36701600  0.82211900  0.89861300  1
  P  P3  1  0.63298400  0.32211900  0.10138700  1
  P  P4  1  0.47563000  0.40405100  0.43331900  1
  P  P5  1  0.52437000  0.90405100  0.56668100  1
  P  P6  1  0.51916800  0.12964800  0.55727900  1
  P  P7  1  0.48083200  0.62964800  0.44272100  1
  P  P8  1  0.71864600  0.67843500  0.13021200  1
  P  P9  1  0.28135400  0.17843500  0.86978800  1
  O  O10  1  0.20314200  0.38849400  0.47596000  1
  O  O11  1  0.79685800  0.88849400  0.52404000  1
  O  O12  1  0.47137600  0.64845500  0.22912000  1
  O  O13  1  0.52862400  0.14845500  0.77088000  1
  O  O14  1  0.57329000  0.73142200  0.94925200  1
  O  O15  1  0.42671000  0.23142200  0.05074800  1
  O  O16  1  0.53355300  0.89145000  0.78095600  1
  O  O17  1  0.46644700  0.39145000  0.21904400  1
  O  O18  1  0.55308000  0.51630200  0.47241300  1
  O  O19  1  0.44692000  0.01630200  0.52758700  1
  O  O20  1  0.69640700  0.37404700  0.94216000  1
  O  O21  1  0.30359300  0.87404700  0.05784000  1
  O  O22  1  0.69600400  0.34465700  0.54233900  1
  O  O23  1  0.30399600  0.84465700  0.45766100  1
  O  O24  1  0.70533400  0.68606700  0.55588200  1
  O  O25  1  0.29466600  0.18606700  0.44411800  1
  O  O26  1  0.78929900  0.14534300  0.51157500  1
  O  O27  1  0.21070100  0.64534300  0.48842500  1
  O  O28  1  0.85819200  0.27397800  0.23714900  1
  O  O29  1  0.14180800  0.77397800  0.76285100  1
  O  O30  1  0.87288100  0.75944500  0.25178300  1
  O  O31  1  0.12711900  0.25944500  0.74821700  1
  O  O32  1  0.87455000  0.59265400  0.08987000  1
  O  O33  1  0.12545000  0.09265400  0.91013000  1
