# generated using pymatgen
data_Gd2Si2O7
_symmetry_space_group_name_H-M   'P 1'
_cell_length_a   6.72439300
_cell_length_b   6.77456880
_cell_length_c   12.27907913
_cell_angle_alpha   94.38158001
_cell_angle_beta   90.86874071
_cell_angle_gamma   91.50687375
_symmetry_Int_Tables_number   1
_chemical_formula_structural   Gd2Si2O7
_chemical_formula_sum   'Gd8 Si8 O28'
_cell_volume   557.46131177
_cell_formula_units_Z   4
loop_
 _symmetry_equiv_pos_site_id
 _symmetry_equiv_pos_as_xyz
  1  'x, y, z'
loop_
 _atom_site_type_symbol
 _atom_site_label
 _atom_site_symmetry_multiplicity
 _atom_site_fract_x
 _atom_site_fract_y
 _atom_site_fract_z
 _atom_site_occupancy
  Gd  Gd0  1  0.05406700  0.32954400  0.11609000  1
  Gd  Gd1  1  0.94593300  0.67045600  0.88391000  1
  Gd  Gd2  1  0.11666800  0.09067300  0.35803200  1
  Gd  Gd3  1  0.88333200  0.90932700  0.64196800  1
  Gd  Gd4  1  0.63269200  0.77414900  0.36869400  1
  Gd  Gd5  1  0.36730800  0.22585100  0.63130600  1
  Gd  Gd6  1  0.33318800  0.82767100  0.10601100  1
  Gd  Gd7  1  0.66681200  0.17232900  0.89398900  1
  Si  Si8  1  0.84700500  0.85098900  0.11645600  1
  Si  Si9  1  0.15299500  0.14901100  0.88354400  1
  Si  Si10  1  0.51315300  0.33292600  0.17586300  1
  Si  Si11  1  0.48684700  0.66707400  0.82413700  1
  Si  Si12  1  0.62329200  0.27073700  0.40472400  1
  Si  Si13  1  0.37670800  0.72926300  0.59527600  1
  Si  Si14  1  0.85326200  0.37232000  0.61688400  1
  Si  Si15  1  0.14673800  0.62768000  0.38311600  1
  O  O16  1  0.35984500  0.49011900  0.12843800  1
  O  O17  1  0.64015500  0.50988100  0.87156200  1
  O  O18  1  0.37915100  0.13992800  0.20830500  1
  O  O19  1  0.62084900  0.86007200  0.79169500  1
  O  O20  1  0.69948700  0.29344400  0.09506500  1
  O  O21  1  0.30051300  0.70655600  0.90493500  1
  O  O22  1  0.60027900  0.42322400  0.30469800  1
  O  O23  1  0.39972100  0.57677600  0.69530200  1
  O  O24  1  0.41527600  0.17297800  0.44491100  1
  O  O25  1  0.58472400  0.82702200  0.55508900  1
  O  O26  1  0.77192100  0.09200900  0.37674400  1
  O  O27  1  0.22807900  0.90799100  0.62325600  1
  O  O28  1  0.71112400  0.42199800  0.50867400  1
  O  O29  1  0.28887600  0.57800200  0.49132600  1
  O  O30  1  0.71210000  0.21961600  0.68450300  1
  O  O31  1  0.28790000  0.78038400  0.31549700  1
  O  O32  1  0.03496400  0.22972500  0.57291600  1
  O  O33  1  0.96503600  0.77027500  0.42708400  1
  O  O34  1  0.92246300  0.57878400  0.68473800  1
  O  O35  1  0.07753700  0.42121600  0.31526200  1
  O  O36  1  0.76125800  0.91123000  0.99890500  1
  O  O37  1  0.23874200  0.08877000  0.00109500  1
  O  O38  1  0.65855900  0.78759800  0.18840900  1
  O  O39  1  0.34144100  0.21240200  0.81159100  1
  O  O40  1  0.00232700  0.66947300  0.08091600  1
  O  O41  1  0.99767300  0.33052700  0.91908400  1
  O  O42  1  0.99877500  0.01373500  0.18334500  1
  O  O43  1  0.00122500  0.98626500  0.81665500  1
