# generated using pymatgen
data_MgTlAs(H6O5)2
_symmetry_space_group_name_H-M   'P 1'
_cell_length_a   6.25789200
_cell_length_b   7.05974900
_cell_length_c   11.44785200
_cell_angle_alpha   90.00000000
_cell_angle_beta   90.00000000
_cell_angle_gamma   90.00000000
_symmetry_Int_Tables_number   1
_chemical_formula_structural   MgTlAs(H6O5)2
_chemical_formula_sum   'Mg2 Tl2 As2 H24 O20'
_cell_volume   505.75633393
_cell_formula_units_Z   2
loop_
 _symmetry_equiv_pos_site_id
 _symmetry_equiv_pos_as_xyz
  1  'x, y, z'
loop_
 _atom_site_type_symbol
 _atom_site_label
 _atom_site_symmetry_multiplicity
 _atom_site_fract_x
 _atom_site_fract_y
 _atom_site_fract_z
 _atom_site_occupancy
  Mg  Mg0  1  0.37957600  0.50000000  0.11965700  1
  Mg  Mg1  1  0.62042400  0.00000000  0.61965700  1
  Tl  Tl2  1  0.36950000  0.50000000  0.77687600  1
  Tl  Tl3  1  0.63050000  0.00000000  0.27687600  1
  As  As4  1  0.99368300  0.50000000  0.49138600  1
  As  As5  1  0.00631700  0.00000000  0.99138600  1
  H  H6  1  0.61057900  0.67976300  0.47403900  1
  H  H7  1  0.99982100  0.11425200  0.50104000  1
  H  H8  1  0.18291300  0.17766800  0.19252300  1
  H  H9  1  0.38942100  0.17976300  0.97403900  1
  H  H10  1  0.21636400  0.29563800  0.31037300  1
  H  H11  1  0.21636400  0.70436200  0.31037300  1
  H  H12  1  0.78363600  0.79563800  0.81037300  1
  H  H13  1  0.62999200  0.74450200  0.98729600  1
  H  H14  1  0.27922700  0.00000000  0.78237500  1
  H  H15  1  0.81708700  0.32233200  0.69252300  1
  H  H16  1  0.78363600  0.20436200  0.81037300  1
  H  H17  1  0.00017900  0.61425200  0.00104000  1
  H  H18  1  0.61057900  0.32023700  0.47403900  1
  H  H19  1  0.18291300  0.82233200  0.19252300  1
  H  H20  1  0.17494100  0.00000000  0.65338700  1
  H  H21  1  0.99982100  0.88574800  0.50104000  1
  H  H22  1  0.81708700  0.67766800  0.69252300  1
  H  H23  1  0.82505900  0.50000000  0.15338700  1
  H  H24  1  0.37000800  0.24450200  0.48729600  1
  H  H25  1  0.62999200  0.25549800  0.98729600  1
  H  H26  1  0.38942100  0.82023700  0.97403900  1
  H  H27  1  0.72077300  0.50000000  0.28237500  1
  H  H28  1  0.00017900  0.38574800  0.00104000  1
  H  H29  1  0.37000800  0.75549800  0.48729600  1
  O  O30  1  0.27792600  0.27657700  0.22982500  1
  O  O31  1  0.52354100  0.20606100  0.49877100  1
  O  O32  1  0.31184500  0.00000000  0.69606400  1
  O  O33  1  0.87391700  0.20133800  0.94607900  1
  O  O34  1  0.87391700  0.79866200  0.94607900  1
  O  O35  1  0.68815500  0.50000000  0.19606400  1
  O  O36  1  0.03578900  0.00000000  0.14068100  1
  O  O37  1  0.25637300  0.00000000  0.92635600  1
  O  O38  1  0.27792600  0.72342300  0.22982500  1
  O  O39  1  0.93675500  0.00000000  0.54170600  1
  O  O40  1  0.52354100  0.79393900  0.49877100  1
  O  O41  1  0.06324500  0.50000000  0.04170600  1
  O  O42  1  0.72207400  0.77657700  0.72982500  1
  O  O43  1  0.12608300  0.70133800  0.44607900  1
  O  O44  1  0.72207400  0.22342300  0.72982500  1
  O  O45  1  0.12608300  0.29866200  0.44607900  1
  O  O46  1  0.47645900  0.29393900  0.99877100  1
  O  O47  1  0.96421100  0.50000000  0.64068100  1
  O  O48  1  0.74362700  0.50000000  0.42635600  1
  O  O49  1  0.47645900  0.70606100  0.99877100  1
