# generated using pymatgen
data_Fe(PO3)4
_symmetry_space_group_name_H-M   'P 1'
_cell_length_a   5.26552700
_cell_length_b   13.60463100
_cell_length_c   7.48159066
_cell_angle_alpha   90.00000000
_cell_angle_beta   98.65770526
_cell_angle_gamma   90.00000000
_symmetry_Int_Tables_number   1
_chemical_formula_structural   Fe(PO3)4
_chemical_formula_sum   'Fe2 P8 O24'
_cell_volume   529.84089761
_cell_formula_units_Z   2
loop_
 _symmetry_equiv_pos_site_id
 _symmetry_equiv_pos_as_xyz
  1  'x, y, z'
loop_
 _atom_site_type_symbol
 _atom_site_label
 _atom_site_symmetry_multiplicity
 _atom_site_fract_x
 _atom_site_fract_y
 _atom_site_fract_z
 _atom_site_occupancy
  Fe  Fe0  1  0.50707800  0.76580700  0.51332500  1
  Fe  Fe1  1  0.49292200  0.26580700  0.48667500  1
  P  P2  1  0.86165100  0.82520600  0.89810100  1
  P  P3  1  0.98030400  0.40285200  0.43795500  1
  P  P4  1  0.01294800  0.12735700  0.55247900  1
  P  P5  1  0.01969600  0.90285200  0.56204500  1
  P  P6  1  0.13834900  0.32520600  0.10189900  1
  P  P7  1  0.98705200  0.62735700  0.44752100  1
  P  P8  1  0.79178400  0.18100500  0.87426500  1
  P  P9  1  0.20821600  0.68100500  0.12573500  1
  O  O10  1  0.71463200  0.38769300  0.48430400  1
  O  O11  1  0.97854100  0.64776100  0.23302800  1
  O  O12  1  0.02145900  0.14776100  0.76697200  1
  O  O13  1  0.05754000  0.73305900  0.95290800  1
  O  O14  1  0.03060100  0.88958500  0.77660100  1
  O  O15  1  0.06363200  0.51466000  0.46863200  1
  O  O16  1  0.17263400  0.38156900  0.93684200  1
  O  O17  1  0.19627500  0.34383900  0.53951900  1
  O  O18  1  0.20630700  0.68312100  0.55402900  1
  O  O19  1  0.27869600  0.14238400  0.50808000  1
  O  O20  1  0.28536800  0.88769300  0.51569600  1
  O  O21  1  0.36677600  0.28131800  0.22221900  1
  O  O22  1  0.38503800  0.75294800  0.23867200  1
  O  O23  1  0.35316300  0.59341600  0.06886200  1
  O  O24  1  0.64683700  0.09341600  0.93113800  1
  O  O25  1  0.96939900  0.38958500  0.22339900  1
  O  O26  1  0.63322400  0.78131800  0.77778100  1
  O  O27  1  0.61496200  0.25294800  0.76132800  1
  O  O28  1  0.72130400  0.64238400  0.49192000  1
  O  O29  1  0.79369300  0.18312100  0.44597100  1
  O  O30  1  0.80372500  0.84383900  0.46048100  1
  O  O31  1  0.82736600  0.88156900  0.06315800  1
  O  O32  1  0.93636800  0.01466000  0.53136800  1
  O  O33  1  0.94246000  0.23305900  0.04709200  1
