# generated using pymatgen
data_Sr5B3ClO9
_symmetry_space_group_name_H-M   'P 1'
_cell_length_a   10.09303800
_cell_length_b   14.41321600
_cell_length_c   7.48775300
_cell_angle_alpha   90.00000000
_cell_angle_beta   90.00000000
_cell_angle_gamma   90.00000000
_symmetry_Int_Tables_number   1
_chemical_formula_structural   Sr5B3ClO9
_chemical_formula_sum   'Sr20 B12 Cl4 O36'
_cell_volume   1089.26691642
_cell_formula_units_Z   4
loop_
 _symmetry_equiv_pos_site_id
 _symmetry_equiv_pos_as_xyz
  1  'x, y, z'
loop_
 _atom_site_type_symbol
 _atom_site_label
 _atom_site_symmetry_multiplicity
 _atom_site_fract_x
 _atom_site_fract_y
 _atom_site_fract_z
 _atom_site_occupancy
  Sr  Sr0  1  0.76126400  0.00000000  0.00000000  1
  Sr  Sr1  1  0.13337750  0.87126450  0.93623400  1
  Sr  Sr2  1  0.23873600  0.00000000  0.50000000  1
  Sr  Sr3  1  0.50000000  0.86504000  0.75000000  1
  Sr  Sr4  1  0.50000000  0.13496000  0.25000000  1
  Sr  Sr5  1  0.50000000  0.13769800  0.75000000  1
  Sr  Sr6  1  0.86662250  0.12873550  0.43623400  1
  Sr  Sr7  1  0.50000000  0.86230200  0.25000000  1
  Sr  Sr8  1  0.86662250  0.87126450  0.56376600  1
  Sr  Sr9  1  0.13337750  0.12873550  0.06376600  1
  Sr  Sr10  1  0.26126400  0.50000000  0.00000000  1
  Sr  Sr11  1  0.63337750  0.37126450  0.93623400  1
  Sr  Sr12  1  0.73873600  0.50000000  0.50000000  1
  Sr  Sr13  1  0.00000000  0.36504000  0.75000000  1
  Sr  Sr14  1  0.00000000  0.63496000  0.25000000  1
  Sr  Sr15  1  0.00000000  0.63769800  0.75000000  1
  Sr  Sr16  1  0.36662250  0.62873550  0.43623400  1
  Sr  Sr17  1  0.00000000  0.36230200  0.25000000  1
  Sr  Sr18  1  0.36662250  0.37126450  0.56376600  1
  Sr  Sr19  1  0.63337750  0.62873550  0.06376600  1
  B  B20  1  0.69728700  0.71200900  0.47061600  1
  B  B21  1  0.30271300  0.71200900  0.02938400  1
  B  B22  1  0.37016000  0.00000000  0.00000000  1
  B  B23  1  0.69728700  0.28799100  0.52938400  1
  B  B24  1  0.62984000  0.00000000  0.50000000  1
  B  B25  1  0.30271300  0.28799100  0.97061600  1
  B  B26  1  0.19728700  0.21200900  0.47061600  1
  B  B27  1  0.80271300  0.21200900  0.02938400  1
  B  B28  1  0.87016000  0.50000000  0.00000000  1
  B  B29  1  0.19728700  0.78799100  0.52938400  1
  B  B30  1  0.12984000  0.50000000  0.50000000  1
  B  B31  1  0.80271300  0.78799100  0.97061600  1
  Cl  Cl32  1  0.50000000  0.55325200  0.75000000  1
  Cl  Cl33  1  0.50000000  0.44674800  0.25000000  1
  Cl  Cl34  1  0.00000000  0.05325200  0.75000000  1
  Cl  Cl35  1  0.00000000  0.94674800  0.25000000  1
  O  O36  1  0.49083700  0.00000000  0.50000000  1
  O  O37  1  0.64586850  0.20109250  0.48748000  1
  O  O38  1  0.50916300  0.00000000  0.00000000  1
  O  O39  1  0.30409900  0.00074300  0.16224300  1
  O  O40  1  0.64586850  0.79890750  0.51252000  1
  O  O41  1  0.38163150  0.35303650  0.88567900  1
  O  O42  1  0.61836850  0.64696350  0.38567900  1
  O  O43  1  0.69590100  0.99925700  0.66224300  1
  O  O44  1  0.30409900  0.99925700  0.83775700  1
  O  O45  1  0.35413150  0.20109250  0.01252000  1
  O  O46  1  0.33022550  0.80898050  0.49023400  1
  O  O47  1  0.38163150  0.64696350  0.11432100  1
  O  O48  1  0.69590100  0.00074300  0.33775700  1
  O  O49  1  0.66977450  0.19101950  0.99023400  1
  O  O50  1  0.35413150  0.79890750  0.98748000  1
  O  O51  1  0.66977450  0.80898050  0.00976600  1
  O  O52  1  0.61836850  0.35303650  0.61432100  1
  O  O53  1  0.33022550  0.19101950  0.50976600  1
  O  O54  1  0.99083700  0.50000000  0.50000000  1
  O  O55  1  0.14586850  0.70109250  0.48748000  1
  O  O56  1  0.00916300  0.50000000  0.00000000  1
  O  O57  1  0.80409900  0.50074300  0.16224300  1
  O  O58  1  0.14586850  0.29890750  0.51252000  1
  O  O59  1  0.88163150  0.85303650  0.88567900  1
  O  O60  1  0.11836850  0.14696350  0.38567900  1
  O  O61  1  0.19590100  0.49925700  0.66224300  1
  O  O62  1  0.80409900  0.49925700  0.83775700  1
  O  O63  1  0.85413150  0.70109250  0.01252000  1
  O  O64  1  0.83022550  0.30898050  0.49023400  1
  O  O65  1  0.88163150  0.14696350  0.11432100  1
  O  O66  1  0.19590100  0.50074300  0.33775700  1
  O  O67  1  0.16977450  0.69101950  0.99023400  1
  O  O68  1  0.85413150  0.29890750  0.98748000  1
  O  O69  1  0.16977450  0.30898050  0.00976600  1
  O  O70  1  0.11836850  0.85303650  0.61432100  1
  O  O71  1  0.83022550  0.69101950  0.50976600  1
