# generated using pymatgen
data_Ca2Bi
_symmetry_space_group_name_H-M   'P 1'
_cell_length_a   4.88415800
_cell_length_b   4.88415800
_cell_length_c   16.97044800
_cell_angle_alpha   90.00000000
_cell_angle_beta   90.00000000
_cell_angle_gamma   90.00000000
_symmetry_Int_Tables_number   1
_chemical_formula_structural   Ca2Bi
_chemical_formula_sum   'Ca8 Bi4'
_cell_volume   404.83002633
_cell_formula_units_Z   4
loop_
 _symmetry_equiv_pos_site_id
 _symmetry_equiv_pos_as_xyz
  1  'x, y, z'
loop_
 _atom_site_type_symbol
 _atom_site_label
 _atom_site_symmetry_multiplicity
 _atom_site_fract_x
 _atom_site_fract_y
 _atom_site_fract_z
 _atom_site_occupancy
  Ca  Ca0  1  0.50000000  0.50000000  0.17331500  1
  Ca  Ca1  1  0.50000000  0.00000000  0.00000000  1
  Ca  Ca2  1  0.00000000  0.00000000  0.32668500  1
  Ca  Ca3  1  0.00000000  0.50000000  0.00000000  1
  Ca  Ca4  1  0.00000000  0.00000000  0.67331500  1
  Ca  Ca5  1  0.00000000  0.50000000  0.50000000  1
  Ca  Ca6  1  0.50000000  0.50000000  0.82668500  1
  Ca  Ca7  1  0.50000000  0.00000000  0.50000000  1
  Bi  Bi8  1  0.00000000  0.00000000  0.13671900  1
  Bi  Bi9  1  0.50000000  0.50000000  0.36328100  1
  Bi  Bi10  1  0.50000000  0.50000000  0.63671900  1
  Bi  Bi11  1  0.00000000  0.00000000  0.86328100  1
