# generated using pymatgen
data_Sm3Si2S8Br
_symmetry_space_group_name_H-M   'P 1'
_cell_length_a   15.75659200
_cell_length_b   7.65636600
_cell_length_c   10.88117169
_cell_angle_alpha   90.00000000
_cell_angle_beta   98.49342174
_cell_angle_gamma   90.00000000
_symmetry_Int_Tables_number   1
_chemical_formula_structural   Sm3Si2S8Br
_chemical_formula_sum   'Sm12 Si8 S32 Br4'
_cell_volume   1298.28890325
_cell_formula_units_Z   4
loop_
 _symmetry_equiv_pos_site_id
 _symmetry_equiv_pos_as_xyz
  1  'x, y, z'
loop_
 _atom_site_type_symbol
 _atom_site_label
 _atom_site_symmetry_multiplicity
 _atom_site_fract_x
 _atom_site_fract_y
 _atom_site_fract_z
 _atom_site_occupancy
  Sm  Sm0  1  0.80116550  0.12420950  0.31686700  1
  Sm  Sm1  1  0.00000000  0.61858800  0.25000000  1
  Sm  Sm2  1  0.00000000  0.38141200  0.75000000  1
  Sm  Sm3  1  0.69883450  0.37579050  0.68313300  1
  Sm  Sm4  1  0.80116550  0.87579050  0.81686700  1
  Sm  Sm5  1  0.69883450  0.62420950  0.18313300  1
  Sm  Sm6  1  0.30116550  0.62420950  0.31686700  1
  Sm  Sm7  1  0.50000000  0.11858800  0.25000000  1
  Sm  Sm8  1  0.50000000  0.88141200  0.75000000  1
  Sm  Sm9  1  0.19883450  0.87579050  0.68313300  1
  Sm  Sm10  1  0.30116550  0.37579050  0.81686700  1
  Sm  Sm11  1  0.19883450  0.12420950  0.18313300  1
  Si  Si12  1  0.65882200  0.96477600  0.52742900  1
  Si  Si13  1  0.84117800  0.46477600  0.97257100  1
  Si  Si14  1  0.65882200  0.03522400  0.02742900  1
  Si  Si15  1  0.84117800  0.53522400  0.47257100  1
  Si  Si16  1  0.15882200  0.46477600  0.52742900  1
  Si  Si17  1  0.34117800  0.96477600  0.97257100  1
  Si  Si18  1  0.15882200  0.53522400  0.02742900  1
  Si  Si19  1  0.34117800  0.03522400  0.47257100  1
  S  S20  1  0.93344150  0.33809450  0.45768500  1
  S  S21  1  0.85317100  0.59405500  0.66531000  1
  S  S22  1  0.71631000  0.43031800  0.41342200  1
  S  S23  1  0.71631000  0.56968200  0.91342200  1
  S  S24  1  0.64415550  0.25223850  0.14393300  1
  S  S25  1  0.78369000  0.93031800  0.08657800  1
  S  S26  1  0.85317100  0.40594500  0.16531000  1
  S  S27  1  0.64415550  0.74776150  0.64393300  1
  S  S28  1  0.64682900  0.09405500  0.83469000  1
  S  S29  1  0.56655850  0.83809450  0.04231500  1
  S  S30  1  0.64682900  0.90594500  0.33469000  1
  S  S31  1  0.78369000  0.06968200  0.58657800  1
  S  S32  1  0.85584450  0.75223850  0.35606700  1
  S  S33  1  0.56655850  0.16190550  0.54231500  1
  S  S34  1  0.93344150  0.66190550  0.95768500  1
  S  S35  1  0.85584450  0.24776150  0.85606700  1
  S  S36  1  0.43344150  0.83809450  0.45768500  1
  S  S37  1  0.35317100  0.09405500  0.66531000  1
  S  S38  1  0.21631000  0.93031800  0.41342200  1
  S  S39  1  0.21631000  0.06968200  0.91342200  1
  S  S40  1  0.14415550  0.75223850  0.14393300  1
  S  S41  1  0.28369000  0.43031800  0.08657800  1
  S  S42  1  0.35317100  0.90594500  0.16531000  1
  S  S43  1  0.14415550  0.24776150  0.64393300  1
  S  S44  1  0.14682900  0.59405500  0.83469000  1
  S  S45  1  0.06655850  0.33809450  0.04231500  1
  S  S46  1  0.14682900  0.40594500  0.33469000  1
  S  S47  1  0.28369000  0.56968200  0.58657800  1
  S  S48  1  0.35584450  0.25223850  0.35606700  1
  S  S49  1  0.06655850  0.66190550  0.54231500  1
  S  S50  1  0.43344150  0.16190550  0.95768500  1
  S  S51  1  0.35584450  0.74776150  0.85606700  1
  Br  Br52  1  0.00000000  0.00629000  0.25000000  1
  Br  Br53  1  0.00000000  0.99371000  0.75000000  1
  Br  Br54  1  0.50000000  0.50629000  0.25000000  1
  Br  Br55  1  0.50000000  0.49371000  0.75000000  1
