# generated using pymatgen
data_Nb2O5
_symmetry_space_group_name_H-M   'P 1'
_cell_length_a   20.77307000
_cell_length_b   20.77307000
_cell_length_c   3.85703200
_cell_angle_alpha   90.00000000
_cell_angle_beta   90.00000000
_cell_angle_gamma   90.00000000
_symmetry_Int_Tables_number   1
_chemical_formula_structural   Nb2O5
_chemical_formula_sum   'Nb32 O80'
_cell_volume   1664.38813503
_cell_formula_units_Z   16
loop_
 _symmetry_equiv_pos_site_id
 _symmetry_equiv_pos_as_xyz
  1  'x, y, z'
loop_
 _atom_site_type_symbol
 _atom_site_label
 _atom_site_symmetry_multiplicity
 _atom_site_fract_x
 _atom_site_fract_y
 _atom_site_fract_z
 _atom_site_occupancy
  Nb  Nb0  1  0.26611900  0.86486600  0.00000000  1
  Nb  Nb1  1  0.50000000  0.36875100  0.50000000  1
  Nb  Nb2  1  0.50000000  0.90025700  0.50000000  1
  Nb  Nb3  1  0.40025700  0.00000000  0.00000000  1
  Nb  Nb4  1  0.36486600  0.23388100  0.50000000  1
  Nb  Nb5  1  0.59974300  0.00000000  0.00000000  1
  Nb  Nb6  1  0.63513400  0.76611900  0.50000000  1
  Nb  Nb7  1  0.13124900  0.00000000  0.00000000  1
  Nb  Nb8  1  0.50000000  0.63124900  0.50000000  1
  Nb  Nb9  1  0.86875100  0.00000000  0.00000000  1
  Nb  Nb10  1  0.36486600  0.76611900  0.50000000  1
  Nb  Nb11  1  0.50000000  0.09974300  0.50000000  1
  Nb  Nb12  1  0.73388100  0.86486600  0.00000000  1
  Nb  Nb13  1  0.73388100  0.13513400  0.00000000  1
  Nb  Nb14  1  0.26611900  0.13513400  0.00000000  1
  Nb  Nb15  1  0.63513400  0.23388100  0.50000000  1
  Nb  Nb16  1  0.76611900  0.36486600  0.50000000  1
  Nb  Nb17  1  0.00000000  0.86875100  0.00000000  1
  Nb  Nb18  1  0.00000000  0.40025700  0.00000000  1
  Nb  Nb19  1  0.90025700  0.50000000  0.50000000  1
  Nb  Nb20  1  0.86486600  0.73388100  0.00000000  1
  Nb  Nb21  1  0.09974300  0.50000000  0.50000000  1
  Nb  Nb22  1  0.13513400  0.26611900  0.00000000  1
  Nb  Nb23  1  0.63124900  0.50000000  0.50000000  1
  Nb  Nb24  1  0.00000000  0.13124900  0.00000000  1
  Nb  Nb25  1  0.36875100  0.50000000  0.50000000  1
  Nb  Nb26  1  0.86486600  0.26611900  0.00000000  1
  Nb  Nb27  1  0.00000000  0.59974300  0.00000000  1
  Nb  Nb28  1  0.23388100  0.36486600  0.50000000  1
  Nb  Nb29  1  0.23388100  0.63513400  0.50000000  1
  Nb  Nb30  1  0.76611900  0.63513400  0.50000000  1
  Nb  Nb31  1  0.13513400  0.73388100  0.00000000  1
  O  O32  1  0.56978500  0.29100700  0.50000000  1
  O  O33  1  0.70631000  0.70631000  0.50000000  1
  O  O34  1  0.43021500  0.70899300  0.50000000  1
  O  O35  1  0.35159400  0.78957600  0.00000000  1
  O  O36  1  0.79369000  0.79369000  0.00000000  1
  O  O37  1  0.79100700  0.06978500  0.00000000  1
  O  O38  1  0.20899300  0.93021500  0.00000000  1
  O  O39  1  0.28957600  0.85159400  0.50000000  1
  O  O40  1  0.71042400  0.85159400  0.50000000  1
  O  O41  1  0.93066400  0.06933600  0.00000000  1
  O  O42  1  0.50000000  0.64470900  0.00000000  1
  O  O43  1  0.56933600  0.56933600  0.50000000  1
  O  O44  1  0.43165300  0.84678500  0.50000000  1
  O  O45  1  0.50000000  0.06671400  0.00000000  1
  O  O46  1  0.70631000  0.29369000  0.50000000  1
  O  O47  1  0.93066400  0.93066400  0.00000000  1
  O  O48  1  0.50000000  0.35529100  0.00000000  1
  O  O49  1  0.43165300  0.15321500  0.50000000  1
  O  O50  1  0.64840600  0.78957600  0.00000000  1
  O  O51  1  0.28957600  0.14840600  0.50000000  1
  O  O52  1  0.14470900  0.00000000  0.50000000  1
  O  O53  1  0.34678500  0.93165300  0.00000000  1
  O  O54  1  0.56834700  0.15321500  0.50000000  1
  O  O55  1  0.65321500  0.06834700  0.00000000  1
  O  O56  1  0.43328600  0.00000000  0.50000000  1
  O  O57  1  0.56834700  0.84678500  0.50000000  1
  O  O58  1  0.56933600  0.43066400  0.50000000  1
  O  O59  1  0.43021500  0.29100700  0.50000000  1
  O  O60  1  0.35159400  0.21042400  0.00000000  1
  O  O61  1  0.79100700  0.93021500  0.00000000  1
  O  O62  1  0.50000000  0.93328600  0.00000000  1
  O  O63  1  0.56978500  0.70899300  0.50000000  1
  O  O64  1  0.65321500  0.93165300  0.00000000  1
  O  O65  1  0.79369000  0.20631000  0.00000000  1
  O  O66  1  0.71042400  0.14840600  0.50000000  1
  O  O67  1  0.56671400  0.00000000  0.50000000  1
  O  O68  1  0.20899300  0.06978500  0.00000000  1
  O  O69  1  0.34678500  0.06834700  0.00000000  1
  O  O70  1  0.64840600  0.21042400  0.00000000  1
  O  O71  1  0.85529100  0.00000000  0.50000000  1
  O  O72  1  0.06978500  0.79100700  0.00000000  1
  O  O73  1  0.20631000  0.20631000  0.00000000  1
  O  O74  1  0.93021500  0.20899300  0.00000000  1
  O  O75  1  0.85159400  0.28957600  0.50000000  1
  O  O76  1  0.29369000  0.29369000  0.50000000  1
  O  O77  1  0.29100700  0.56978500  0.50000000  1
  O  O78  1  0.70899300  0.43021500  0.50000000  1
  O  O79  1  0.78957600  0.35159400  0.00000000  1
  O  O80  1  0.21042400  0.35159400  0.00000000  1
  O  O81  1  0.43066400  0.56933600  0.50000000  1
  O  O82  1  0.00000000  0.14470900  0.50000000  1
  O  O83  1  0.06933600  0.06933600  0.00000000  1
  O  O84  1  0.93165300  0.34678500  0.00000000  1
  O  O85  1  0.00000000  0.56671400  0.50000000  1
  O  O86  1  0.20631000  0.79369000  0.00000000  1
  O  O87  1  0.43066400  0.43066400  0.50000000  1
  O  O88  1  0.00000000  0.85529100  0.50000000  1
  O  O89  1  0.93165300  0.65321500  0.00000000  1
  O  O90  1  0.14840600  0.28957600  0.50000000  1
  O  O91  1  0.78957600  0.64840600  0.00000000  1
  O  O92  1  0.64470900  0.50000000  0.00000000  1
  O  O93  1  0.84678500  0.43165300  0.50000000  1
  O  O94  1  0.06834700  0.65321500  0.00000000  1
  O  O95  1  0.15321500  0.56834700  0.50000000  1
  O  O96  1  0.93328600  0.50000000  0.00000000  1
  O  O97  1  0.06834700  0.34678500  0.00000000  1
  O  O98  1  0.06933600  0.93066400  0.00000000  1
  O  O99  1  0.93021500  0.79100700  0.00000000  1
  O  O100  1  0.85159400  0.71042400  0.50000000  1
  O  O101  1  0.29100700  0.43021500  0.50000000  1
  O  O102  1  0.00000000  0.43328600  0.50000000  1
  O  O103  1  0.06978500  0.20899300  0.00000000  1
  O  O104  1  0.15321500  0.43165300  0.50000000  1
  O  O105  1  0.29369000  0.70631000  0.50000000  1
  O  O106  1  0.21042400  0.64840600  0.00000000  1
  O  O107  1  0.06671400  0.50000000  0.00000000  1
  O  O108  1  0.70899300  0.56978500  0.50000000  1
  O  O109  1  0.84678500  0.56834700  0.50000000  1
  O  O110  1  0.14840600  0.71042400  0.50000000  1
  O  O111  1  0.35529100  0.50000000  0.00000000  1
