# generated using pymatgen
data_Ga10GePb3O20
_symmetry_space_group_name_H-M   'P 1'
_cell_length_a   15.83688600
_cell_length_b   11.86336400
_cell_length_c   5.18017454
_cell_angle_alpha   90.00000000
_cell_angle_beta   108.91427795
_cell_angle_gamma   90.00000000
_symmetry_Int_Tables_number   1
_chemical_formula_structural   Ga10GePb3O20
_chemical_formula_sum   'Ga20 Ge2 Pb6 O40'
_cell_volume   920.69395703
_cell_formula_units_Z   2
loop_
 _symmetry_equiv_pos_site_id
 _symmetry_equiv_pos_as_xyz
  1  'x, y, z'
loop_
 _atom_site_type_symbol
 _atom_site_label
 _atom_site_symmetry_multiplicity
 _atom_site_fract_x
 _atom_site_fract_y
 _atom_site_fract_z
 _atom_site_occupancy
  Ga  Ga0  1  0.50000000  0.86602100  0.50000000  1
  Ga  Ga1  1  0.50000000  0.13397900  0.50000000  1
  Ga  Ga2  1  0.14362250  0.86378050  0.62803300  1
  Ga  Ga3  1  0.85637750  0.86378050  0.37196700  1
  Ga  Ga4  1  0.85637750  0.13621950  0.37196700  1
  Ga  Ga5  1  0.14362250  0.13621950  0.62803300  1
  Ga  Ga6  1  0.36427350  0.78623650  0.89242000  1
  Ga  Ga7  1  0.63572650  0.78623650  0.10758000  1
  Ga  Ga8  1  0.63572650  0.21376350  0.10758000  1
  Ga  Ga9  1  0.36427350  0.21376350  0.89242000  1
  Ga  Ga10  1  0.00000000  0.36602100  0.50000000  1
  Ga  Ga11  1  0.00000000  0.63397900  0.50000000  1
  Ga  Ga12  1  0.64362250  0.36378050  0.62803300  1
  Ga  Ga13  1  0.35637750  0.36378050  0.37196700  1
  Ga  Ga14  1  0.35637750  0.63621950  0.37196700  1
  Ga  Ga15  1  0.64362250  0.63621950  0.62803300  1
  Ga  Ga16  1  0.86427350  0.28623650  0.89242000  1
  Ga  Ga17  1  0.13572650  0.28623650  0.10758000  1
  Ga  Ga18  1  0.13572650  0.71376350  0.10758000  1
  Ga  Ga19  1  0.86427350  0.71376350  0.89242000  1
  Ge  Ge20  1  0.50000000  0.00000000  0.00000000  1
  Ge  Ge21  1  0.00000000  0.50000000  0.00000000  1
  Pb  Pb22  1  0.00000000  0.00000000  0.00000000  1
  Pb  Pb23  1  0.72239300  0.00000000  0.78159200  1
  Pb  Pb24  1  0.27760700  0.00000000  0.21840800  1
  Pb  Pb25  1  0.50000000  0.50000000  0.00000000  1
  Pb  Pb26  1  0.22239300  0.50000000  0.78159200  1
  Pb  Pb27  1  0.77760700  0.50000000  0.21840800  1
  O  O28  1  0.56643100  0.00000000  0.74845600  1
  O  O29  1  0.43356900  0.00000000  0.25154400  1
  O  O30  1  0.09718200  0.00000000  0.69553500  1
  O  O31  1  0.90281800  0.00000000  0.30446500  1
  O  O32  1  0.26010700  0.86395000  0.86797400  1
  O  O33  1  0.73989300  0.86395000  0.13202600  1
  O  O34  1  0.73989300  0.13605000  0.13202600  1
  O  O35  1  0.26010700  0.13605000  0.86797400  1
  O  O36  1  0.58342300  0.24465600  0.73190000  1
  O  O37  1  0.41657700  0.24465600  0.26810000  1
  O  O38  1  0.41657700  0.75534400  0.26810000  1
  O  O39  1  0.58342300  0.75534400  0.73190000  1
  O  O40  1  0.63686400  0.64506400  0.26533800  1
  O  O41  1  0.36313600  0.64506400  0.73466200  1
  O  O42  1  0.36313600  0.35493600  0.73466200  1
  O  O43  1  0.63686400  0.35493600  0.26533800  1
  O  O44  1  0.56926550  0.88543650  0.24239100  1
  O  O45  1  0.43073450  0.88543650  0.75760900  1
  O  O46  1  0.43073450  0.11456350  0.75760900  1
  O  O47  1  0.56926550  0.11456350  0.24239100  1
  O  O48  1  0.06643100  0.50000000  0.74845600  1
  O  O49  1  0.93356900  0.50000000  0.25154400  1
  O  O50  1  0.59718200  0.50000000  0.69553500  1
  O  O51  1  0.40281800  0.50000000  0.30446500  1
  O  O52  1  0.76010700  0.36395000  0.86797400  1
  O  O53  1  0.23989300  0.36395000  0.13202600  1
  O  O54  1  0.23989300  0.63605000  0.13202600  1
  O  O55  1  0.76010700  0.63605000  0.86797400  1
  O  O56  1  0.08342300  0.74465600  0.73190000  1
  O  O57  1  0.91657700  0.74465600  0.26810000  1
  O  O58  1  0.91657700  0.25534400  0.26810000  1
  O  O59  1  0.08342300  0.25534400  0.73190000  1
  O  O60  1  0.13686400  0.14506400  0.26533800  1
  O  O61  1  0.86313600  0.14506400  0.73466200  1
  O  O62  1  0.86313600  0.85493600  0.73466200  1
  O  O63  1  0.13686400  0.85493600  0.26533800  1
  O  O64  1  0.06926550  0.38543650  0.24239100  1
  O  O65  1  0.93073450  0.38543650  0.75760900  1
  O  O66  1  0.93073450  0.61456350  0.75760900  1
  O  O67  1  0.06926550  0.61456350  0.24239100  1
