# generated using pymatgen
data_Er3Si3O10F
_symmetry_space_group_name_H-M   'P 1'
_cell_length_a   7.34051600
_cell_length_b   11.17757500
_cell_length_c   11.94379494
_cell_angle_alpha   90.00000000
_cell_angle_beta   120.23834392
_cell_angle_gamma   90.00000000
_symmetry_Int_Tables_number   1
_chemical_formula_structural   Er3Si3O10F
_chemical_formula_sum   'Er12 Si12 O40 F4'
_cell_volume   846.64058707
_cell_formula_units_Z   4
loop_
 _symmetry_equiv_pos_site_id
 _symmetry_equiv_pos_as_xyz
  1  'x, y, z'
loop_
 _atom_site_type_symbol
 _atom_site_label
 _atom_site_symmetry_multiplicity
 _atom_site_fract_x
 _atom_site_fract_y
 _atom_site_fract_z
 _atom_site_occupancy
  Er  Er0  1  0.80492700  0.59825100  0.50301700  1
  Er  Er1  1  0.19507300  0.09825100  0.99698300  1
  Er  Er2  1  0.19507300  0.40174900  0.49698300  1
  Er  Er3  1  0.80492700  0.90174900  0.00301700  1
  Er  Er4  1  0.59522200  0.72929100  0.18900500  1
  Er  Er5  1  0.40477800  0.22929100  0.31099500  1
  Er  Er6  1  0.40477800  0.27070900  0.81099500  1
  Er  Er7  1  0.59522200  0.77070900  0.68900500  1
  Er  Er8  1  0.74478200  0.96862000  0.48219000  1
  Er  Er9  1  0.25521800  0.46862000  0.01781000  1
  Er  Er10  1  0.25521800  0.03138000  0.51781000  1
  Er  Er11  1  0.74478200  0.53138000  0.98219000  1
  Si  Si12  1  0.28446400  0.91405100  0.25923100  1
  Si  Si13  1  0.71553600  0.41405100  0.24076900  1
  Si  Si14  1  0.71553600  0.08594900  0.74076900  1
  Si  Si15  1  0.28446400  0.58594900  0.75923100  1
  Si  Si16  1  0.12210700  0.75560200  0.89020400  1
  Si  Si17  1  0.87789300  0.25560200  0.60979600  1
  Si  Si18  1  0.87789300  0.24439800  0.10979600  1
  Si  Si19  1  0.12210700  0.74439800  0.39020400  1
  Si  Si20  1  0.28586400  0.96348600  0.79145300  1
  Si  Si21  1  0.71413600  0.46348600  0.70854700  1
  Si  Si22  1  0.71413600  0.03651400  0.20854700  1
  Si  Si23  1  0.28586400  0.53651400  0.29145300  1
  O  O24  1  0.64999000  0.97444200  0.63674900  1
  O  O25  1  0.35001000  0.47444200  0.86325100  1
  O  O26  1  0.35001000  0.02555800  0.36325100  1
  O  O27  1  0.64999000  0.52555800  0.13674900  1
  O  O28  1  0.14809800  0.94965000  0.10675700  1
  O  O29  1  0.85190200  0.44965000  0.39324300  1
  O  O30  1  0.85190200  0.05035000  0.89324300  1
  O  O31  1  0.14809800  0.55035000  0.60675700  1
  O  O32  1  0.51479900  0.85697700  0.30325400  1
  O  O33  1  0.48520100  0.35697700  0.19674600  1
  O  O34  1  0.48520100  0.14302300  0.69674600  1
  O  O35  1  0.51479900  0.64302300  0.80325400  1
  O  O36  1  0.11350400  0.67810000  0.76882000  1
  O  O37  1  0.88649600  0.17810000  0.73118000  1
  O  O38  1  0.88649600  0.32190000  0.23118000  1
  O  O39  1  0.11350400  0.82190000  0.26882000  1
  O  O40  1  0.28765800  0.68070400  0.01879700  1
  O  O41  1  0.71234200  0.18070400  0.48120300  1
  O  O42  1  0.71234200  0.31929600  0.98120300  1
  O  O43  1  0.28765800  0.81929600  0.51879700  1
  O  O44  1  0.89386200  0.77361200  0.87980200  1
  O  O45  1  0.10613800  0.27361200  0.62019800  1
  O  O46  1  0.10613800  0.22638800  0.12019800  1
  O  O47  1  0.89386200  0.72638800  0.37980200  1
  O  O48  1  0.19531100  0.89287700  0.87763500  1
  O  O49  1  0.80468900  0.39287700  0.62236500  1
  O  O50  1  0.80468900  0.10712300  0.12236500  1
  O  O51  1  0.19531100  0.60712300  0.37763500  1
  O  O52  1  0.49554300  0.60507000  0.30874900  1
  O  O53  1  0.50445700  0.10507000  0.19125100  1
  O  O54  1  0.50445700  0.39493000  0.69125100  1
  O  O55  1  0.49554300  0.89493000  0.80874900  1
  O  O56  1  0.10316800  0.97882400  0.63721500  1
  O  O57  1  0.89683200  0.47882400  0.86278500  1
  O  O58  1  0.89683200  0.02117600  0.36278500  1
  O  O59  1  0.10316800  0.52117600  0.13721500  1
  O  O60  1  0.65499000  0.59070400  0.62867800  1
  O  O61  1  0.34501000  0.09070400  0.87132200  1
  O  O62  1  0.34501000  0.40929600  0.37132200  1
  O  O63  1  0.65499000  0.90929600  0.12867800  1
  F  F64  1  0.75664600  0.78520500  0.55984700  1
  F  F65  1  0.24335400  0.28520500  0.94015300  1
  F  F66  1  0.24335400  0.21479500  0.44015300  1
  F  F67  1  0.75664600  0.71479500  0.05984700  1
