# generated using pymatgen
data_MgAl2O4
_symmetry_space_group_name_H-M   'P 1'
_cell_length_a   5.77074408
_cell_length_b   5.77074408
_cell_length_c   28.33406200
_cell_angle_alpha   90.00000000
_cell_angle_beta   90.00000000
_cell_angle_gamma   120.00000000
_symmetry_Int_Tables_number   1
_chemical_formula_structural   MgAl2O4
_chemical_formula_sum   'Mg12 Al24 O48'
_cell_volume   817.15247727
_cell_formula_units_Z   12
loop_
 _symmetry_equiv_pos_site_id
 _symmetry_equiv_pos_as_xyz
  1  'x, y, z'
loop_
 _atom_site_type_symbol
 _atom_site_label
 _atom_site_symmetry_multiplicity
 _atom_site_fract_x
 _atom_site_fract_y
 _atom_site_fract_z
 _atom_site_occupancy
  Mg  Mg0  1  0.33333333  0.66666667  0.97710700  1
  Mg  Mg1  1  0.66666667  0.33333333  0.99914900  1
  Mg  Mg2  1  0.66666667  0.33333333  0.81047300  1
  Mg  Mg3  1  0.00000000  0.00000000  0.83211300  1
  Mg  Mg4  1  0.00000000  0.00000000  0.64503100  1
  Mg  Mg5  1  0.33333333  0.66666667  0.47947800  1
  Mg  Mg6  1  0.66666667  0.33333333  0.68897700  1
  Mg  Mg7  1  0.66666667  0.33333333  0.31291100  1
  Mg  Mg8  1  0.00000000  0.00000000  0.52087500  1
  Mg  Mg9  1  0.00000000  0.00000000  0.14592100  1
  Mg  Mg10  1  0.33333333  0.66666667  0.35439200  1
  Mg  Mg11  1  0.66666667  0.33333333  0.18695500  1
  Al  Al12  1  0.82846533  0.65693067  0.91701800  1
  Al  Al13  1  0.82846533  0.17153467  0.91701800  1
  Al  Al14  1  0.16411833  0.32823667  0.74956700  1
  Al  Al15  1  0.34306933  0.17153467  0.91701800  1
  Al  Al16  1  0.16411833  0.83588167  0.74956700  1
  Al  Al17  1  0.33333333  0.66666667  0.85710500  1
  Al  Al18  1  0.33333333  0.66666667  0.66649500  1
  Al  Al19  1  0.50005283  0.00010567  0.58349600  1
  Al  Al20  1  0.67176333  0.83588167  0.74956700  1
  Al  Al21  1  0.50005283  0.49994717  0.58349600  1
  Al  Al22  1  0.66666667  0.33333333  0.50014800  1
  Al  Al23  1  0.83318433  0.66636867  0.41684000  1
  Al  Al24  1  0.99989433  0.49994717  0.58349600  1
  Al  Al25  1  0.83318433  0.16681567  0.41684000  1
  Al  Al26  1  0.66740233  0.83370117  0.25028200  1
  Al  Al27  1  0.00000000  0.00000000  0.33376400  1
  Al  Al28  1  0.16629883  0.33259767  0.25028200  1
  Al  Al29  1  0.33363133  0.16681567  0.41684000  1
  Al  Al30  1  0.16629883  0.83370117  0.25028200  1
  Al  Al31  1  0.00535233  0.50267617  0.08375600  1
  Al  Al32  1  0.33333333  0.66666667  0.16764300  1
  Al  Al33  1  0.49732383  0.99464767  0.08375600  1
  Al  Al34  1  0.49732383  0.50267617  0.08375600  1
  Al  Al35  1  0.00000000  0.00000000  0.02155300  1
  O  O36  1  0.51381833  0.48618167  0.95330500  1
  O  O37  1  0.66666667  0.33333333  0.88003600  1
  O  O38  1  0.51381833  0.02763667  0.95330500  1
  O  O39  1  0.97236333  0.48618167  0.95330500  1
  O  O40  1  0.84639633  0.15360367  0.78538100  1
  O  O41  1  0.68032533  0.84016267  0.87913000  1
  O  O42  1  0.00000000  0.00000000  0.95594500  1
  O  O43  1  0.15983733  0.31967467  0.87913000  1
  O  O44  1  0.00000000  0.00000000  0.71346500  1
  O  O45  1  0.84639633  0.69279267  0.78538100  1
  O  O46  1  0.15983733  0.84016267  0.87913000  1
  O  O47  1  0.30720733  0.15360367  0.78538100  1
  O  O48  1  0.18499133  0.81500867  0.62273100  1
  O  O49  1  0.04176333  0.52088167  0.71124400  1
  O  O50  1  0.47911833  0.95823667  0.71124400  1
  O  O51  1  0.33333333  0.66666667  0.79187600  1
  O  O52  1  0.33333333  0.66666667  0.54853700  1
  O  O53  1  0.18499133  0.36998267  0.62273100  1
  O  O54  1  0.47911833  0.52088167  0.71124400  1
  O  O55  1  0.63001733  0.81500867  0.62273100  1
  O  O56  1  0.51796833  0.48203167  0.45595900  1
  O  O57  1  0.36978933  0.18489467  0.54400300  1
  O  O58  1  0.81510533  0.63021067  0.54400300  1
  O  O59  1  0.51796833  0.03593667  0.45595900  1
  O  O60  1  0.66666667  0.33333333  0.61890100  1
  O  O61  1  0.66666667  0.33333333  0.38180100  1
  O  O62  1  0.81510533  0.18489467  0.54400300  1
  O  O63  1  0.96406333  0.48203167  0.45595900  1
  O  O64  1  0.85134233  0.14865767  0.28915100  1
  O  O65  1  0.70308433  0.85154217  0.37702800  1
  O  O66  1  0.00000000  0.00000000  0.21494000  1
  O  O67  1  0.14845783  0.29691567  0.37702800  1
  O  O68  1  0.00000000  0.00000000  0.45140600  1
  O  O69  1  0.85134233  0.70268467  0.28915100  1
  O  O70  1  0.14845783  0.85154217  0.37702800  1
  O  O71  1  0.29731533  0.14865767  0.28915100  1
  O  O72  1  0.18575933  0.81424067  0.12330200  1
  O  O73  1  0.03554833  0.51777417  0.21037900  1
  O  O74  1  0.48222583  0.96445167  0.21037900  1
  O  O75  1  0.33333333  0.66666667  0.28462000  1
  O  O76  1  0.33333333  0.66666667  0.04805200  1
  O  O77  1  0.18575933  0.37151867  0.12330200  1
  O  O78  1  0.48222583  0.51777417  0.21037900  1
  O  O79  1  0.62848133  0.81424067  0.12330200  1
  O  O80  1  0.33902033  0.16951017  0.04558900  1
  O  O81  1  0.83048983  0.66097967  0.04558900  1
  O  O82  1  0.66666667  0.33333333  0.11584900  1
  O  O83  1  0.83048983  0.16951017  0.04558900  1
