# generated using pymatgen
data_RbNaLi6(SiO4)2
_symmetry_space_group_name_H-M   'P 1'
_cell_length_a   15.87387600
_cell_length_b   6.36285200
_cell_length_c   7.88661880
_cell_angle_alpha   90.00000000
_cell_angle_beta   90.57330018
_cell_angle_gamma   90.00000000
_symmetry_Int_Tables_number   1
_chemical_formula_structural   RbNaLi6(SiO4)2
_chemical_formula_sum   'Rb4 Na4 Li24 Si8 O32'
_cell_volume   796.53325784
_cell_formula_units_Z   4
loop_
 _symmetry_equiv_pos_site_id
 _symmetry_equiv_pos_as_xyz
  1  'x, y, z'
loop_
 _atom_site_type_symbol
 _atom_site_label
 _atom_site_symmetry_multiplicity
 _atom_site_fract_x
 _atom_site_fract_y
 _atom_site_fract_z
 _atom_site_occupancy
  Rb  Rb0  1  0.74461400  0.50000000  0.46894200  1
  Rb  Rb1  1  0.75538600  0.00000000  0.53105800  1
  Rb  Rb2  1  0.24461400  0.00000000  0.46894200  1
  Rb  Rb3  1  0.25538600  0.50000000  0.53105800  1
  Na  Na4  1  0.00000000  0.74807900  0.00000000  1
  Na  Na5  1  0.00000000  0.25192100  0.00000000  1
  Na  Na6  1  0.50000000  0.24807900  0.00000000  1
  Na  Na7  1  0.50000000  0.75192100  0.00000000  1
  Li  Li8  1  0.64053400  0.00000000  0.86600200  1
  Li  Li9  1  0.93058750  0.74587850  0.37350900  1
  Li  Li10  1  0.68700250  0.75786850  0.13372800  1
  Li  Li11  1  0.68700250  0.24213150  0.13372800  1
  Li  Li12  1  0.81299750  0.25786850  0.86627200  1
  Li  Li13  1  0.81299750  0.74213150  0.86627200  1
  Li  Li14  1  0.93320000  0.00000000  0.71740600  1
  Li  Li15  1  0.56941250  0.24587850  0.62649100  1
  Li  Li16  1  0.85946600  0.50000000  0.13399800  1
  Li  Li17  1  0.93058750  0.25412150  0.37350900  1
  Li  Li18  1  0.56941250  0.75412150  0.62649100  1
  Li  Li19  1  0.56680000  0.50000000  0.28259400  1
  Li  Li20  1  0.14053400  0.50000000  0.86600200  1
  Li  Li21  1  0.43058750  0.24587850  0.37350900  1
  Li  Li22  1  0.18700250  0.25786850  0.13372800  1
  Li  Li23  1  0.18700250  0.74213150  0.13372800  1
  Li  Li24  1  0.31299750  0.75786850  0.86627200  1
  Li  Li25  1  0.31299750  0.24213150  0.86627200  1
  Li  Li26  1  0.43320000  0.50000000  0.71740600  1
  Li  Li27  1  0.06941250  0.74587850  0.62649100  1
  Li  Li28  1  0.35946600  0.00000000  0.13399800  1
  Li  Li29  1  0.43058750  0.75412150  0.37350900  1
  Li  Li30  1  0.06941250  0.25412150  0.62649100  1
  Li  Li31  1  0.06680000  0.00000000  0.28259400  1
  Si  Si32  1  0.85396700  0.00000000  0.14044700  1
  Si  Si33  1  0.64603300  0.50000000  0.85955300  1
  Si  Si34  1  0.92927200  0.50000000  0.70833800  1
  Si  Si35  1  0.57072800  0.00000000  0.29166200  1
  Si  Si36  1  0.35396700  0.50000000  0.14044700  1
  Si  Si37  1  0.14603300  0.00000000  0.85955300  1
  Si  Si38  1  0.42927200  0.00000000  0.70833800  1
  Si  Si39  1  0.07072800  0.50000000  0.29166200  1
  O  O40  1  0.80484300  0.21917600  0.19546400  1
  O  O41  1  0.90080200  0.28109600  0.60937600  1
  O  O42  1  0.69515700  0.71917600  0.80453600  1
  O  O43  1  0.86957100  0.00000000  0.93271000  1
  O  O44  1  0.90080200  0.71890400  0.60937600  1
  O  O45  1  0.94702900  0.00000000  0.23888100  1
  O  O46  1  0.53221300  0.00000000  0.74410300  1
  O  O47  1  0.61646900  0.00000000  0.10313600  1
  O  O48  1  0.80484300  0.78082400  0.19546400  1
  O  O49  1  0.96778700  0.50000000  0.25589700  1
  O  O50  1  0.59919800  0.78109600  0.39062400  1
  O  O51  1  0.59919800  0.21890400  0.39062400  1
  O  O52  1  0.63042900  0.50000000  0.06729000  1
  O  O53  1  0.55297100  0.50000000  0.76111900  1
  O  O54  1  0.88353100  0.50000000  0.89686400  1
  O  O55  1  0.69515700  0.28082400  0.80453600  1
  O  O56  1  0.30484300  0.71917600  0.19546400  1
  O  O57  1  0.40080200  0.78109600  0.60937600  1
  O  O58  1  0.19515700  0.21917600  0.80453600  1
  O  O59  1  0.36957100  0.50000000  0.93271000  1
  O  O60  1  0.40080200  0.21890400  0.60937600  1
  O  O61  1  0.44702900  0.50000000  0.23888100  1
  O  O62  1  0.03221300  0.50000000  0.74410300  1
  O  O63  1  0.11646900  0.50000000  0.10313600  1
  O  O64  1  0.30484300  0.28082400  0.19546400  1
  O  O65  1  0.46778700  0.00000000  0.25589700  1
  O  O66  1  0.09919800  0.28109600  0.39062400  1
  O  O67  1  0.09919800  0.71890400  0.39062400  1
  O  O68  1  0.13042900  0.00000000  0.06729000  1
  O  O69  1  0.05297100  0.00000000  0.76111900  1
  O  O70  1  0.38353100  0.00000000  0.89686400  1
  O  O71  1  0.19515700  0.78082400  0.80453600  1
