# generated using pymatgen
data_KSb2PO8
_symmetry_space_group_name_H-M   'P 1'
_cell_length_a   12.51757200
_cell_length_b   7.19509800
_cell_length_c   15.25878583
_cell_angle_alpha   90.00000000
_cell_angle_beta   95.99959059
_cell_angle_gamma   90.00000000
_symmetry_Int_Tables_number   1
_chemical_formula_structural   KSb2PO8
_chemical_formula_sum   'K8 Sb16 P8 O64'
_cell_volume   1366.75749500
_cell_formula_units_Z   8
loop_
 _symmetry_equiv_pos_site_id
 _symmetry_equiv_pos_as_xyz
  1  'x, y, z'
loop_
 _atom_site_type_symbol
 _atom_site_label
 _atom_site_symmetry_multiplicity
 _atom_site_fract_x
 _atom_site_fract_y
 _atom_site_fract_z
 _atom_site_occupancy
  K  K0  1  0.52880400  0.37844800  0.88445300  1
  K  K1  1  0.52880400  0.62155200  0.38445300  1
  K  K2  1  0.97119600  0.12155200  0.11554700  1
  K  K3  1  0.97119600  0.87844800  0.61554700  1
  K  K4  1  0.02880400  0.87844800  0.88445300  1
  K  K5  1  0.02880400  0.12155200  0.38445300  1
  K  K6  1  0.47119600  0.62155200  0.11554700  1
  K  K7  1  0.47119600  0.37844800  0.61554700  1
  Sb  Sb8  1  0.74864700  0.12707500  0.75331900  1
  Sb  Sb9  1  0.82311350  0.63173150  0.06334900  1
  Sb  Sb10  1  0.82311350  0.36826850  0.56334900  1
  Sb  Sb11  1  0.75135300  0.37292500  0.24668100  1
  Sb  Sb12  1  0.67688650  0.86826850  0.93665100  1
  Sb  Sb13  1  0.74864700  0.87292500  0.25331900  1
  Sb  Sb14  1  0.75135300  0.62707500  0.74668100  1
  Sb  Sb15  1  0.67688650  0.13173150  0.43665100  1
  Sb  Sb16  1  0.24864700  0.62707500  0.75331900  1
  Sb  Sb17  1  0.32311350  0.13173150  0.06334900  1
  Sb  Sb18  1  0.32311350  0.86826850  0.56334900  1
  Sb  Sb19  1  0.25135300  0.87292500  0.24668100  1
  Sb  Sb20  1  0.17688650  0.36826850  0.93665100  1
  Sb  Sb21  1  0.24864700  0.37292500  0.25331900  1
  Sb  Sb22  1  0.25135300  0.12707500  0.74668100  1
  Sb  Sb23  1  0.17688650  0.63173150  0.43665100  1
  P  P24  1  0.60105050  0.88744550  0.60589700  1
  P  P25  1  0.89894950  0.38744550  0.89410300  1
  P  P26  1  0.60105050  0.11255450  0.10589700  1
  P  P27  1  0.89894950  0.61255450  0.39410300  1
  P  P28  1  0.10105050  0.38744550  0.60589700  1
  P  P29  1  0.39894950  0.88744550  0.89410300  1
  P  P30  1  0.10105050  0.61255450  0.10589700  1
  P  P31  1  0.39894950  0.11255450  0.39410300  1
  O  O32  1  0.82517650  0.42035850  0.96802600  1
  O  O33  1  0.83417700  0.57959200  0.64506300  1
  O  O34  1  0.87226100  0.19912700  0.84705700  1
  O  O35  1  0.62773900  0.30087300  0.15294300  1
  O  O36  1  0.65985100  0.67986900  0.84126400  1
  O  O37  1  0.61128850  0.05018950  0.67335600  1
  O  O38  1  0.66642600  0.66641800  0.02789500  1
  O  O39  1  0.61128850  0.94981050  0.17335600  1
  O  O40  1  0.88871150  0.44981050  0.32664400  1
  O  O41  1  0.82517650  0.57964150  0.46802600  1
  O  O42  1  0.62773900  0.69912700  0.65294300  1
  O  O43  1  0.68278850  0.62213050  0.24654300  1
  O  O44  1  0.84014900  0.82013100  0.15873600  1
  O  O45  1  0.88871150  0.55018950  0.82664400  1
  O  O46  1  0.83357400  0.83358200  0.97210500  1
  O  O47  1  0.68278850  0.37786950  0.74654300  1
  O  O48  1  0.51458550  0.13228850  0.43783000  1
  O  O49  1  0.83357400  0.16641800  0.47210500  1
  O  O50  1  0.66642600  0.33358200  0.52789500  1
  O  O51  1  0.98541450  0.63228850  0.06217000  1
  O  O52  1  0.81721150  0.12213050  0.25345700  1
  O  O53  1  0.84014900  0.17986900  0.65873600  1
  O  O54  1  0.66582300  0.92040800  0.35493700  1
  O  O55  1  0.51458550  0.86771150  0.93783000  1
  O  O56  1  0.67482350  0.07964150  0.03197400  1
  O  O57  1  0.65985100  0.32013100  0.34126400  1
  O  O58  1  0.67482350  0.92035850  0.53197400  1
  O  O59  1  0.98541450  0.36771150  0.56217000  1
  O  O60  1  0.66582300  0.07959200  0.85493700  1
  O  O61  1  0.87226100  0.80087300  0.34705700  1
  O  O62  1  0.81721150  0.87786950  0.75345700  1
  O  O63  1  0.83417700  0.42040800  0.14506300  1
  O  O64  1  0.32517650  0.92035850  0.96802600  1
  O  O65  1  0.33417700  0.07959200  0.64506300  1
  O  O66  1  0.37226100  0.69912700  0.84705700  1
  O  O67  1  0.12773900  0.80087300  0.15294300  1
  O  O68  1  0.15985100  0.17986900  0.84126400  1
  O  O69  1  0.11128850  0.55018950  0.67335600  1
  O  O70  1  0.16642600  0.16641800  0.02789500  1
  O  O71  1  0.11128850  0.44981050  0.17335600  1
  O  O72  1  0.38871150  0.94981050  0.32664400  1
  O  O73  1  0.32517650  0.07964150  0.46802600  1
  O  O74  1  0.12773900  0.19912700  0.65294300  1
  O  O75  1  0.18278850  0.12213050  0.24654300  1
  O  O76  1  0.34014900  0.32013100  0.15873600  1
  O  O77  1  0.38871150  0.05018950  0.82664400  1
  O  O78  1  0.33357400  0.33358200  0.97210500  1
  O  O79  1  0.18278850  0.87786950  0.74654300  1
  O  O80  1  0.01458550  0.63228850  0.43783000  1
  O  O81  1  0.33357400  0.66641800  0.47210500  1
  O  O82  1  0.16642600  0.83358200  0.52789500  1
  O  O83  1  0.48541450  0.13228850  0.06217000  1
  O  O84  1  0.31721150  0.62213050  0.25345700  1
  O  O85  1  0.34014900  0.67986900  0.65873600  1
  O  O86  1  0.16582300  0.42040800  0.35493700  1
  O  O87  1  0.01458550  0.36771150  0.93783000  1
  O  O88  1  0.17482350  0.57964150  0.03197400  1
  O  O89  1  0.15985100  0.82013100  0.34126400  1
  O  O90  1  0.17482350  0.42035850  0.53197400  1
  O  O91  1  0.48541450  0.86771150  0.56217000  1
  O  O92  1  0.16582300  0.57959200  0.85493700  1
  O  O93  1  0.37226100  0.30087300  0.34705700  1
  O  O94  1  0.31721150  0.37786950  0.75345700  1
  O  O95  1  0.33417700  0.92040800  0.14506300  1
