# generated using pymatgen
data_K2Nd(PO3)5
_symmetry_space_group_name_H-M   'P 1'
_cell_length_a   8.52098400
_cell_length_b   11.74997800
_cell_length_c   13.40959935
_cell_angle_alpha   90.00000000
_cell_angle_beta   90.68821454
_cell_angle_gamma   90.00000000
_symmetry_Int_Tables_number   1
_chemical_formula_structural   K2Nd(PO3)5
_chemical_formula_sum   'K8 Nd4 P20 O60'
_cell_volume   1342.49066652
_cell_formula_units_Z   4
loop_
 _symmetry_equiv_pos_site_id
 _symmetry_equiv_pos_as_xyz
  1  'x, y, z'
loop_
 _atom_site_type_symbol
 _atom_site_label
 _atom_site_symmetry_multiplicity
 _atom_site_fract_x
 _atom_site_fract_y
 _atom_site_fract_z
 _atom_site_occupancy
  K  K0  1  0.32298850  0.88197750  0.94332300  1
  K  K1  1  0.49354700  0.19424300  0.74586100  1
  K  K2  1  0.32298850  0.11802250  0.44332300  1
  K  K3  1  0.49354700  0.80575700  0.24586100  1
  K  K4  1  0.82298850  0.38197750  0.94332300  1
  K  K5  1  0.99354700  0.69424300  0.74586100  1
  K  K6  1  0.82298850  0.61802250  0.44332300  1
  K  K7  1  0.99354700  0.30575700  0.24586100  1
  Nd  Nd8  1  0.50009000  0.59591800  0.74960500  1
  Nd  Nd9  1  0.50009000  0.40408200  0.24960500  1
  Nd  Nd10  1  0.00009000  0.09591800  0.74960500  1
  Nd  Nd11  1  0.00009000  0.90408200  0.24960500  1
  P  P12  1  0.69378750  0.30308350  0.49009700  1
  P  P13  1  0.68870900  0.07513700  0.94103200  1
  P  P14  1  0.33350950  0.89574950  0.67402500  1
  P  P15  1  0.42492550  0.61015050  0.47013500  1
  P  P16  1  0.68870900  0.92486300  0.44103200  1
  P  P17  1  0.67937750  0.87573650  0.65866600  1
  P  P18  1  0.67937750  0.12426350  0.15866600  1
  P  P19  1  0.42492550  0.38984950  0.97013500  1
  P  P20  1  0.33350950  0.10425050  0.17402500  1
  P  P21  1  0.69378750  0.69691650  0.99009700  1
  P  P22  1  0.19378750  0.80308350  0.49009700  1
  P  P23  1  0.18870900  0.57513700  0.94103200  1
  P  P24  1  0.83350950  0.39574950  0.67402500  1
  P  P25  1  0.92492550  0.11015050  0.47013500  1
  P  P26  1  0.18870900  0.42486300  0.44103200  1
  P  P27  1  0.17937750  0.37573650  0.65866600  1
  P  P28  1  0.17937750  0.62426350  0.15866600  1
  P  P29  1  0.92492550  0.88984950  0.97013500  1
  P  P30  1  0.83350950  0.60425050  0.17402500  1
  P  P31  1  0.19378750  0.19691650  0.99009700  1
  O  O32  1  0.80262150  0.03984950  0.18939200  1
  O  O33  1  0.50270350  0.58514250  0.37241800  1
  O  O34  1  0.50270350  0.41485750  0.87241800  1
  O  O35  1  0.51250250  0.94315250  0.66604200  1
  O  O36  1  0.27231550  0.09792550  0.06035700  1
  O  O37  1  0.76722100  0.96158700  0.98349800  1
  O  O38  1  0.57926150  0.23331750  0.54674900  1
  O  O39  1  0.57926150  0.76668250  0.04674900  1
  O  O40  1  0.80262150  0.96015050  0.68939200  1
  O  O41  1  0.24592200  0.01339400  0.22948800  1
  O  O42  1  0.79512450  0.13606850  0.86958600  1
  O  O43  1  0.67514250  0.23689950  0.21162500  1
  O  O44  1  0.51250250  0.05684750  0.16604200  1
  O  O45  1  0.14333350  0.86414750  0.39710900  1
  O  O46  1  0.52600550  0.95108650  0.40715200  1
  O  O47  1  0.69009800  0.84585800  0.54126600  1
  O  O48  1  0.52600550  0.04891350  0.90715200  1
  O  O49  1  0.33532250  0.77574150  0.71263100  1
  O  O50  1  0.67514250  0.76310050  0.71162500  1
  O  O51  1  0.52169900  0.39793700  0.06459600  1
  O  O52  1  0.35209250  0.26457850  0.96014500  1
  O  O53  1  0.27231550  0.90207450  0.56035700  1
  O  O54  1  0.14333350  0.13585250  0.89710900  1
  O  O55  1  0.76722100  0.03841300  0.48349800  1
  O  O56  1  0.69009800  0.15414200  0.04126600  1
  O  O57  1  0.35209250  0.73542150  0.46014500  1
  O  O58  1  0.52169900  0.60206300  0.56459600  1
  O  O59  1  0.79512450  0.86393150  0.36958600  1
  O  O60  1  0.33532250  0.22425850  0.21263100  1
  O  O61  1  0.24592200  0.98660600  0.72948800  1
  O  O62  1  0.30262150  0.53984950  0.18939200  1
  O  O63  1  0.00270350  0.08514250  0.37241800  1
  O  O64  1  0.00270350  0.91485750  0.87241800  1
  O  O65  1  0.01250250  0.44315250  0.66604200  1
  O  O66  1  0.77231550  0.59792550  0.06035700  1
  O  O67  1  0.26722100  0.46158700  0.98349800  1
  O  O68  1  0.07926150  0.73331750  0.54674900  1
  O  O69  1  0.07926150  0.26668250  0.04674900  1
  O  O70  1  0.30262150  0.46015050  0.68939200  1
  O  O71  1  0.74592200  0.51339400  0.22948800  1
  O  O72  1  0.29512450  0.63606850  0.86958600  1
  O  O73  1  0.17514250  0.73689950  0.21162500  1
  O  O74  1  0.01250250  0.55684750  0.16604200  1
  O  O75  1  0.64333350  0.36414750  0.39710900  1
  O  O76  1  0.02600550  0.45108650  0.40715200  1
  O  O77  1  0.19009800  0.34585800  0.54126600  1
  O  O78  1  0.02600550  0.54891350  0.90715200  1
  O  O79  1  0.83532250  0.27574150  0.71263100  1
  O  O80  1  0.17514250  0.26310050  0.71162500  1
  O  O81  1  0.02169900  0.89793700  0.06459600  1
  O  O82  1  0.85209250  0.76457850  0.96014500  1
  O  O83  1  0.77231550  0.40207450  0.56035700  1
  O  O84  1  0.64333350  0.63585250  0.89710900  1
  O  O85  1  0.26722100  0.53841300  0.48349800  1
  O  O86  1  0.19009800  0.65414200  0.04126600  1
  O  O87  1  0.85209250  0.23542150  0.46014500  1
  O  O88  1  0.02169900  0.10206300  0.56459600  1
  O  O89  1  0.29512450  0.36393150  0.36958600  1
  O  O90  1  0.83532250  0.72425850  0.21263100  1
  O  O91  1  0.74592200  0.48660600  0.72948800  1
