# generated using pymatgen
data_Rb2PdN2(ClO2)2
_symmetry_space_group_name_H-M   'P 1'
_cell_length_a   7.85356600
_cell_length_b   15.37732600
_cell_length_c   7.90721900
_cell_angle_alpha   90.00000000
_cell_angle_beta   90.00000000
_cell_angle_gamma   90.00000000
_symmetry_Int_Tables_number   1
_chemical_formula_structural   Rb2PdN2(ClO2)2
_chemical_formula_sum   'Rb8 Pd4 N8 Cl8 O16'
_cell_volume   954.92988854
_cell_formula_units_Z   4
loop_
 _symmetry_equiv_pos_site_id
 _symmetry_equiv_pos_as_xyz
  1  'x, y, z'
loop_
 _atom_site_type_symbol
 _atom_site_label
 _atom_site_symmetry_multiplicity
 _atom_site_fract_x
 _atom_site_fract_y
 _atom_site_fract_z
 _atom_site_occupancy
  Rb  Rb0  1  0.00000000  0.86340800  0.00000000  1
  Rb  Rb1  1  0.00000000  0.63659200  0.50000000  1
  Rb  Rb2  1  0.50000000  0.86340800  0.50000000  1
  Rb  Rb3  1  0.50000000  0.63659200  0.00000000  1
  Rb  Rb4  1  0.50000000  0.36340800  0.00000000  1
  Rb  Rb5  1  0.50000000  0.13659200  0.50000000  1
  Rb  Rb6  1  0.00000000  0.36340800  0.50000000  1
  Rb  Rb7  1  0.00000000  0.13659200  0.00000000  1
  Pd  Pd8  1  0.50000000  0.00000000  0.00000000  1
  Pd  Pd9  1  0.00000000  0.00000000  0.50000000  1
  Pd  Pd10  1  0.00000000  0.50000000  0.00000000  1
  Pd  Pd11  1  0.50000000  0.50000000  0.50000000  1
  N  N12  1  0.50000000  0.63304800  0.50000000  1
  N  N13  1  0.50000000  0.86695200  0.00000000  1
  N  N14  1  0.00000000  0.63304800  0.00000000  1
  N  N15  1  0.00000000  0.86695200  0.50000000  1
  N  N16  1  0.00000000  0.13304800  0.50000000  1
  N  N17  1  0.00000000  0.36695200  0.00000000  1
  N  N18  1  0.50000000  0.13304800  0.00000000  1
  N  N19  1  0.50000000  0.36695200  0.50000000  1
  Cl  Cl20  1  0.28857000  0.00000000  0.78866500  1
  Cl  Cl21  1  0.71143000  0.00000000  0.21133500  1
  Cl  Cl22  1  0.78857000  0.00000000  0.71133500  1
  Cl  Cl23  1  0.21143000  0.00000000  0.28866500  1
  Cl  Cl24  1  0.78857000  0.50000000  0.78866500  1
  Cl  Cl25  1  0.21143000  0.50000000  0.21133500  1
  Cl  Cl26  1  0.28857000  0.50000000  0.71133500  1
  Cl  Cl27  1  0.71143000  0.50000000  0.28866500  1
  O  O28  1  0.39796650  0.82601450  0.09230600  1
  O  O29  1  0.60203350  0.67398550  0.59230600  1
  O  O30  1  0.89796650  0.82601450  0.40769400  1
  O  O31  1  0.39796650  0.67398550  0.40769400  1
  O  O32  1  0.10203350  0.82601450  0.59230600  1
  O  O33  1  0.89796650  0.67398550  0.09230600  1
  O  O34  1  0.10203350  0.67398550  0.90769400  1
  O  O35  1  0.60203350  0.82601450  0.90769400  1
  O  O36  1  0.89796650  0.32601450  0.09230600  1
  O  O37  1  0.10203350  0.17398550  0.59230600  1
  O  O38  1  0.39796650  0.32601450  0.40769400  1
  O  O39  1  0.89796650  0.17398550  0.40769400  1
  O  O40  1  0.60203350  0.32601450  0.59230600  1
  O  O41  1  0.39796650  0.17398550  0.09230600  1
  O  O42  1  0.60203350  0.17398550  0.90769400  1
  O  O43  1  0.10203350  0.32601450  0.90769400  1
