# generated using pymatgen
data_Ga2PbO4
_symmetry_space_group_name_H-M   'P 1'
_cell_length_a   5.33816000
_cell_length_b   9.50907800
_cell_length_c   8.72008111
_cell_angle_alpha   90.00000000
_cell_angle_beta   90.02891702
_cell_angle_gamma   90.00000000
_symmetry_Int_Tables_number   1
_chemical_formula_structural   Ga2PbO4
_chemical_formula_sum   'Ga8 Pb4 O16'
_cell_volume   442.63980488
_cell_formula_units_Z   4
loop_
 _symmetry_equiv_pos_site_id
 _symmetry_equiv_pos_as_xyz
  1  'x, y, z'
loop_
 _atom_site_type_symbol
 _atom_site_label
 _atom_site_symmetry_multiplicity
 _atom_site_fract_x
 _atom_site_fract_y
 _atom_site_fract_z
 _atom_site_occupancy
  Ga  Ga0  1  0.03468600  0.32533700  0.94148900  1
  Ga  Ga1  1  0.03570400  0.33145300  0.54604100  1
  Ga  Ga2  1  0.53570400  0.16854700  0.04604100  1
  Ga  Ga3  1  0.53468600  0.17466300  0.44148900  1
  Ga  Ga4  1  0.53468600  0.82533700  0.94148900  1
  Ga  Ga5  1  0.53570400  0.83145300  0.54604100  1
  Ga  Ga6  1  0.03570400  0.66854700  0.04604100  1
  Ga  Ga7  1  0.03468600  0.67466300  0.44148900  1
  Pb  Pb8  1  0.49791800  0.47038100  0.74349400  1
  Pb  Pb9  1  0.99791800  0.02961900  0.24349400  1
  Pb  Pb10  1  0.99791800  0.97038100  0.74349400  1
  Pb  Pb11  1  0.49791800  0.52961900  0.24349400  1
  O  O12  1  0.17205350  0.49642350  0.99904700  1
  O  O13  1  0.18836300  0.18059600  0.05254900  1
  O  O14  1  0.68836300  0.31940400  0.55254900  1
  O  O15  1  0.67205350  0.00357650  0.49904700  1
  O  O16  1  0.18909400  0.18754700  0.43533600  1
  O  O17  1  0.17318200  0.30995500  0.74347300  1
  O  O18  1  0.67318200  0.19004500  0.24347300  1
  O  O19  1  0.68909400  0.31245300  0.93533600  1
  O  O20  1  0.67205350  0.99642350  0.99904700  1
  O  O21  1  0.68836300  0.68059600  0.05254900  1
  O  O22  1  0.18836300  0.81940400  0.55254900  1
  O  O23  1  0.17205350  0.50357650  0.49904700  1
  O  O24  1  0.68909400  0.68754700  0.43533600  1
  O  O25  1  0.67318200  0.80995500  0.74347300  1
  O  O26  1  0.17318200  0.69004500  0.24347300  1
  O  O27  1  0.18909400  0.81245300  0.93533600  1
