# generated using pymatgen
data_Na3AlF6
_symmetry_space_group_name_H-M   'P 1'
_cell_length_a   5.54432000
_cell_length_b   5.82212800
_cell_length_c   8.05589200
_cell_angle_alpha   90.00000000
_cell_angle_beta   90.00000000
_cell_angle_gamma   90.00000000
_symmetry_Int_Tables_number   1
_chemical_formula_structural   Na3AlF6
_chemical_formula_sum   'Na6 Al2 F12'
_cell_volume   260.04210497
_cell_formula_units_Z   2
loop_
 _symmetry_equiv_pos_site_id
 _symmetry_equiv_pos_as_xyz
  1  'x, y, z'
loop_
 _atom_site_type_symbol
 _atom_site_label
 _atom_site_symmetry_multiplicity
 _atom_site_fract_x
 _atom_site_fract_y
 _atom_site_fract_z
 _atom_site_occupancy
  Na  Na0  1  0.50000000  0.00000000  0.78140400  1
  Na  Na1  1  0.50000000  0.00000000  0.21859600  1
  Na  Na2  1  0.00000000  0.00000000  0.50000000  1
  Na  Na3  1  0.00000000  0.50000000  0.28140400  1
  Na  Na4  1  0.00000000  0.50000000  0.71859600  1
  Na  Na5  1  0.50000000  0.50000000  0.00000000  1
  Al  Al6  1  0.00000000  0.00000000  0.00000000  1
  Al  Al7  1  0.50000000  0.50000000  0.50000000  1
  F  F8  1  0.73571050  0.28207050  0.50000000  1
  F  F9  1  0.26428950  0.28207050  0.50000000  1
  F  F10  1  0.73571050  0.71792950  0.50000000  1
  F  F11  1  0.26428950  0.71792950  0.50000000  1
  F  F12  1  0.00000000  0.00000000  0.77377800  1
  F  F13  1  0.00000000  0.00000000  0.22622200  1
  F  F14  1  0.23571050  0.78207050  0.00000000  1
  F  F15  1  0.76428950  0.78207050  0.00000000  1
  F  F16  1  0.23571050  0.21792950  0.00000000  1
  F  F17  1  0.76428950  0.21792950  0.00000000  1
  F  F18  1  0.50000000  0.50000000  0.27377800  1
  F  F19  1  0.50000000  0.50000000  0.72622200  1
