# generated using pymatgen
data_AuBr
_symmetry_space_group_name_H-M   'P 1'
_cell_length_a   7.48956800
_cell_length_b   7.48956800
_cell_length_c   9.24866800
_cell_angle_alpha   90.00000000
_cell_angle_beta   90.00000000
_cell_angle_gamma   90.00000000
_symmetry_Int_Tables_number   1
_chemical_formula_structural   AuBr
_chemical_formula_sum   'Au8 Br8'
_cell_volume   518.79134993
_cell_formula_units_Z   8
loop_
 _symmetry_equiv_pos_site_id
 _symmetry_equiv_pos_as_xyz
  1  'x, y, z'
loop_
 _atom_site_type_symbol
 _atom_site_label
 _atom_site_symmetry_multiplicity
 _atom_site_fract_x
 _atom_site_fract_y
 _atom_site_fract_z
 _atom_site_occupancy
  Au  Au0  1  0.25000000  0.50000000  0.87500000  1
  Au  Au1  1  0.50000000  0.25000000  0.12500000  1
  Au  Au2  1  0.00000000  0.25000000  0.62500000  1
  Au  Au3  1  0.25000000  0.00000000  0.37500000  1
  Au  Au4  1  0.75000000  0.00000000  0.37500000  1
  Au  Au5  1  0.00000000  0.75000000  0.62500000  1
  Au  Au6  1  0.50000000  0.75000000  0.12500000  1
  Au  Au7  1  0.75000000  0.50000000  0.87500000  1
  Br  Br8  1  0.00000000  0.50000000  0.45399000  1
  Br  Br9  1  0.00000000  0.00000000  0.20399000  1
  Br  Br10  1  0.00000000  0.00000000  0.79601000  1
  Br  Br11  1  0.00000000  0.50000000  0.04601000  1
  Br  Br12  1  0.50000000  0.00000000  0.95399000  1
  Br  Br13  1  0.50000000  0.50000000  0.70399000  1
  Br  Br14  1  0.50000000  0.50000000  0.29601000  1
  Br  Br15  1  0.50000000  0.00000000  0.54601000  1
