# generated using pymatgen
data_K3Nb2Cu3S8
_symmetry_space_group_name_H-M   'P 1'
_cell_length_a   23.85472600
_cell_length_b   5.57363400
_cell_length_c   14.52351439
_cell_angle_alpha   90.00000000
_cell_angle_beta   120.33108832
_cell_angle_gamma   90.00000000
_symmetry_Int_Tables_number   1
_chemical_formula_structural   K3Nb2Cu3S8
_chemical_formula_sum   'K12 Nb8 Cu12 S32'
_cell_volume   1666.69686780
_cell_formula_units_Z   4
loop_
 _symmetry_equiv_pos_site_id
 _symmetry_equiv_pos_as_xyz
  1  'x, y, z'
loop_
 _atom_site_type_symbol
 _atom_site_label
 _atom_site_symmetry_multiplicity
 _atom_site_fract_x
 _atom_site_fract_y
 _atom_site_fract_z
 _atom_site_occupancy
  K  K0  1  0.19284750  0.53986150  0.59466800  1
  K  K1  1  0.30715250  0.03986150  0.90533200  1
  K  K2  1  0.80715250  0.46013850  0.40533200  1
  K  K3  1  0.00000000  0.00000000  0.50000000  1
  K  K4  1  0.00000000  0.00000000  0.00000000  1
  K  K5  1  0.69284750  0.96013850  0.09466800  1
  K  K6  1  0.69284750  0.03986150  0.59466800  1
  K  K7  1  0.80715250  0.53986150  0.90533200  1
  K  K8  1  0.30715250  0.96013850  0.40533200  1
  K  K9  1  0.50000000  0.50000000  0.50000000  1
  K  K10  1  0.50000000  0.50000000  0.00000000  1
  K  K11  1  0.19284750  0.46013850  0.09466800  1
  Nb  Nb12  1  0.87473350  0.28283850  0.72074200  1
  Nb  Nb13  1  0.87473350  0.71716150  0.22074200  1
  Nb  Nb14  1  0.12526650  0.28283850  0.77925800  1
  Nb  Nb15  1  0.12526650  0.71716150  0.27925800  1
  Nb  Nb16  1  0.37473350  0.78283850  0.72074200  1
  Nb  Nb17  1  0.37473350  0.21716150  0.22074200  1
  Nb  Nb18  1  0.62526650  0.78283850  0.77925800  1
  Nb  Nb19  1  0.62526650  0.21716150  0.27925800  1
  Cu  Cu20  1  0.87799350  0.78248850  0.71992400  1
  Cu  Cu21  1  0.12200650  0.21751150  0.28007600  1
  Cu  Cu22  1  0.87799350  0.21751150  0.21992400  1
  Cu  Cu23  1  0.00000000  0.72125900  0.25000000  1
  Cu  Cu24  1  0.12200650  0.78248850  0.78007600  1
  Cu  Cu25  1  0.00000000  0.27874100  0.75000000  1
  Cu  Cu26  1  0.37799350  0.28248850  0.71992400  1
  Cu  Cu27  1  0.62200650  0.71751150  0.28007600  1
  Cu  Cu28  1  0.37799350  0.71751150  0.21992400  1
  Cu  Cu29  1  0.50000000  0.22125900  0.25000000  1
  Cu  Cu30  1  0.62200650  0.28248850  0.78007600  1
  Cu  Cu31  1  0.50000000  0.77874100  0.75000000  1
  S  S32  1  0.84397050  0.97029250  0.31335600  1
  S  S33  1  0.70857150  0.96750950  0.38988500  1
  S  S34  1  0.96152700  0.52068200  0.83854000  1
  S  S35  1  0.34397050  0.52970750  0.81335600  1
  S  S36  1  0.65602950  0.47029250  0.18664400  1
  S  S37  1  0.91051450  0.95403650  0.12893600  1
  S  S38  1  0.96152700  0.47931800  0.33854000  1
  S  S39  1  0.03847300  0.52068200  0.66146000  1
  S  S40  1  0.91051450  0.04596350  0.62893600  1
  S  S41  1  0.20857150  0.53249050  0.88988500  1
  S  S42  1  0.03847300  0.47931800  0.16146000  1
  S  S43  1  0.29142850  0.03249050  0.61011500  1
  S  S44  1  0.15602950  0.02970750  0.68664400  1
  S  S45  1  0.79142850  0.46750950  0.11011500  1
  S  S46  1  0.08948550  0.95403650  0.37106400  1
  S  S47  1  0.08948550  0.04596350  0.87106400  1
  S  S48  1  0.34397050  0.47029250  0.31335600  1
  S  S49  1  0.20857150  0.46750950  0.38988500  1
  S  S50  1  0.46152700  0.02068200  0.83854000  1
  S  S51  1  0.84397050  0.02970750  0.81335600  1
  S  S52  1  0.15602950  0.97029250  0.18664400  1
  S  S53  1  0.41051450  0.45403650  0.12893600  1
  S  S54  1  0.46152700  0.97931800  0.33854000  1
  S  S55  1  0.53847300  0.02068200  0.66146000  1
  S  S56  1  0.41051450  0.54596350  0.62893600  1
  S  S57  1  0.70857150  0.03249050  0.88988500  1
  S  S58  1  0.53847300  0.97931800  0.16146000  1
  S  S59  1  0.79142850  0.53249050  0.61011500  1
  S  S60  1  0.65602950  0.52970750  0.68664400  1
  S  S61  1  0.29142850  0.96750950  0.11011500  1
  S  S62  1  0.58948550  0.45403650  0.37106400  1
  S  S63  1  0.58948550  0.54596350  0.87106400  1
