# generated using pymatgen
data_K2CuSbS3
_symmetry_space_group_name_H-M   'P 1'
_cell_length_a   6.35531200
_cell_length_b   18.15629900
_cell_length_c   7.56179049
_cell_angle_alpha   90.00000000
_cell_angle_beta   120.35513484
_cell_angle_gamma   90.00000000
_symmetry_Int_Tables_number   1
_chemical_formula_structural   K2CuSbS3
_chemical_formula_sum   'K8 Cu4 Sb4 S12'
_cell_volume   752.92925077
_cell_formula_units_Z   4
loop_
 _symmetry_equiv_pos_site_id
 _symmetry_equiv_pos_as_xyz
  1  'x, y, z'
loop_
 _atom_site_type_symbol
 _atom_site_label
 _atom_site_symmetry_multiplicity
 _atom_site_fract_x
 _atom_site_fract_y
 _atom_site_fract_z
 _atom_site_occupancy
  K  K0  1  0.08326600  0.11895200  0.64543100  1
  K  K1  1  0.08326600  0.38104800  0.14543100  1
  K  K2  1  0.64433100  0.54220800  0.28960200  1
  K  K3  1  0.64433100  0.95779200  0.78960200  1
  K  K4  1  0.35566900  0.04220800  0.21039800  1
  K  K5  1  0.91673400  0.61895200  0.85456900  1
  K  K6  1  0.91673400  0.88104800  0.35456900  1
  K  K7  1  0.35566900  0.45779200  0.71039800  1
  Cu  Cu8  1  0.61716600  0.77910900  0.56887000  1
  Cu  Cu9  1  0.38283400  0.22089100  0.43113000  1
  Cu  Cu10  1  0.38283400  0.27910900  0.93113000  1
  Cu  Cu11  1  0.61716600  0.72089100  0.06887000  1
  Sb  Sb12  1  0.23666700  0.82343000  0.00451400  1
  Sb  Sb13  1  0.76333300  0.32343000  0.49548600  1
  Sb  Sb14  1  0.76333300  0.17657000  0.99548600  1
  Sb  Sb15  1  0.23666700  0.67657000  0.50451400  1
  S  S16  1  0.84033900  0.43733100  0.68561700  1
  S  S17  1  0.40939100  0.62614400  0.85426500  1
  S  S18  1  0.84033900  0.06266900  0.18561700  1
  S  S19  1  0.15966100  0.56266900  0.31438300  1
  S  S20  1  0.80048900  0.79019000  0.91645400  1
  S  S21  1  0.59060900  0.12614400  0.64573500  1
  S  S22  1  0.40939100  0.87385600  0.35426500  1
  S  S23  1  0.80048900  0.70981000  0.41645400  1
  S  S24  1  0.15966100  0.93733100  0.81438300  1
  S  S25  1  0.19951100  0.20981000  0.08354600  1
  S  S26  1  0.59060900  0.37385600  0.14573500  1
  S  S27  1  0.19951100  0.29019000  0.58354600  1
