# generated using pymatgen
data_SiO2
_symmetry_space_group_name_H-M   'P 1'
_cell_length_a   17.67482800
_cell_length_b   17.72146400
_cell_length_c   17.82315400
_cell_angle_alpha   90.00000000
_cell_angle_beta   90.00000000
_cell_angle_gamma   90.00000000
_symmetry_Int_Tables_number   1
_chemical_formula_structural   SiO2
_chemical_formula_sum   'Si32 O64'
_cell_volume   5582.63652484
_cell_formula_units_Z   32
loop_
 _symmetry_equiv_pos_site_id
 _symmetry_equiv_pos_as_xyz
  1  'x, y, z'
loop_
 _atom_site_type_symbol
 _atom_site_label
 _atom_site_symmetry_multiplicity
 _atom_site_fract_x
 _atom_site_fract_y
 _atom_site_fract_z
 _atom_site_occupancy
  Si  Si0  1  0.00000000  0.53636200  0.05522300  1
  Si  Si1  1  0.07987750  0.37662500  0.67083100  1
  Si  Si2  1  0.42012250  0.87662500  0.32916900  1
  Si  Si3  1  0.42012250  0.87662500  0.17083100  1
  Si  Si4  1  0.92012250  0.62337500  0.32916900  1
  Si  Si5  1  0.07987750  0.37662500  0.82916900  1
  Si  Si6  1  0.80487850  0.71268800  0.25000000  1
  Si  Si7  1  0.07987750  0.62337500  0.32916900  1
  Si  Si8  1  0.50000000  0.03636200  0.94477700  1
  Si  Si9  1  0.19512150  0.28731200  0.75000000  1
  Si  Si10  1  0.19512150  0.71268800  0.25000000  1
  Si  Si11  1  0.92012250  0.62337500  0.17083100  1
  Si  Si12  1  0.30487850  0.78731200  0.25000000  1
  Si  Si13  1  0.50000000  0.96363800  0.05522300  1
  Si  Si14  1  0.00000000  0.46363800  0.94477700  1
  Si  Si15  1  0.07987750  0.62337500  0.17083100  1
  Si  Si16  1  0.50000000  0.03636200  0.55522300  1
  Si  Si17  1  0.57987750  0.87662500  0.17083100  1
  Si  Si18  1  0.92012250  0.37662500  0.82916900  1
  Si  Si19  1  0.92012250  0.37662500  0.67083100  1
  Si  Si20  1  0.42012250  0.12337500  0.82916900  1
  Si  Si21  1  0.57987750  0.87662500  0.32916900  1
  Si  Si22  1  0.30487850  0.21268800  0.75000000  1
  Si  Si23  1  0.57987750  0.12337500  0.82916900  1
  Si  Si24  1  0.00000000  0.53636200  0.44477700  1
  Si  Si25  1  0.69512150  0.78731200  0.25000000  1
  Si  Si26  1  0.69512150  0.21268800  0.75000000  1
  Si  Si27  1  0.42012250  0.12337500  0.67083100  1
  Si  Si28  1  0.80487850  0.28731200  0.75000000  1
  Si  Si29  1  0.00000000  0.46363800  0.55522300  1
  Si  Si30  1  0.50000000  0.96363800  0.44477700  1
  Si  Si31  1  0.57987750  0.12337500  0.67083100  1
  O  O32  1  0.34721200  0.81986150  0.17434850  1
  O  O33  1  0.84721200  0.68013850  0.32565150  1
  O  O34  1  0.42371200  0.93358350  0.09864450  1
  O  O35  1  0.28833800  0.69638050  0.25000000  1
  O  O36  1  0.92371200  0.43358350  0.90135550  1
  O  O37  1  0.34721200  0.81986150  0.32565150  1
  O  O38  1  0.15278800  0.68013850  0.32565150  1
  O  O39  1  0.84721200  0.68013850  0.17434850  1
  O  O40  1  0.50000000  0.82835800  0.16782200  1
  O  O41  1  0.15278800  0.31986150  0.67434850  1
  O  O42  1  0.00000000  0.32835800  0.83217800  1
  O  O43  1  0.21166200  0.80361950  0.25000000  1
  O  O44  1  0.71166200  0.69638050  0.25000000  1
  O  O45  1  0.00000000  0.55547700  0.96322300  1
  O  O46  1  0.07628800  0.43358350  0.90135550  1
  O  O47  1  0.57628800  0.93358350  0.09864450  1
  O  O48  1  0.50000000  0.05547700  0.03677700  1
  O  O49  1  0.92371200  0.56641650  0.09864450  1
  O  O50  1  0.41717800  0.92488650  0.25000000  1
  O  O51  1  0.28833800  0.30361950  0.75000000  1
  O  O52  1  0.15278800  0.68013850  0.17434850  1
  O  O53  1  0.00000000  0.67164200  0.33217800  1
  O  O54  1  0.42371200  0.06641650  0.90135550  1
  O  O55  1  0.57628800  0.06641650  0.90135550  1
  O  O56  1  0.07628800  0.56641650  0.09864450  1
  O  O57  1  0.00000000  0.44452300  0.03677700  1
  O  O58  1  0.08282200  0.57511350  0.25000000  1
  O  O59  1  0.00000000  0.67164200  0.16782200  1
  O  O60  1  0.15278800  0.31986150  0.82565150  1
  O  O61  1  0.08282200  0.42488650  0.75000000  1
  O  O62  1  0.91717800  0.57511350  0.25000000  1
  O  O63  1  0.50000000  0.94452300  0.96322300  1
  O  O64  1  0.84721200  0.31986150  0.67434850  1
  O  O65  1  0.34721200  0.18013850  0.82565150  1
  O  O66  1  0.92371200  0.43358350  0.59864450  1
  O  O67  1  0.78833800  0.19638050  0.75000000  1
  O  O68  1  0.42371200  0.93358350  0.40135550  1
  O  O69  1  0.84721200  0.31986150  0.82565150  1
  O  O70  1  0.65278800  0.18013850  0.82565150  1
  O  O71  1  0.34721200  0.18013850  0.67434850  1
  O  O72  1  0.00000000  0.32835800  0.66782200  1
  O  O73  1  0.65278800  0.81986150  0.17434850  1
  O  O74  1  0.50000000  0.82835800  0.33217800  1
  O  O75  1  0.71166200  0.30361950  0.75000000  1
  O  O76  1  0.21166200  0.19638050  0.75000000  1
  O  O77  1  0.50000000  0.05547700  0.46322300  1
  O  O78  1  0.57628800  0.93358350  0.40135550  1
  O  O79  1  0.07628800  0.43358350  0.59864450  1
  O  O80  1  0.00000000  0.55547700  0.53677700  1
  O  O81  1  0.42371200  0.06641650  0.59864450  1
  O  O82  1  0.91717800  0.42488650  0.75000000  1
  O  O83  1  0.78833800  0.80361950  0.25000000  1
  O  O84  1  0.65278800  0.18013850  0.67434850  1
  O  O85  1  0.50000000  0.17164200  0.83217800  1
  O  O86  1  0.92371200  0.56641650  0.40135550  1
  O  O87  1  0.07628800  0.56641650  0.40135550  1
  O  O88  1  0.57628800  0.06641650  0.59864450  1
  O  O89  1  0.50000000  0.94452300  0.53677700  1
  O  O90  1  0.58282200  0.07511350  0.75000000  1
  O  O91  1  0.50000000  0.17164200  0.66782200  1
  O  O92  1  0.65278800  0.81986150  0.32565150  1
  O  O93  1  0.58282200  0.92488650  0.25000000  1
  O  O94  1  0.41717800  0.07511350  0.75000000  1
  O  O95  1  0.00000000  0.44452300  0.46322300  1
