# generated using pymatgen
data_K2Ce(Si2O5)3
_symmetry_space_group_name_H-M   'P 1'
_cell_length_a   17.87147200
_cell_length_b   8.83779400
_cell_length_c   12.01320511
_cell_angle_alpha   90.00000000
_cell_angle_beta   132.18294631
_cell_angle_gamma   90.00000000
_symmetry_Int_Tables_number   1
_chemical_formula_structural   K2Ce(Si2O5)3
_chemical_formula_sum   'K8 Ce4 Si24 O60'
_cell_volume   1405.99551304
_cell_formula_units_Z   4
loop_
 _symmetry_equiv_pos_site_id
 _symmetry_equiv_pos_as_xyz
  1  'x, y, z'
loop_
 _atom_site_type_symbol
 _atom_site_label
 _atom_site_symmetry_multiplicity
 _atom_site_fract_x
 _atom_site_fract_y
 _atom_site_fract_z
 _atom_site_occupancy
  K  K0  1  0.42161850  0.67557350  0.49873300  1
  K  K1  1  0.07838150  0.17557350  0.00126700  1
  K  K2  1  0.57838150  0.32442650  0.50126700  1
  K  K3  1  0.92161850  0.82442650  0.99873300  1
  K  K4  1  0.92161850  0.17557350  0.49873300  1
  K  K5  1  0.57838150  0.67557350  0.00126700  1
  K  K6  1  0.07838150  0.82442650  0.50126700  1
  K  K7  1  0.42161850  0.32442650  0.99873300  1
  Ce  Ce8  1  0.50000000  0.33283100  0.75000000  1
  Ce  Ce9  1  0.50000000  0.66716900  0.25000000  1
  Ce  Ce10  1  0.00000000  0.83283100  0.75000000  1
  Ce  Ce11  1  0.00000000  0.16716900  0.25000000  1
  Si  Si12  1  0.27494450  0.47155650  0.12288600  1
  Si  Si13  1  0.22505550  0.97155650  0.37711400  1
  Si  Si14  1  0.40446600  0.03200400  0.22579800  1
  Si  Si15  1  0.59553400  0.96799600  0.77420200  1
  Si  Si16  1  0.33604550  0.23733150  0.35554400  1
  Si  Si17  1  0.77494450  0.02844350  0.62288600  1
  Si  Si18  1  0.40446600  0.96799600  0.72579800  1
  Si  Si19  1  0.66395450  0.76266850  0.64445600  1
  Si  Si20  1  0.59553400  0.03200400  0.27420200  1
  Si  Si21  1  0.83604550  0.26266850  0.85554400  1
  Si  Si22  1  0.72505550  0.52844350  0.87711400  1
  Si  Si23  1  0.16395450  0.73733150  0.14445600  1
  Si  Si24  1  0.77494450  0.97155650  0.12288600  1
  Si  Si25  1  0.72505550  0.47155650  0.37711400  1
  Si  Si26  1  0.90446600  0.53200400  0.22579800  1
  Si  Si27  1  0.09553400  0.46799600  0.77420200  1
  Si  Si28  1  0.83604550  0.73733150  0.35554400  1
  Si  Si29  1  0.27494450  0.52844350  0.62288600  1
  Si  Si30  1  0.90446600  0.46799600  0.72579800  1
  Si  Si31  1  0.16395450  0.26266850  0.64445600  1
  Si  Si32  1  0.09553400  0.53200400  0.27420200  1
  Si  Si33  1  0.33604550  0.76266850  0.85554400  1
  Si  Si34  1  0.22505550  0.02844350  0.87711400  1
  Si  Si35  1  0.66395450  0.23733150  0.14445600  1
  O  O36  1  0.29884000  0.07369700  0.05544600  1
  O  O37  1  0.09532950  0.62665850  0.15654000  1
  O  O38  1  0.90467050  0.37334150  0.84346000  1
  O  O39  1  0.50000000  0.89302400  0.75000000  1
  O  O40  1  0.40467050  0.12665850  0.34346000  1
  O  O41  1  0.74240400  0.66416300  0.80141100  1
  O  O42  1  0.50000000  0.10697600  0.25000000  1
  O  O43  1  0.26391100  0.13056500  0.36061500  1
  O  O44  1  0.58023900  0.14724300  0.74338200  1
  O  O45  1  0.73608900  0.86943500  0.63938500  1
  O  O46  1  0.41976100  0.14724300  0.75661800  1
  O  O47  1  0.25759600  0.33583700  0.19858900  1
  O  O48  1  0.75759600  0.16416300  0.69858900  1
  O  O49  1  0.60765950  0.51581250  0.79503200  1
  O  O50  1  0.70116000  0.07369700  0.44455400  1
  O  O51  1  0.29884000  0.92630300  0.55544600  1
  O  O52  1  0.59532950  0.87334150  0.65654000  1
  O  O53  1  0.76391100  0.36943500  0.86061500  1
  O  O54  1  0.40980200  0.34777700  0.49852500  1
  O  O55  1  0.58023900  0.85275700  0.24338200  1
  O  O56  1  0.39234050  0.48418750  0.20496800  1
  O  O57  1  0.09019800  0.84777700  0.00147500  1
  O  O58  1  0.39234050  0.51581250  0.70496800  1
  O  O59  1  0.60765950  0.48418750  0.29503200  1
  O  O60  1  0.90980200  0.15222300  0.99852500  1
  O  O61  1  0.24240400  0.83583700  0.30141100  1
  O  O62  1  0.41976100  0.85275700  0.25661800  1
  O  O63  1  0.59019800  0.65222300  0.50147500  1
  O  O64  1  0.23608900  0.63056500  0.13938500  1
  O  O65  1  0.70116000  0.92630300  0.94455400  1
  O  O66  1  0.79884000  0.57369700  0.05544600  1
  O  O67  1  0.59532950  0.12665850  0.15654000  1
  O  O68  1  0.40467050  0.87334150  0.84346000  1
  O  O69  1  0.00000000  0.39302400  0.75000000  1
  O  O70  1  0.90467050  0.62665850  0.34346000  1
  O  O71  1  0.24240400  0.16416300  0.80141100  1
  O  O72  1  0.00000000  0.60697600  0.25000000  1
  O  O73  1  0.76391100  0.63056500  0.36061500  1
  O  O74  1  0.08023900  0.64724300  0.74338200  1
  O  O75  1  0.23608900  0.36943500  0.63938500  1
  O  O76  1  0.91976100  0.64724300  0.75661800  1
  O  O77  1  0.75759600  0.83583700  0.19858900  1
  O  O78  1  0.25759600  0.66416300  0.69858900  1
  O  O79  1  0.10765950  0.01581250  0.79503200  1
  O  O80  1  0.20116000  0.57369700  0.44455400  1
  O  O81  1  0.79884000  0.42630300  0.55544600  1
  O  O82  1  0.09532950  0.37334150  0.65654000  1
  O  O83  1  0.26391100  0.86943500  0.86061500  1
  O  O84  1  0.90980200  0.84777700  0.49852500  1
  O  O85  1  0.08023900  0.35275700  0.24338200  1
  O  O86  1  0.89234050  0.98418750  0.20496800  1
  O  O87  1  0.59019800  0.34777700  0.00147500  1
  O  O88  1  0.89234050  0.01581250  0.70496800  1
  O  O89  1  0.10765950  0.98418750  0.29503200  1
  O  O90  1  0.40980200  0.65222300  0.99852500  1
  O  O91  1  0.74240400  0.33583700  0.30141100  1
  O  O92  1  0.91976100  0.35275700  0.25661800  1
  O  O93  1  0.09019800  0.15222300  0.50147500  1
  O  O94  1  0.73608900  0.13056500  0.13938500  1
  O  O95  1  0.20116000  0.42630300  0.94455400  1
