# generated using pymatgen
data_Yb11GaSb9
_symmetry_space_group_name_H-M   'P 1'
_cell_length_a   11.81453400
_cell_length_b   12.39384800
_cell_length_c   16.77665600
_cell_angle_alpha   90.00000000
_cell_angle_beta   90.00000000
_cell_angle_gamma   90.00000000
_symmetry_Int_Tables_number   1
_chemical_formula_structural   Yb11GaSb9
_chemical_formula_sum   'Yb44 Ga4 Sb36'
_cell_volume   2456.56444380
_cell_formula_units_Z   4
loop_
 _symmetry_equiv_pos_site_id
 _symmetry_equiv_pos_as_xyz
  1  'x, y, z'
loop_
 _atom_site_type_symbol
 _atom_site_label
 _atom_site_symmetry_multiplicity
 _atom_site_fract_x
 _atom_site_fract_y
 _atom_site_fract_z
 _atom_site_occupancy
  Yb  Yb0  1  0.31544850  0.93981250  0.87096150  1
  Yb  Yb1  1  0.00000000  0.00000000  0.67710200  1
  Yb  Yb2  1  0.41100700  0.77164900  0.34108300  1
  Yb  Yb3  1  0.68455150  0.06018750  0.87096150  1
  Yb  Yb4  1  0.16069900  0.82867500  0.49869000  1
  Yb  Yb5  1  0.08899300  0.27164900  0.34108300  1
  Yb  Yb6  1  0.33930100  0.32867500  0.49869000  1
  Yb  Yb7  1  0.83930100  0.17132500  0.49869000  1
  Yb  Yb8  1  0.00000000  0.00000000  0.17710200  1
  Yb  Yb9  1  0.06929900  0.27686500  0.65907300  1
  Yb  Yb10  1  0.31544850  0.06018750  0.37096150  1
  Yb  Yb11  1  0.68352300  0.94669600  0.62824800  1
  Yb  Yb12  1  0.58899300  0.22835100  0.34108300  1
  Yb  Yb13  1  0.31647700  0.05330400  0.62824800  1
  Yb  Yb14  1  0.56929900  0.22313500  0.65907300  1
  Yb  Yb15  1  0.66069900  0.67132500  0.49869000  1
  Yb  Yb16  1  0.68352300  0.05330400  0.12824800  1
  Yb  Yb17  1  0.68455150  0.93981250  0.37096150  1
  Yb  Yb18  1  0.93070100  0.72313500  0.65907300  1
  Yb  Yb19  1  0.91100700  0.72835100  0.34108300  1
  Yb  Yb20  1  0.43070100  0.77686500  0.65907300  1
  Yb  Yb21  1  0.31647700  0.94669600  0.12824800  1
  Yb  Yb22  1  0.81544850  0.43981250  0.37096150  1
  Yb  Yb23  1  0.50000000  0.50000000  0.17710200  1
  Yb  Yb24  1  0.91100700  0.27164900  0.84108300  1
  Yb  Yb25  1  0.18455150  0.56018750  0.37096150  1
  Yb  Yb26  1  0.66069900  0.32867500  0.99869000  1
  Yb  Yb27  1  0.58899300  0.77164900  0.84108300  1
  Yb  Yb28  1  0.83930100  0.82867500  0.99869000  1
  Yb  Yb29  1  0.33930100  0.67132500  0.99869000  1
  Yb  Yb30  1  0.50000000  0.50000000  0.67710200  1
  Yb  Yb31  1  0.56929900  0.77686500  0.15907300  1
  Yb  Yb32  1  0.81544850  0.56018750  0.87096150  1
  Yb  Yb33  1  0.18352300  0.44669600  0.12824800  1
  Yb  Yb34  1  0.08899300  0.72835100  0.84108300  1
  Yb  Yb35  1  0.81647700  0.55330400  0.12824800  1
  Yb  Yb36  1  0.06929900  0.72313500  0.15907300  1
  Yb  Yb37  1  0.16069900  0.17132500  0.99869000  1
  Yb  Yb38  1  0.18352300  0.55330400  0.62824800  1
  Yb  Yb39  1  0.18455150  0.43981250  0.87096150  1
  Yb  Yb40  1  0.43070100  0.22313500  0.15907300  1
  Yb  Yb41  1  0.41100700  0.22835100  0.84108300  1
  Yb  Yb42  1  0.93070100  0.27686500  0.15907300  1
  Yb  Yb43  1  0.81647700  0.44669600  0.62824800  1
  Ga  Ga44  1  0.00000000  0.00000000  0.39221400  1
  Ga  Ga45  1  0.00000000  0.00000000  0.89221400  1
  Ga  Ga46  1  0.50000000  0.50000000  0.89221400  1
  Ga  Ga47  1  0.50000000  0.50000000  0.39221400  1
  Sb  Sb48  1  0.37083450  0.61406850  0.50354550  1
  Sb  Sb49  1  0.85185700  0.13875000  0.30981000  1
  Sb  Sb50  1  0.12916550  0.11406850  0.50354550  1
  Sb  Sb51  1  0.53562000  0.11045200  0.49720100  1
  Sb  Sb52  1  0.50000000  0.00000000  0.75161200  1
  Sb  Sb53  1  0.46438000  0.88954800  0.49720100  1
  Sb  Sb54  1  0.85185700  0.86125000  0.80981000  1
  Sb  Sb55  1  0.50000000  0.00000000  0.25161200  1
  Sb  Sb56  1  0.14814300  0.86125000  0.30981000  1
  Sb  Sb57  1  0.03562000  0.38954800  0.49720100  1
  Sb  Sb58  1  0.62916550  0.38593150  0.50354550  1
  Sb  Sb59  1  0.14814300  0.13875000  0.80981000  1
  Sb  Sb60  1  0.96438000  0.61045200  0.49720100  1
  Sb  Sb61  1  0.82067050  0.17818650  0.68238050  1
  Sb  Sb62  1  0.17932950  0.17818650  0.18238050  1
  Sb  Sb63  1  0.82067050  0.82181350  0.18238050  1
  Sb  Sb64  1  0.87083450  0.88593150  0.50354550  1
  Sb  Sb65  1  0.17932950  0.82181350  0.68238050  1
  Sb  Sb66  1  0.87083450  0.11406850  0.00354550  1
  Sb  Sb67  1  0.35185700  0.63875000  0.80981000  1
  Sb  Sb68  1  0.62916550  0.61406850  0.00354550  1
  Sb  Sb69  1  0.03562000  0.61045200  0.99720100  1
  Sb  Sb70  1  0.00000000  0.50000000  0.25161200  1
  Sb  Sb71  1  0.96438000  0.38954800  0.99720100  1
  Sb  Sb72  1  0.35185700  0.36125000  0.30981000  1
  Sb  Sb73  1  0.00000000  0.50000000  0.75161200  1
  Sb  Sb74  1  0.64814300  0.36125000  0.80981000  1
  Sb  Sb75  1  0.53562000  0.88954800  0.99720100  1
  Sb  Sb76  1  0.12916550  0.88593150  0.00354550  1
  Sb  Sb77  1  0.64814300  0.63875000  0.30981000  1
  Sb  Sb78  1  0.46438000  0.11045200  0.99720100  1
  Sb  Sb79  1  0.32067050  0.67818650  0.18238050  1
  Sb  Sb80  1  0.67932950  0.67818650  0.68238050  1
  Sb  Sb81  1  0.32067050  0.32181350  0.68238050  1
  Sb  Sb82  1  0.37083450  0.38593150  0.00354550  1
  Sb  Sb83  1  0.67932950  0.32181350  0.18238050  1
