# generated using pymatgen
data_LaSc3(BO3)4
_symmetry_space_group_name_H-M   'P 1'
_cell_length_a   7.80949400
_cell_length_b   9.93940800
_cell_length_c   12.18716568
_cell_angle_alpha   90.00000000
_cell_angle_beta   105.54177926
_cell_angle_gamma   90.00000000
_symmetry_Int_Tables_number   1
_chemical_formula_structural   LaSc3(BO3)4
_chemical_formula_sum   'La4 Sc12 B16 O48'
_cell_volume   911.39931464
_cell_formula_units_Z   4
loop_
 _symmetry_equiv_pos_site_id
 _symmetry_equiv_pos_as_xyz
  1  'x, y, z'
loop_
 _atom_site_type_symbol
 _atom_site_label
 _atom_site_symmetry_multiplicity
 _atom_site_fract_x
 _atom_site_fract_y
 _atom_site_fract_z
 _atom_site_occupancy
  La  La0  1  0.78446100  0.96434500  0.74415200  1
  La  La1  1  0.78446100  0.03565500  0.24415200  1
  La  La2  1  0.28446100  0.46434500  0.74415200  1
  La  La3  1  0.28446100  0.53565500  0.24415200  1
  Sc  Sc4  1  0.28919400  0.07522800  0.24416700  1
  Sc  Sc5  1  0.34206050  0.24819350  0.02025000  1
  Sc  Sc6  1  0.74555700  0.24874800  0.96967800  1
  Sc  Sc7  1  0.28919400  0.92477200  0.74416700  1
  Sc  Sc8  1  0.34206050  0.75180650  0.52025000  1
  Sc  Sc9  1  0.74555700  0.75125200  0.46967800  1
  Sc  Sc10  1  0.78919400  0.57522800  0.24416700  1
  Sc  Sc11  1  0.84206050  0.74819350  0.02025000  1
  Sc  Sc12  1  0.24555700  0.74874800  0.96967800  1
  Sc  Sc13  1  0.78919400  0.42477200  0.74416700  1
  Sc  Sc14  1  0.84206050  0.25180650  0.52025000  1
  Sc  Sc15  1  0.24555700  0.25125200  0.46967800  1
  B  B16  1  0.59022950  0.30658050  0.26841900  1
  B  B17  1  0.03917200  0.97678300  0.49514300  1
  B  B18  1  0.59022950  0.69341950  0.76841900  1
  B  B19  1  0.54666150  0.97344550  0.99448000  1
  B  B20  1  0.03917200  0.02321700  0.99514300  1
  B  B21  1  0.49326650  0.80377650  0.22018600  1
  B  B22  1  0.54666150  0.02655450  0.49448000  1
  B  B23  1  0.49326650  0.19622350  0.72018600  1
  B  B24  1  0.09022950  0.80658050  0.26841900  1
  B  B25  1  0.53917200  0.47678300  0.49514300  1
  B  B26  1  0.09022950  0.19341950  0.76841900  1
  B  B27  1  0.04666150  0.47344550  0.99448000  1
  B  B28  1  0.53917200  0.52321700  0.99514300  1
  B  B29  1  0.99326650  0.30377650  0.22018600  1
  B  B30  1  0.04666150  0.52655450  0.49448000  1
  B  B31  1  0.99326650  0.69622350  0.72018600  1
  O  O32  1  0.69309450  0.90631750  0.06169600  1
  O  O33  1  0.48796700  0.05853500  0.73322800  1
  O  O34  1  0.40264550  0.09505650  0.42591400  1
  O  O35  1  0.54062700  0.61656400  0.48983800  1
  O  O36  1  0.54824500  0.88686000  0.50121100  1
  O  O37  1  0.45871850  0.22554150  0.20060500  1
  O  O38  1  0.69309450  0.09368250  0.56169600  1
  O  O39  1  0.45871850  0.77445850  0.70060500  1
  O  O40  1  0.08383900  0.05583300  0.75174500  1
  O  O41  1  0.72557250  0.24281050  0.34749100  1
  O  O42  1  0.40264550  0.90494350  0.92591400  1
  O  O43  1  0.18206150  0.90614750  0.56292500  1
  O  O44  1  0.89119350  0.91137150  0.42799800  1
  O  O45  1  0.36391100  0.26702300  0.64262600  1
  O  O46  1  0.89119350  0.08862850  0.92799800  1
  O  O47  1  0.54824500  0.11314000  0.00121100  1
  O  O48  1  0.48796700  0.94146500  0.23322800  1
  O  O49  1  0.63432350  0.73268350  0.28914700  1
  O  O50  1  0.54062700  0.38343600  0.98983800  1
  O  O51  1  0.63432350  0.26731650  0.78914700  1
  O  O52  1  0.18206150  0.09385250  0.06292500  1
  O  O53  1  0.72557250  0.75718950  0.84749100  1
  O  O54  1  0.36391100  0.73297700  0.14262600  1
  O  O55  1  0.08383900  0.94416700  0.25174500  1
  O  O56  1  0.19309450  0.40631750  0.06169600  1
  O  O57  1  0.98796700  0.55853500  0.73322800  1
  O  O58  1  0.90264550  0.59505650  0.42591400  1
  O  O59  1  0.04062700  0.11656400  0.48983800  1
  O  O60  1  0.04824500  0.38686000  0.50121100  1
  O  O61  1  0.95871850  0.72554150  0.20060500  1
  O  O62  1  0.19309450  0.59368250  0.56169600  1
  O  O63  1  0.95871850  0.27445850  0.70060500  1
  O  O64  1  0.58383900  0.55583300  0.75174500  1
  O  O65  1  0.22557250  0.74281050  0.34749100  1
  O  O66  1  0.90264550  0.40494350  0.92591400  1
  O  O67  1  0.68206150  0.40614750  0.56292500  1
  O  O68  1  0.39119350  0.41137150  0.42799800  1
  O  O69  1  0.86391100  0.76702300  0.64262600  1
  O  O70  1  0.39119350  0.58862850  0.92799800  1
  O  O71  1  0.04824500  0.61314000  0.00121100  1
  O  O72  1  0.98796700  0.44146500  0.23322800  1
  O  O73  1  0.13432350  0.23268350  0.28914700  1
  O  O74  1  0.04062700  0.88343600  0.98983800  1
  O  O75  1  0.13432350  0.76731650  0.78914700  1
  O  O76  1  0.68206150  0.59385250  0.06292500  1
  O  O77  1  0.22557250  0.25718950  0.84749100  1
  O  O78  1  0.86391100  0.23297700  0.14262600  1
  O  O79  1  0.58383900  0.44416700  0.25174500  1
