# generated using pymatgen
data_ScIO
_symmetry_space_group_name_H-M   'P 1'
_cell_length_a   20.13813800
_cell_length_b   3.89111000
_cell_length_c   7.26309956
_cell_angle_alpha   90.00000000
_cell_angle_beta   93.22697297
_cell_angle_gamma   90.00000000
_symmetry_Int_Tables_number   1
_chemical_formula_structural   ScIO
_chemical_formula_sum   'Sc8 I8 O8'
_cell_volume   568.23194203
_cell_formula_units_Z   8
loop_
 _symmetry_equiv_pos_site_id
 _symmetry_equiv_pos_as_xyz
  1  'x, y, z'
loop_
 _atom_site_type_symbol
 _atom_site_label
 _atom_site_symmetry_multiplicity
 _atom_site_fract_x
 _atom_site_fract_y
 _atom_site_fract_z
 _atom_site_occupancy
  Sc  Sc0  1  0.79718400  0.50000000  0.38291300  1
  Sc  Sc1  1  0.70151900  0.00000000  0.11810500  1
  Sc  Sc2  1  0.70281600  0.00000000  0.61708700  1
  Sc  Sc3  1  0.79848100  0.50000000  0.88189500  1
  Sc  Sc4  1  0.29718400  0.00000000  0.38291300  1
  Sc  Sc5  1  0.20151900  0.50000000  0.11810500  1
  Sc  Sc6  1  0.20281600  0.50000000  0.61708700  1
  Sc  Sc7  1  0.29848100  0.00000000  0.88189500  1
  I  I8  1  0.60690600  0.50000000  0.35183400  1
  I  I9  1  0.91128800  0.50000000  0.15462700  1
  I  I10  1  0.58871200  0.00000000  0.84537300  1
  I  I11  1  0.89309400  0.00000000  0.64816600  1
  I  I12  1  0.10690600  0.00000000  0.35183400  1
  I  I13  1  0.41128800  0.00000000  0.15462700  1
  I  I14  1  0.08871200  0.50000000  0.84537300  1
  I  I15  1  0.39309400  0.50000000  0.64816600  1
  O  O16  1  0.74512300  0.50000000  0.62808300  1
  O  O17  1  0.75538500  0.00000000  0.87983700  1
  O  O18  1  0.75487700  0.00000000  0.37191700  1
  O  O19  1  0.74461500  0.50000000  0.12016300  1
  O  O20  1  0.24512300  0.00000000  0.62808300  1
  O  O21  1  0.25538500  0.50000000  0.87983700  1
  O  O22  1  0.25487700  0.50000000  0.37191700  1
  O  O23  1  0.24461500  0.00000000  0.12016300  1
