# generated using pymatgen
data_Ba2Sc2B4O11
_symmetry_space_group_name_H-M   'P 1'
_cell_length_a   16.19237600
_cell_length_b   9.46189000
_cell_length_c   6.42403919
_cell_angle_alpha   90.00000000
_cell_angle_beta   100.08070668
_cell_angle_gamma   90.00000000
_symmetry_Int_Tables_number   1
_chemical_formula_structural   Ba2Sc2B4O11
_chemical_formula_sum   'Ba8 Sc8 B16 O44'
_cell_volume   969.03575928
_cell_formula_units_Z   4
loop_
 _symmetry_equiv_pos_site_id
 _symmetry_equiv_pos_as_xyz
  1  'x, y, z'
loop_
 _atom_site_type_symbol
 _atom_site_label
 _atom_site_symmetry_multiplicity
 _atom_site_fract_x
 _atom_site_fract_y
 _atom_site_fract_z
 _atom_site_occupancy
  Ba  Ba0  1  0.36245150  0.16589350  0.57520000  1
  Ba  Ba1  1  0.36245150  0.83410650  0.07520000  1
  Ba  Ba2  1  0.63754850  0.16589350  0.92480000  1
  Ba  Ba3  1  0.63754850  0.83410650  0.42480000  1
  Ba  Ba4  1  0.86245150  0.66589350  0.57520000  1
  Ba  Ba5  1  0.86245150  0.33410650  0.07520000  1
  Ba  Ba6  1  0.13754850  0.66589350  0.92480000  1
  Ba  Ba7  1  0.13754850  0.33410650  0.42480000  1
  Sc  Sc8  1  0.00000000  0.00000000  0.50000000  1
  Sc  Sc9  1  0.75000000  0.75000000  0.00000000  1
  Sc  Sc10  1  0.75000000  0.25000000  0.50000000  1
  Sc  Sc11  1  0.00000000  0.00000000  0.00000000  1
  Sc  Sc12  1  0.50000000  0.50000000  0.50000000  1
  Sc  Sc13  1  0.25000000  0.25000000  0.00000000  1
  Sc  Sc14  1  0.25000000  0.75000000  0.50000000  1
  Sc  Sc15  1  0.50000000  0.50000000  0.00000000  1
  B  B16  1  0.55065300  0.17058700  0.41180800  1
  B  B17  1  0.44934700  0.17058700  0.08819200  1
  B  B18  1  0.16985500  0.00110400  0.25499100  1
  B  B19  1  0.83014500  0.99889600  0.74500900  1
  B  B20  1  0.83014500  0.00110400  0.24500900  1
  B  B21  1  0.16985500  0.99889600  0.75499100  1
  B  B22  1  0.44934700  0.82941300  0.58819200  1
  B  B23  1  0.55065300  0.82941300  0.91180800  1
  B  B24  1  0.05065300  0.67058700  0.41180800  1
  B  B25  1  0.94934700  0.67058700  0.08819200  1
  B  B26  1  0.66985500  0.50110400  0.25499100  1
  B  B27  1  0.33014500  0.49889600  0.74500900  1
  B  B28  1  0.33014500  0.50110400  0.24500900  1
  B  B29  1  0.66985500  0.49889600  0.75499100  1
  B  B30  1  0.94934700  0.32941300  0.58819200  1
  B  B31  1  0.05065300  0.32941300  0.91180800  1
  O  O32  1  0.49003050  0.72409850  0.50233600  1
  O  O33  1  0.79787600  0.86880600  0.26538300  1
  O  O34  1  0.91282550  0.01474950  0.20583100  1
  O  O35  1  0.78407800  0.12077300  0.26341400  1
  O  O36  1  0.36785350  0.86967150  0.52131200  1
  O  O37  1  0.21592200  0.12077300  0.23658600  1
  O  O38  1  0.79787600  0.13119400  0.76538300  1
  O  O39  1  0.08717450  0.01474950  0.29416900  1
  O  O40  1  0.21592200  0.87922700  0.73658600  1
  O  O41  1  0.50000000  0.08574700  0.25000000  1
  O  O42  1  0.63214650  0.13032850  0.47868800  1
  O  O43  1  0.08717450  0.98525050  0.79416900  1
  O  O44  1  0.50000000  0.91425300  0.75000000  1
  O  O45  1  0.63214650  0.86967150  0.97868800  1
  O  O46  1  0.91282550  0.98525050  0.70583100  1
  O  O47  1  0.20212400  0.86880600  0.23461700  1
  O  O48  1  0.50996950  0.72409850  0.99766400  1
  O  O49  1  0.50996950  0.27590150  0.49766400  1
  O  O50  1  0.49003050  0.27590150  0.00233600  1
  O  O51  1  0.78407800  0.87922700  0.76341400  1
  O  O52  1  0.36785350  0.13032850  0.02131200  1
  O  O53  1  0.20212400  0.13119400  0.73461700  1
  O  O54  1  0.99003050  0.22409850  0.50233600  1
  O  O55  1  0.29787600  0.36880600  0.26538300  1
  O  O56  1  0.41282550  0.51474950  0.20583100  1
  O  O57  1  0.28407800  0.62077300  0.26341400  1
  O  O58  1  0.86785350  0.36967150  0.52131200  1
  O  O59  1  0.71592200  0.62077300  0.23658600  1
  O  O60  1  0.29787600  0.63119400  0.76538300  1
  O  O61  1  0.58717450  0.51474950  0.29416900  1
  O  O62  1  0.71592200  0.37922700  0.73658600  1
  O  O63  1  0.00000000  0.58574700  0.25000000  1
  O  O64  1  0.13214650  0.63032850  0.47868800  1
  O  O65  1  0.58717450  0.48525050  0.79416900  1
  O  O66  1  0.00000000  0.41425300  0.75000000  1
  O  O67  1  0.13214650  0.36967150  0.97868800  1
  O  O68  1  0.41282550  0.48525050  0.70583100  1
  O  O69  1  0.70212400  0.36880600  0.23461700  1
  O  O70  1  0.00996950  0.22409850  0.99766400  1
  O  O71  1  0.00996950  0.77590150  0.49766400  1
  O  O72  1  0.99003050  0.77590150  0.00233600  1
  O  O73  1  0.28407800  0.37922700  0.76341400  1
  O  O74  1  0.86785350  0.63032850  0.02131200  1
  O  O75  1  0.70212400  0.63119400  0.73461700  1
