# generated using pymatgen
data_ZrPbO3
_symmetry_space_group_name_H-M   'P 1'
_cell_length_a   5.97892400
_cell_length_b   8.31703500
_cell_length_c   11.94582300
_cell_angle_alpha   90.00000000
_cell_angle_beta   90.00000000
_cell_angle_gamma   90.00000000
_symmetry_Int_Tables_number   1
_chemical_formula_structural   ZrPbO3
_chemical_formula_sum   'Zr8 Pb8 O24'
_cell_volume   594.02898669
_cell_formula_units_Z   8
loop_
 _symmetry_equiv_pos_site_id
 _symmetry_equiv_pos_as_xyz
  1  'x, y, z'
loop_
 _atom_site_type_symbol
 _atom_site_label
 _atom_site_symmetry_multiplicity
 _atom_site_fract_x
 _atom_site_fract_y
 _atom_site_fract_z
 _atom_site_occupancy
  Zr  Zr0  1  0.75817800  0.75018900  0.87578600  1
  Zr  Zr1  1  0.25817800  0.24981100  0.62421400  1
  Zr  Zr2  1  0.24182200  0.75018900  0.12421400  1
  Zr  Zr3  1  0.74182200  0.24981100  0.37578600  1
  Zr  Zr4  1  0.24182200  0.24981100  0.12421400  1
  Zr  Zr5  1  0.74182200  0.75018900  0.37578600  1
  Zr  Zr6  1  0.75817800  0.24981100  0.87578600  1
  Zr  Zr7  1  0.25817800  0.75018900  0.62421400  1
  Pb  Pb8  1  0.30439500  0.00000000  0.87641800  1
  Pb  Pb9  1  0.80439500  0.00000000  0.62358200  1
  Pb  Pb10  1  0.69560500  0.00000000  0.12358200  1
  Pb  Pb11  1  0.19560500  0.00000000  0.37641800  1
  Pb  Pb12  1  0.29246000  0.50000000  0.87180800  1
  Pb  Pb13  1  0.79246000  0.50000000  0.62819200  1
  Pb  Pb14  1  0.70754000  0.50000000  0.12819200  1
  Pb  Pb15  1  0.20754000  0.50000000  0.37180800  1
  O  O16  1  0.72439600  0.00000000  0.84274300  1
  O  O17  1  0.22439600  0.00000000  0.65725700  1
  O  O18  1  0.27560400  0.00000000  0.15725700  1
  O  O19  1  0.77560400  0.00000000  0.34274300  1
  O  O20  1  0.69725100  0.50000000  0.90574800  1
  O  O21  1  0.19725100  0.50000000  0.59425200  1
  O  O22  1  0.30274900  0.50000000  0.09425200  1
  O  O23  1  0.80274900  0.50000000  0.40574800  1
  O  O24  1  0.96418500  0.71862600  0.73760000  1
  O  O25  1  0.46418500  0.28137400  0.76240000  1
  O  O26  1  0.03581500  0.71862600  0.26240000  1
  O  O27  1  0.53581500  0.28137400  0.23760000  1
  O  O28  1  0.03581500  0.28137400  0.26240000  1
  O  O29  1  0.53581500  0.71862600  0.23760000  1
  O  O30  1  0.96418500  0.28137400  0.73760000  1
  O  O31  1  0.46418500  0.71862600  0.76240000  1
  O  O32  1  0.00000000  0.79914700  0.50000000  1
  O  O33  1  0.50000000  0.20085300  0.00000000  1
  O  O34  1  0.00000000  0.20085300  0.50000000  1
  O  O35  1  0.50000000  0.79914700  0.00000000  1
  O  O36  1  0.00000000  0.76799700  0.00000000  1
  O  O37  1  0.50000000  0.23200300  0.50000000  1
  O  O38  1  0.00000000  0.23200300  0.00000000  1
  O  O39  1  0.50000000  0.76799700  0.50000000  1
