# generated using pymatgen
data_Er4Si3O11F2
_symmetry_space_group_name_H-M   'P 1'
_cell_length_a   6.49085700
_cell_length_b   6.62078056
_cell_length_c   13.28613717
_cell_angle_alpha   87.65828269
_cell_angle_beta   85.89311198
_cell_angle_gamma   60.85987891
_symmetry_Int_Tables_number   1
_chemical_formula_structural   Er4Si3O11F2
_chemical_formula_sum   'Er8 Si6 O22 F4'
_cell_volume   497.40703245
_cell_formula_units_Z   2
loop_
 _symmetry_equiv_pos_site_id
 _symmetry_equiv_pos_as_xyz
  1  'x, y, z'
loop_
 _atom_site_type_symbol
 _atom_site_label
 _atom_site_symmetry_multiplicity
 _atom_site_fract_x
 _atom_site_fract_y
 _atom_site_fract_z
 _atom_site_occupancy
  Er  Er0  1  0.78098000  0.78693400  0.47135200  1
  Er  Er1  1  0.82177300  0.30764500  0.32897200  1
  Er  Er2  1  0.93912300  0.27449800  0.02632500  1
  Er  Er3  1  0.06087700  0.72550200  0.97367500  1
  Er  Er4  1  0.67504600  0.62090300  0.79669500  1
  Er  Er5  1  0.17822700  0.69235500  0.67102800  1
  Er  Er6  1  0.21902000  0.21306600  0.52864800  1
  Er  Er7  1  0.32495400  0.37909700  0.20330500  1
  Si  Si8  1  0.49244000  0.25153400  0.93506100  1
  Si  Si9  1  0.23184400  0.15319300  0.78306800  1
  Si  Si10  1  0.50756000  0.74846600  0.06493900  1
  Si  Si11  1  0.76815600  0.84680700  0.21693200  1
  Si  Si12  1  0.73272200  0.26924600  0.57913600  1
  Si  Si13  1  0.26727800  0.73075400  0.42086400  1
  O  O14  1  0.79662600  0.67618100  0.31380800  1
  O  O15  1  0.73539900  0.66259600  0.97940400  1
  O  O16  1  0.01230500  0.93995700  0.38784700  1
  O  O17  1  0.98924200  0.28595600  0.85514600  1
  O  O18  1  0.40737000  0.84124700  0.47904200  1
  O  O19  1  0.20337400  0.32381900  0.68619200  1
  O  O20  1  0.53314700  0.90376000  0.15249300  1
  O  O21  1  0.98769500  0.06004300  0.61215300  1
  O  O22  1  0.46685300  0.09624000  0.84750700  1
  O  O23  1  0.42277900  0.54578000  0.33163800  1
  O  O24  1  0.01075800  0.71404400  0.14485400  1
  O  O25  1  0.68782800  0.11351000  0.24651600  1
  O  O26  1  0.26460100  0.33740400  0.02059600  1
  O  O27  1  0.82700800  0.40636200  0.49205500  1
  O  O28  1  0.17299200  0.59363800  0.50794500  1
  O  O29  1  0.31217200  0.88649000  0.75348400  1
  O  O30  1  0.59263000  0.15875300  0.52095800  1
  O  O31  1  0.24890100  0.90593100  0.01887700  1
  O  O32  1  0.55591400  0.49778900  0.11263300  1
  O  O33  1  0.57722100  0.45422000  0.66836200  1
  O  O34  1  0.44408600  0.50221100  0.88736700  1
  O  O35  1  0.75109900  0.09406900  0.98112300  1
  F  F36  1  0.03554100  0.26931200  0.18509300  1
  F  F37  1  0.79494100  0.74113900  0.64562500  1
  F  F38  1  0.96445900  0.73068800  0.81490700  1
  F  F39  1  0.20505900  0.25886100  0.35437500  1
