# generated using pymatgen
data_ScH24C3S3(N3O5)3
_symmetry_space_group_name_H-M   'P 1'
_cell_length_a   19.58757445
_cell_length_b   19.58757445
_cell_length_c   9.71385708
_cell_angle_alpha   90.00000000
_cell_angle_beta   90.00000000
_cell_angle_gamma   120.00000000
_symmetry_Int_Tables_number   1
_chemical_formula_structural   ScH24C3S3(N3O5)3
_chemical_formula_sum   'Sc6 H144 C18 S18 N54 O90'
_cell_volume   3227.62939232
_cell_formula_units_Z   6
loop_
 _symmetry_equiv_pos_site_id
 _symmetry_equiv_pos_as_xyz
  1  'x, y, z'
loop_
 _atom_site_type_symbol
 _atom_site_label
 _atom_site_symmetry_multiplicity
 _atom_site_fract_x
 _atom_site_fract_y
 _atom_site_fract_z
 _atom_site_occupancy
  Sc  Sc0  1  0.00000000  0.00000000  0.50000000  1
  Sc  Sc1  1  0.00000000  0.00000000  0.00000000  1
  Sc  Sc2  1  0.66666667  0.33333333  0.83333333  1
  Sc  Sc3  1  0.66666667  0.33333333  0.33333333  1
  Sc  Sc4  1  0.33333333  0.66666667  0.16666667  1
  Sc  Sc5  1  0.33333333  0.66666667  0.66666667  1
  H  H6  1  0.37850633  0.39127367  0.39190967  1
  H  H7  1  0.50040433  0.35965467  0.70529567  1
  H  H8  1  0.42357233  0.22971867  0.24590967  1
  H  H9  1  0.35965467  0.85925033  0.29470433  1
  H  H10  1  0.48090900  0.43785500  0.69132900  1
  H  H11  1  0.43585100  0.21888000  0.40467800  1
  H  H12  1  0.21360133  0.91444967  0.25015567  1
  H  H13  1  0.43785500  0.95694600  0.30867100  1
  H  H14  1  0.45306533  0.41888367  0.08317767  1
  H  H15  1  0.43694800  0.52718700  0.57924300  1
  H  H16  1  0.24309433  0.10361467  0.08742367  1
  H  H17  1  0.16961333  0.27056067  0.39381067  1
  H  H18  1  0.19258367  0.16626233  0.37196233  1
  H  H19  1  0.28816033  0.94205967  0.94142367  1
  H  H20  1  0.22881167  0.37638733  0.02466233  1
  H  H21  1  0.11636233  0.23081567  0.07134467  1
  H  H22  1  0.27427133  0.02390467  0.95786767  1
  H  H23  1  0.36751500  0.11973200  0.58348900  1
  H  H24  1  0.47408300  0.16707100  0.96137100  1
  H  H25  1  0.24778300  0.36751500  0.41651100  1
  H  H26  1  0.41630000  0.05906200  0.29120100  1
  H  H27  1  0.22971867  0.80614633  0.75409033  1
  H  H28  1  0.13947967  0.24309433  0.91257633  1
  H  H29  1  0.43428067  0.49705333  0.06047733  1
  H  H30  1  0.35723800  0.41630000  0.70879900  1
  H  H31  1  0.25036667  0.27427133  0.04213233  1
  H  H32  1  0.21888000  0.78302900  0.59532200  1
  H  H33  1  0.39239533  0.30942867  0.37546567  1
  H  H34  1  0.27056067  0.10094733  0.60618933  1
  H  H35  1  0.49705333  0.06277267  0.93952267  1
  H  H36  1  0.55030433  0.10251767  0.26198867  1
  H  H37  1  0.52718700  0.09023900  0.42075700  1
  H  H38  1  0.23238600  0.83628000  0.27285600  1
  H  H39  1  0.44778667  0.55030433  0.73801133  1
  H  H40  1  0.41888367  0.96581833  0.91682233  1
  H  H41  1  0.30701200  0.47408300  0.03862900  1
  H  H42  1  0.34610067  0.28816033  0.05857633  1
  H  H43  1  0.29027933  0.18575767  0.35799567  1
  H  H44  1  0.18575767  0.89547833  0.64200433  1
  H  H45  1  0.37638733  0.14757567  0.97533767  1
  H  H46  1  0.16626233  0.97367867  0.62803767  1
  H  H47  1  0.32056600  0.04517300  0.27475700  1
  H  H48  1  0.30942867  0.91703333  0.62453433  1
  H  H49  1  0.29915167  0.21360133  0.74984433  1
  H  H50  1  0.39610600  0.23238600  0.72714400  1
  H  H51  1  0.23081567  0.11445333  0.92865533  1
  H  H52  1  0.39127367  0.01276733  0.60809033  1
  H  H53  1  0.27539300  0.32056600  0.72524300  1
  H  H54  1  0.04517300  0.72460700  0.72524300  1
  H  H55  1  0.16707100  0.69298800  0.03862900  1
  H  H56  1  0.09023900  0.56305200  0.57924300  1
  H  H57  1  0.02632133  0.19258367  0.62803767  1
  H  H58  1  0.14757567  0.77118833  0.02466233  1
  H  H59  1  0.10251767  0.55221333  0.73801133  1
  H  H60  1  0.88026800  0.24778300  0.58348900  1
  H  H61  1  0.10452167  0.29027933  0.64200433  1
  H  H62  1  0.11973200  0.75221700  0.41651100  1
  H  H63  1  0.10361467  0.86052033  0.91257633  1
  H  H64  1  0.90976100  0.43694800  0.42075700  1
  H  H65  1  0.83628000  0.60389400  0.72714400  1
  H  H66  1  0.85925033  0.49959567  0.70529567  1
  H  H67  1  0.95482700  0.27539300  0.27475700  1
  H  H68  1  0.89547833  0.70972067  0.35799567  1
  H  H69  1  0.78302900  0.56414900  0.40467800  1
  H  H70  1  0.94093800  0.35723800  0.29120100  1
  H  H71  1  0.03418167  0.45306533  0.91682233  1
  H  H72  1  0.14074967  0.50040433  0.29470433  1
  H  H73  1  0.91444967  0.70084833  0.74984433  1
  H  H74  1  0.08296667  0.39239533  0.62453433  1
  H  H75  1  0.89638533  0.13947967  0.08742367  1
  H  H76  1  0.80614633  0.57642767  0.24590967  1
  H  H77  1  0.10094733  0.83038667  0.39381067  1
  H  H78  1  0.02390467  0.74963333  0.04213233  1
  H  H79  1  0.91703333  0.60760467  0.37546567  1
  H  H80  1  0.88554667  0.11636233  0.92865533  1
  H  H81  1  0.05906200  0.64276200  0.70879900  1
  H  H82  1  0.93722733  0.43428067  0.93952267  1
  H  H83  1  0.16372000  0.39610600  0.27285600  1
  H  H84  1  0.21697100  0.43585100  0.59532200  1
  H  H85  1  0.19385367  0.42357233  0.75409033  1
  H  H86  1  0.89905267  0.16961333  0.60618933  1
  H  H87  1  0.11445333  0.88363767  0.07134467  1
  H  H88  1  0.08555033  0.29915167  0.25015567  1
  H  H89  1  0.97367867  0.80741633  0.37196233  1
  H  H90  1  0.01276733  0.62149367  0.39190967  1
  H  H91  1  0.95694600  0.51909100  0.69132900  1
  H  H92  1  0.85242433  0.22881167  0.97533767  1
  H  H93  1  0.04305400  0.48090900  0.30867100  1
  H  H94  1  0.83292900  0.30701200  0.96137100  1
  H  H95  1  0.98723267  0.37850633  0.60809033  1
  H  H96  1  0.97609533  0.25036667  0.95786767  1
  H  H97  1  0.96581833  0.54693467  0.08317767  1
  H  H98  1  0.06277267  0.56571933  0.06047733  1
  H  H99  1  0.89748233  0.44778667  0.26198867  1
  H  H100  1  0.05794033  0.34610067  0.94142367  1
  H  H101  1  0.94205967  0.65389933  0.05857633  1
  H  H102  1  0.71183967  0.05794033  0.05857633  1
  H  H103  1  0.83373767  0.02632133  0.37196233  1
  H  H104  1  0.75690567  0.89638533  0.91257633  1
  H  H105  1  0.69298800  0.52591700  0.96137100  1
  H  H106  1  0.81424233  0.10452167  0.35799567  1
  H  H107  1  0.76918433  0.88554667  0.07134467  1
  H  H108  1  0.54693467  0.58111633  0.91682233  1
  H  H109  1  0.77118833  0.62361267  0.97533767  1
  H  H110  1  0.78639867  0.08555033  0.74984433  1
  H  H111  1  0.77028133  0.19385367  0.24590967  1
  H  H112  1  0.57642767  0.77028133  0.75409033  1
  H  H113  1  0.50294667  0.93722733  0.06047733  1
  H  H114  1  0.52591700  0.83292900  0.03862900  1
  H  H115  1  0.62149367  0.60872633  0.60809033  1
  H  H116  1  0.56214500  0.04305400  0.69132900  1
  H  H117  1  0.44969567  0.89748233  0.73801133  1
  H  H118  1  0.60760467  0.69057133  0.62453433  1
  H  H119  1  0.70084833  0.78639867  0.25015567  1
  H  H120  1  0.80741633  0.83373767  0.62803767  1
  H  H121  1  0.58111633  0.03418167  0.08317767  1
  H  H122  1  0.74963333  0.72572867  0.95786767  1
  H  H123  1  0.56305200  0.47281300  0.42075700  1
  H  H124  1  0.47281300  0.90976100  0.57924300  1
  H  H125  1  0.76761400  0.16372000  0.72714400  1
  H  H126  1  0.69057133  0.08296667  0.37546567  1
  H  H127  1  0.58370000  0.94093800  0.70879900  1
  H  H128  1  0.55221333  0.44969567  0.26198867  1
  H  H129  1  0.72572867  0.97609533  0.04213233  1
  H  H130  1  0.60389400  0.76761400  0.27285600  1
  H  H131  1  0.83038667  0.72943933  0.60618933  1
  H  H132  1  0.88363767  0.76918433  0.92865533  1
  H  H133  1  0.86052033  0.75690567  0.08742367  1
  H  H134  1  0.56571933  0.50294667  0.93952267  1
  H  H135  1  0.78112000  0.21697100  0.40467800  1
  H  H136  1  0.75221700  0.63248500  0.58348900  1
  H  H137  1  0.64034533  0.14074967  0.70529567  1
  H  H138  1  0.67943400  0.95482700  0.72524300  1
  H  H139  1  0.62361267  0.85242433  0.02466233  1
  H  H140  1  0.51909100  0.56214500  0.30867100  1
  H  H141  1  0.70972067  0.81424233  0.64200433  1
  H  H142  1  0.49959567  0.64034533  0.29470433  1
  H  H143  1  0.65389933  0.71183967  0.94142367  1
  H  H144  1  0.64276200  0.58370000  0.29120100  1
  H  H145  1  0.63248500  0.88026800  0.41651100  1
  H  H146  1  0.72943933  0.89905267  0.39381067  1
  H  H147  1  0.56414900  0.78112000  0.59532200  1
  H  H148  1  0.72460700  0.67943400  0.27475700  1
  H  H149  1  0.60872633  0.98723267  0.39190967  1
  C  C150  1  0.38469833  0.32993167  0.72625367  1
  C  C151  1  0.38810000  0.05136500  0.94041300  1
  C  C152  1  0.28196833  0.00340167  0.60707967  1
  C  C153  1  0.32993167  0.94523333  0.27374633  1
  C  C154  1  0.33673500  0.38810000  0.05958700  1
  C  C155  1  0.27856667  0.28196833  0.39292033  1
  C  C156  1  0.05136500  0.66326500  0.05958700  1
  C  C157  1  0.05476667  0.38469833  0.27374633  1
  C  C158  1  0.94863500  0.33673500  0.94041300  1
  C  C159  1  0.99659833  0.27856667  0.60707967  1
  C  C160  1  0.00340167  0.72143333  0.39292033  1
  C  C161  1  0.94523333  0.61530167  0.72625367  1
  C  C162  1  0.71803167  0.99659833  0.39292033  1
  C  C163  1  0.72143333  0.71803167  0.60707967  1
  C  C164  1  0.61530167  0.67006833  0.27374633  1
  C  C165  1  0.66326500  0.61190000  0.94041300  1
  C  C166  1  0.67006833  0.05476667  0.72625367  1
  C  C167  1  0.61190000  0.94863500  0.05958700  1
  S  S168  1  0.33536900  0.79600300  0.91935800  1
  S  S169  1  0.53936600  0.33536900  0.08064200  1
  S  S170  1  0.12730067  0.99796433  0.25269133  1
  S  S171  1  0.33129767  0.53733033  0.41397533  1
  S  S172  1  0.12933633  0.12730067  0.74730867  1
  S  S173  1  0.53733033  0.20603267  0.58602467  1
  S  S174  1  0.00203567  0.12933633  0.25269133  1
  S  S175  1  0.20603267  0.66870233  0.41397533  1
  S  S176  1  0.79396733  0.33129767  0.58602467  1
  S  S177  1  0.99796433  0.87066367  0.74730867  1
  S  S178  1  0.79600300  0.46063400  0.08064200  1
  S  S179  1  0.20399700  0.53936600  0.91935800  1
  S  S180  1  0.66870233  0.46266967  0.58602467  1
  S  S181  1  0.87269933  0.00203567  0.74730867  1
  S  S182  1  0.46063400  0.66463100  0.91935800  1
  S  S183  1  0.66463100  0.20399700  0.08064200  1
  S  S184  1  0.46266967  0.79396733  0.41397533  1
  S  S185  1  0.87066367  0.87269933  0.25269133  1
  N  N186  1  0.20452500  0.95321800  0.61894700  1
  N  N187  1  0.28655133  0.41535967  0.04771967  1
  N  N188  1  0.30882500  0.31023200  0.06147800  1
  N  N189  1  0.38011533  0.91797367  0.28561367  1
  N  N190  1  0.35643467  0.33192633  0.39481133  1
  N  N191  1  0.35785933  0.25271167  0.74083867  1
  N  N192  1  0.46214167  0.38011533  0.71438633  1
  N  N193  1  0.25130700  0.20452500  0.38105300  1
  N  N194  1  0.30880733  0.08062167  0.59249467  1
  N  N195  1  0.41395500  0.43848100  0.07417200  1
  N  N196  1  0.22818567  0.30880733  0.40750533  1
  N  N197  1  0.33192633  0.97549167  0.60518867  1
  N  N198  1  0.43848100  0.02452600  0.92582800  1
  N  N199  1  0.25271167  0.89485233  0.25916133  1
  N  N200  1  0.41535967  0.12880833  0.95228033  1
  N  N201  1  0.33474033  0.35784167  0.72814467  1
  N  N202  1  0.35784167  0.02310133  0.27185533  1
  N  N203  1  0.31023200  0.00140700  0.93852200  1
  N  N204  1  0.87119167  0.28655133  0.95228033  1
  N  N205  1  0.95321800  0.74869300  0.38105300  1
  N  N206  1  0.97549167  0.64356533  0.39481133  1
  N  N207  1  0.04678200  0.25130700  0.61894700  1
  N  N208  1  0.02310133  0.66525967  0.72814467  1
  N  N209  1  0.02452600  0.58604500  0.07417200  1
  N  N210  1  0.12880833  0.71344867  0.04771967  1
  N  N211  1  0.91797367  0.53785833  0.71438633  1
  N  N212  1  0.97547400  0.41395500  0.92582800  1
  N  N213  1  0.08062167  0.77181433  0.40750533  1
  N  N214  1  0.89485233  0.64214067  0.74083867  1
  N  N215  1  0.99859300  0.30882500  0.93852200  1
  N  N216  1  0.10514767  0.35785933  0.25916133  1
  N  N217  1  0.91937833  0.22818567  0.59249467  1
  N  N218  1  0.08202633  0.46214167  0.28561367  1
  N  N219  1  0.00140700  0.69117500  0.06147800  1
  N  N220  1  0.02450833  0.35643467  0.60518867  1
  N  N221  1  0.97689867  0.33474033  0.27185533  1
  N  N222  1  0.53785833  0.61988467  0.28561367  1
  N  N223  1  0.61988467  0.08202633  0.71438633  1
  N  N224  1  0.64215833  0.97689867  0.72814467  1
  N  N225  1  0.71344867  0.58464033  0.95228033  1
  N  N226  1  0.68976800  0.99859300  0.06147800  1
  N  N227  1  0.69119267  0.91937833  0.40750533  1
  N  N228  1  0.79547500  0.04678200  0.38105300  1
  N  N229  1  0.58464033  0.87119167  0.04771967  1
  N  N230  1  0.64214067  0.74728833  0.25916133  1
  N  N231  1  0.74728833  0.10514767  0.74083867  1
  N  N232  1  0.56151900  0.97547400  0.07417200  1
  N  N233  1  0.66525967  0.64215833  0.27185533  1
  N  N234  1  0.77181433  0.69119267  0.59249467  1
  N  N235  1  0.58604500  0.56151900  0.92582800  1
  N  N236  1  0.74869300  0.79547500  0.61894700  1
  N  N237  1  0.66807367  0.02450833  0.39481133  1
  N  N238  1  0.69117500  0.68976800  0.93852200  1
  N  N239  1  0.64356533  0.66807367  0.60518867  1
  O  O240  1  0.34539600  0.58591000  0.54143900  1
  O  O241  1  0.58591000  0.24051400  0.45856100  1
  O  O242  1  0.09281933  0.01206267  0.12522767  1
  O  O243  1  0.38137167  0.50085333  0.42069733  1
  O  O244  1  0.46277733  0.52538867  0.66551467  1
  O  O245  1  0.59131200  0.23575200  0.70901600  1
  O  O246  1  0.45281500  0.28529500  0.08736400  1
  O  O247  1  0.56334767  0.41992633  0.07169533  1
  O  O248  1  0.52538867  0.06261133  0.33448533  1
  O  O249  1  0.47675467  0.23001433  0.59497133  1
  O  O250  1  0.39594467  0.20388933  0.33218133  1
  O  O251  1  0.08075667  0.09281933  0.87477233  1
  O  O252  1  0.41992633  0.85657867  0.92830467  1
  O  O253  1  0.20388933  0.80794467  0.66781867  1
  O  O254  1  0.07535467  0.09758133  0.62431733  1
  O  O255  1  0.16581333  0.21385167  0.75403067  1
  O  O256  1  0.56908533  0.31110667  0.95765067  1
  O  O257  1  0.10331900  0.91340700  0.26163800  1
  O  O258  1  0.18991200  0.10331900  0.73836200  1
  O  O259  1  0.32127067  0.74742333  0.79189433  1
  O  O260  1  0.57384733  0.32127067  0.20810567  1
  O  O261  1  0.27072200  0.12944400  0.00115200  1
  O  O262  1  0.31110667  0.74202133  0.04234933  1
  O  O263  1  0.28529500  0.83248000  0.91263600  1
  O  O264  1  0.14127800  0.27072200  0.99884800  1
  O  O265  1  0.09758133  0.02222667  0.37568267  1
  O  O266  1  0.35556000  0.59131200  0.29098400  1
  O  O267  1  0.50085333  0.11948167  0.57930267  1
  O  O268  1  0.24674033  0.47675467  0.40502867  1
  O  O269  1  0.21385167  0.04803833  0.24596933  1
  O  O270  1  0.01206267  0.91924333  0.87477233  1
  O  O271  1  0.25257667  0.57384733  0.79189433  1
  O  O272  1  0.75948600  0.34539600  0.45856100  1
  O  O273  1  0.04803833  0.83418667  0.75403067  1
  O  O274  1  0.12944400  0.85872200  0.99884800  1
  O  O275  1  0.25797867  0.56908533  0.04234933  1
  O  O276  1  0.11948167  0.61862833  0.42069733  1
  O  O277  1  0.23001433  0.75325967  0.40502867  1
  O  O278  1  0.19205533  0.39594467  0.66781867  1
  O  O279  1  0.14342133  0.56334767  0.92830467  1
  O  O280  1  0.06261133  0.53722267  0.66551467  1
  O  O281  1  0.74742333  0.42615267  0.20810567  1
  O  O282  1  0.08659300  0.18991200  0.26163800  1
  O  O283  1  0.87055600  0.14127800  0.00115200  1
  O  O284  1  0.74202133  0.43091467  0.95765067  1
  O  O285  1  0.83248000  0.54718500  0.08736400  1
  O  O286  1  0.23575200  0.64444000  0.29098400  1
  O  O287  1  0.76998567  0.24674033  0.59497133  1
  O  O288  1  0.85657867  0.43665233  0.07169533  1
  O  O289  1  0.98793733  0.08075667  0.12522767  1
  O  O290  1  0.24051400  0.65460400  0.54143900  1
  O  O291  1  0.93738867  0.46277733  0.33448533  1
  O  O292  1  0.97777333  0.07535467  0.37568267  1
  O  O293  1  0.95196167  0.16581333  0.24596933  1
  O  O294  1  0.80794467  0.60405533  0.33218133  1
  O  O295  1  0.76424800  0.35556000  0.70901600  1
  O  O296  1  0.02222667  0.92464533  0.62431733  1
  O  O297  1  0.16752000  0.45281500  0.91263600  1
  O  O298  1  0.91340700  0.81008800  0.73836200  1
  O  O299  1  0.88051833  0.38137167  0.57930267  1
  O  O300  1  0.67872933  0.25257667  0.20810567  1
  O  O301  1  0.91924333  0.90718067  0.12522767  1
  O  O302  1  0.42615267  0.67872933  0.79189433  1
  O  O303  1  0.71470500  0.16752000  0.08736400  1
  O  O304  1  0.79611067  0.19205533  0.33218133  1
  O  O305  1  0.92464533  0.90241867  0.37568267  1
  O  O306  1  0.78614833  0.95196167  0.75403067  1
  O  O307  1  0.89668100  0.08659300  0.73836200  1
  O  O308  1  0.85872200  0.72927800  0.00115200  1
  O  O309  1  0.81008800  0.89668100  0.26163800  1
  O  O310  1  0.72927800  0.87055600  0.99884800  1
  O  O311  1  0.41409000  0.75948600  0.54143900  1
  O  O312  1  0.75325967  0.52324533  0.59497133  1
  O  O313  1  0.53722267  0.47461133  0.33448533  1
  O  O314  1  0.40868800  0.76424800  0.29098400  1
  O  O315  1  0.49914667  0.88051833  0.42069733  1
  O  O316  1  0.90241867  0.97777333  0.62431733  1
  O  O317  1  0.43665233  0.58007367  0.92830467  1
  O  O318  1  0.52324533  0.76998567  0.40502867  1
  O  O319  1  0.65460400  0.41409000  0.45856100  1
  O  O320  1  0.90718067  0.98793733  0.87477233  1
  O  O321  1  0.60405533  0.79611067  0.66781867  1
  O  O322  1  0.64444000  0.40868800  0.70901600  1
  O  O323  1  0.61862833  0.49914667  0.57930267  1
  O  O324  1  0.47461133  0.93738867  0.66551467  1
  O  O325  1  0.43091467  0.68889333  0.04234933  1
  O  O326  1  0.68889333  0.25797867  0.95765067  1
  O  O327  1  0.83418667  0.78614833  0.24596933  1
  O  O328  1  0.58007367  0.14342133  0.07169533  1
  O  O329  1  0.54718500  0.71470500  0.91263600  1
