# generated using pymatgen
data_CsCeCdSe3
_symmetry_space_group_name_H-M   'P 1'
_cell_length_a   4.44670600
_cell_length_b   16.18701000
_cell_length_c   11.56323600
_cell_angle_alpha   90.00000000
_cell_angle_beta   90.00000000
_cell_angle_gamma   90.00000000
_symmetry_Int_Tables_number   1
_chemical_formula_structural   CsCeCdSe3
_chemical_formula_sum   'Cs4 Ce4 Cd4 Se12'
_cell_volume   832.30871273
_cell_formula_units_Z   4
loop_
 _symmetry_equiv_pos_site_id
 _symmetry_equiv_pos_as_xyz
  1  'x, y, z'
loop_
 _atom_site_type_symbol
 _atom_site_label
 _atom_site_symmetry_multiplicity
 _atom_site_fract_x
 _atom_site_fract_y
 _atom_site_fract_z
 _atom_site_occupancy
  Cs  Cs0  1  0.00000000  0.25756900  0.75000000  1
  Cs  Cs1  1  0.50000000  0.24243100  0.25000000  1
  Cs  Cs2  1  0.50000000  0.75756900  0.75000000  1
  Cs  Cs3  1  0.00000000  0.74243100  0.25000000  1
  Ce  Ce4  1  0.00000000  0.00000000  0.50000000  1
  Ce  Ce5  1  0.00000000  0.00000000  0.00000000  1
  Ce  Ce6  1  0.50000000  0.50000000  0.50000000  1
  Ce  Ce7  1  0.50000000  0.50000000  0.00000000  1
  Cd  Cd8  1  0.50000000  0.03934000  0.75000000  1
  Cd  Cd9  1  0.00000000  0.46066000  0.25000000  1
  Cd  Cd10  1  0.00000000  0.53934000  0.75000000  1
  Cd  Cd11  1  0.50000000  0.96066000  0.25000000  1
  Se  Se12  1  0.50000000  0.44031300  0.75000000  1
  Se  Se13  1  0.50000000  0.12043600  0.94739300  1
  Se  Se14  1  0.00000000  0.37956400  0.44739300  1
  Se  Se15  1  0.00000000  0.37956400  0.05260700  1
  Se  Se16  1  0.50000000  0.12043600  0.55260700  1
  Se  Se17  1  0.00000000  0.05968700  0.25000000  1
  Se  Se18  1  0.00000000  0.94031300  0.75000000  1
  Se  Se19  1  0.00000000  0.62043600  0.94739300  1
  Se  Se20  1  0.50000000  0.87956400  0.44739300  1
  Se  Se21  1  0.50000000  0.87956400  0.05260700  1
  Se  Se22  1  0.00000000  0.62043600  0.55260700  1
  Se  Se23  1  0.50000000  0.55968700  0.25000000  1
