# generated using pymatgen
data_AlS2(NCl2)2
_symmetry_space_group_name_H-M   'P 1'
_cell_length_a   7.03229800
_cell_length_b   16.68894200
_cell_length_c   8.14926947
_cell_angle_alpha   90.00000000
_cell_angle_beta   104.26155940
_cell_angle_gamma   90.00000000
_symmetry_Int_Tables_number   1
_chemical_formula_structural   AlS2(NCl2)2
_chemical_formula_sum   'Al4 S8 N8 Cl16'
_cell_volume   926.93598905
_cell_formula_units_Z   4
loop_
 _symmetry_equiv_pos_site_id
 _symmetry_equiv_pos_as_xyz
  1  'x, y, z'
loop_
 _atom_site_type_symbol
 _atom_site_label
 _atom_site_symmetry_multiplicity
 _atom_site_fract_x
 _atom_site_fract_y
 _atom_site_fract_z
 _atom_site_occupancy
  Al  Al0  1  0.39943100  0.64997900  0.35500900  1
  Al  Al1  1  0.60056900  0.14997900  0.14499100  1
  Al  Al2  1  0.60056900  0.35002100  0.64499100  1
  Al  Al3  1  0.39943100  0.85002100  0.85500900  1
  S  S4  1  0.85385700  0.60208200  0.07795500  1
  S  S5  1  0.96998400  0.55388800  0.75716900  1
  S  S6  1  0.03001600  0.05388800  0.74283100  1
  S  S7  1  0.14614300  0.10208200  0.42204500  1
  S  S8  1  0.96998400  0.94611200  0.25716900  1
  S  S9  1  0.03001600  0.44611200  0.24283100  1
  S  S10  1  0.14614300  0.39791800  0.92204500  1
  S  S11  1  0.85385700  0.89791800  0.57795500  1
  N  N12  1  0.11185300  0.09812400  0.60519500  1
  N  N13  1  0.07394600  0.47103300  0.80199900  1
  N  N14  1  0.11185300  0.40187600  0.10519500  1
  N  N15  1  0.88814700  0.59812400  0.89480500  1
  N  N16  1  0.92605400  0.52896700  0.19800100  1
  N  N17  1  0.88814700  0.90187600  0.39480500  1
  N  N18  1  0.07394600  0.02896700  0.30199900  1
  N  N19  1  0.92605400  0.97103300  0.69800100  1
  Cl  Cl20  1  0.60667800  0.07885000  0.37170000  1
  Cl  Cl21  1  0.39332200  0.57885000  0.12830000  1
  Cl  Cl22  1  0.17121500  0.73816800  0.27872000  1
  Cl  Cl23  1  0.68925700  0.80212600  0.94465000  1
  Cl  Cl24  1  0.32545600  0.57303900  0.54350100  1
  Cl  Cl25  1  0.31074300  0.19787400  0.05535000  1
  Cl  Cl26  1  0.39332200  0.92115000  0.62830000  1
  Cl  Cl27  1  0.67454400  0.42696100  0.45649900  1
  Cl  Cl28  1  0.82878500  0.26183200  0.72128000  1
  Cl  Cl29  1  0.60667800  0.42115000  0.87170000  1
  Cl  Cl30  1  0.67454400  0.07303900  0.95649900  1
  Cl  Cl31  1  0.17121500  0.76183200  0.77872000  1
  Cl  Cl32  1  0.32545600  0.92696100  0.04350100  1
  Cl  Cl33  1  0.31074300  0.30212600  0.55535000  1
  Cl  Cl34  1  0.68925700  0.69787400  0.44465000  1
  Cl  Cl35  1  0.82878500  0.23816800  0.22128000  1
