# generated using pymatgen
data_ZrPb2F8
_symmetry_space_group_name_H-M   'P 1'
_cell_length_a   5.51727100
_cell_length_b   9.89905500
_cell_length_c   11.83574500
_cell_angle_alpha   90.00000000
_cell_angle_beta   90.00000000
_cell_angle_gamma   90.00000000
_symmetry_Int_Tables_number   1
_chemical_formula_structural   ZrPb2F8
_chemical_formula_sum   'Zr4 Pb8 F32'
_cell_volume   646.41831580
_cell_formula_units_Z   4
loop_
 _symmetry_equiv_pos_site_id
 _symmetry_equiv_pos_as_xyz
  1  'x, y, z'
loop_
 _atom_site_type_symbol
 _atom_site_label
 _atom_site_symmetry_multiplicity
 _atom_site_fract_x
 _atom_site_fract_y
 _atom_site_fract_z
 _atom_site_occupancy
  Zr  Zr0  1  0.75000000  0.75182600  0.13048200  1
  Zr  Zr1  1  0.25000000  0.24817400  0.86951800  1
  Zr  Zr2  1  0.75000000  0.25182600  0.36951800  1
  Zr  Zr3  1  0.25000000  0.74817400  0.63048200  1
  Pb  Pb4  1  0.75000000  0.13984200  0.07640600  1
  Pb  Pb5  1  0.25000000  0.86015800  0.92359400  1
  Pb  Pb6  1  0.75000000  0.63984200  0.42359400  1
  Pb  Pb7  1  0.25000000  0.36015800  0.57640600  1
  Pb  Pb8  1  0.75000000  0.53491500  0.84749100  1
  Pb  Pb9  1  0.25000000  0.46508500  0.15250900  1
  Pb  Pb10  1  0.75000000  0.03491500  0.65250900  1
  Pb  Pb11  1  0.25000000  0.96508500  0.34749100  1
  F  F12  1  0.49156700  0.90324800  0.12557800  1
  F  F13  1  0.99156700  0.09675200  0.87442200  1
  F  F14  1  0.00843300  0.40324800  0.37442200  1
  F  F15  1  0.50843300  0.59675200  0.62557800  1
  F  F16  1  0.50843300  0.09675200  0.87442200  1
  F  F17  1  0.00843300  0.90324800  0.12557800  1
  F  F18  1  0.99156700  0.59675200  0.62557800  1
  F  F19  1  0.49156700  0.40324800  0.37442200  1
  F  F20  1  0.00283300  0.86894400  0.53249900  1
  F  F21  1  0.50283300  0.13105600  0.46750100  1
  F  F22  1  0.49716700  0.36894400  0.96750100  1
  F  F23  1  0.99716700  0.63105600  0.03249900  1
  F  F24  1  0.99716700  0.13105600  0.46750100  1
  F  F25  1  0.49716700  0.86894400  0.53249900  1
  F  F26  1  0.50283300  0.63105600  0.03249900  1
  F  F27  1  0.00283300  0.36894400  0.96750100  1
  F  F28  1  0.51299500  0.63801200  0.23969300  1
  F  F29  1  0.01299500  0.36198800  0.76030700  1
  F  F30  1  0.98700500  0.13801200  0.26030700  1
  F  F31  1  0.48700500  0.86198800  0.73969300  1
  F  F32  1  0.48700500  0.36198800  0.76030700  1
  F  F33  1  0.98700500  0.63801200  0.23969300  1
  F  F34  1  0.01299500  0.86198800  0.73969300  1
  F  F35  1  0.51299500  0.13801200  0.26030700  1
  F  F36  1  0.75000000  0.82601600  0.95817200  1
  F  F37  1  0.25000000  0.17398400  0.04182800  1
  F  F38  1  0.75000000  0.32601600  0.54182800  1
  F  F39  1  0.25000000  0.67398400  0.45817200  1
  F  F40  1  0.75000000  0.84402700  0.30354900  1
  F  F41  1  0.25000000  0.15597300  0.69645100  1
  F  F42  1  0.75000000  0.34402700  0.19645100  1
  F  F43  1  0.25000000  0.65597300  0.80354900  1
