# generated using pymatgen
data_K(TeO3)2
_symmetry_space_group_name_H-M   'P 1'
_cell_length_a   12.60105000
_cell_length_b   7.36139000
_cell_length_c   12.19687344
_cell_angle_alpha   90.00000000
_cell_angle_beta   106.07407483
_cell_angle_gamma   90.00000000
_symmetry_Int_Tables_number   1
_chemical_formula_structural   K(TeO3)2
_chemical_formula_sum   'K8 Te16 O48'
_cell_volume   1087.16464894
_cell_formula_units_Z   8
loop_
 _symmetry_equiv_pos_site_id
 _symmetry_equiv_pos_as_xyz
  1  'x, y, z'
loop_
 _atom_site_type_symbol
 _atom_site_label
 _atom_site_symmetry_multiplicity
 _atom_site_fract_x
 _atom_site_fract_y
 _atom_site_fract_z
 _atom_site_occupancy
  K  K0  1  0.43320700  0.00000000  0.30779200  1
  K  K1  1  0.56679300  0.00000000  0.69220800  1
  K  K2  1  0.08243200  0.00000000  0.18373000  1
  K  K3  1  0.91756800  0.00000000  0.81627000  1
  K  K4  1  0.93320700  0.50000000  0.30779200  1
  K  K5  1  0.06679300  0.50000000  0.69220800  1
  K  K6  1  0.58243200  0.50000000  0.18373000  1
  K  K7  1  0.41756800  0.50000000  0.81627000  1
  Te  Te8  1  0.00000000  0.00000000  0.50000000  1
  Te  Te9  1  0.73583000  0.00000000  0.25775400  1
  Te  Te10  1  0.50000000  0.00000000  0.00000000  1
  Te  Te11  1  0.26417000  0.00000000  0.74224600  1
  Te  Te12  1  0.75000000  0.75000000  0.50000000  1
  Te  Te13  1  0.75000000  0.25000000  0.00000000  1
  Te  Te14  1  0.75000000  0.75000000  0.00000000  1
  Te  Te15  1  0.75000000  0.25000000  0.50000000  1
  Te  Te16  1  0.50000000  0.50000000  0.50000000  1
  Te  Te17  1  0.23583000  0.50000000  0.25775400  1
  Te  Te18  1  0.00000000  0.50000000  0.00000000  1
  Te  Te19  1  0.76417000  0.50000000  0.74224600  1
  Te  Te20  1  0.25000000  0.25000000  0.50000000  1
  Te  Te21  1  0.25000000  0.75000000  0.00000000  1
  Te  Te22  1  0.25000000  0.25000000  0.00000000  1
  Te  Te23  1  0.25000000  0.75000000  0.50000000  1
  O  O24  1  0.00349200  0.00000000  0.65120500  1
  O  O25  1  0.74082000  0.00000000  0.55908400  1
  O  O26  1  0.80682900  0.00000000  0.01785300  1
  O  O27  1  0.19317100  0.00000000  0.98214700  1
  O  O28  1  0.38360950  0.70156250  0.45514300  1
  O  O29  1  0.74607000  0.24617900  0.84310700  1
  O  O30  1  0.61639050  0.70156250  0.54485700  1
  O  O31  1  0.66687250  0.18579850  0.34472100  1
  O  O32  1  0.61639050  0.29843750  0.54485700  1
  O  O33  1  0.58785800  0.18861100  0.95395500  1
  O  O34  1  0.33312750  0.18579850  0.65527900  1
  O  O35  1  0.25393000  0.24617900  0.15689300  1
  O  O36  1  0.41214200  0.18861100  0.04604500  1
  O  O37  1  0.41727800  0.00000000  0.83904300  1
  O  O38  1  0.74607000  0.75382100  0.84310700  1
  O  O39  1  0.58785800  0.81138900  0.95395500  1
  O  O40  1  0.25918000  0.00000000  0.44091600  1
  O  O41  1  0.33312750  0.81420150  0.65527900  1
  O  O42  1  0.58272200  0.00000000  0.16095700  1
  O  O43  1  0.25393000  0.75382100  0.15689300  1
  O  O44  1  0.41214200  0.81138900  0.04604500  1
  O  O45  1  0.66687250  0.81420150  0.34472100  1
  O  O46  1  0.99650800  0.00000000  0.34879500  1
  O  O47  1  0.38360950  0.29843750  0.45514300  1
  O  O48  1  0.50349200  0.50000000  0.65120500  1
  O  O49  1  0.24082000  0.50000000  0.55908400  1
  O  O50  1  0.30682900  0.50000000  0.01785300  1
  O  O51  1  0.69317100  0.50000000  0.98214700  1
  O  O52  1  0.88360950  0.20156250  0.45514300  1
  O  O53  1  0.24607000  0.74617900  0.84310700  1
  O  O54  1  0.11639050  0.20156250  0.54485700  1
  O  O55  1  0.16687250  0.68579850  0.34472100  1
  O  O56  1  0.11639050  0.79843750  0.54485700  1
  O  O57  1  0.08785800  0.68861100  0.95395500  1
  O  O58  1  0.83312750  0.68579850  0.65527900  1
  O  O59  1  0.75393000  0.74617900  0.15689300  1
  O  O60  1  0.91214200  0.68861100  0.04604500  1
  O  O61  1  0.91727800  0.50000000  0.83904300  1
  O  O62  1  0.24607000  0.25382100  0.84310700  1
  O  O63  1  0.08785800  0.31138900  0.95395500  1
  O  O64  1  0.75918000  0.50000000  0.44091600  1
  O  O65  1  0.83312750  0.31420150  0.65527900  1
  O  O66  1  0.08272200  0.50000000  0.16095700  1
  O  O67  1  0.75393000  0.25382100  0.15689300  1
  O  O68  1  0.91214200  0.31138900  0.04604500  1
  O  O69  1  0.16687250  0.31420150  0.34472100  1
  O  O70  1  0.49650800  0.50000000  0.34879500  1
  O  O71  1  0.88360950  0.79843750  0.45514300  1
