# generated using pymatgen
data_Yb(AlCl4)2
_symmetry_space_group_name_H-M   'P 1'
_cell_length_a   11.56082400
_cell_length_b   11.56082400
_cell_length_c   19.83036600
_cell_angle_alpha   90.00000000
_cell_angle_beta   90.00000000
_cell_angle_gamma   90.00000000
_symmetry_Int_Tables_number   1
_chemical_formula_structural   Yb(AlCl4)2
_chemical_formula_sum   'Yb8 Al16 Cl64'
_cell_volume   2650.38099728
_cell_formula_units_Z   8
loop_
 _symmetry_equiv_pos_site_id
 _symmetry_equiv_pos_as_xyz
  1  'x, y, z'
loop_
 _atom_site_type_symbol
 _atom_site_label
 _atom_site_symmetry_multiplicity
 _atom_site_fract_x
 _atom_site_fract_y
 _atom_site_fract_z
 _atom_site_occupancy
  Yb  Yb0  1  0.50000000  0.00000000  0.25000000  1
  Yb  Yb1  1  0.50000000  0.50000000  0.00000000  1
  Yb  Yb2  1  0.00000000  0.00000000  0.00000000  1
  Yb  Yb3  1  0.00000000  0.50000000  0.25000000  1
  Yb  Yb4  1  0.00000000  0.50000000  0.75000000  1
  Yb  Yb5  1  0.00000000  0.00000000  0.50000000  1
  Yb  Yb6  1  0.50000000  0.50000000  0.50000000  1
  Yb  Yb7  1  0.50000000  0.00000000  0.75000000  1
  Al  Al8  1  0.47463500  0.25000000  0.37500000  1
  Al  Al9  1  0.02536500  0.75000000  0.37500000  1
  Al  Al10  1  0.25000000  0.97463500  0.12500000  1
  Al  Al11  1  0.52536500  0.75000000  0.37500000  1
  Al  Al12  1  0.75000000  0.02536500  0.12500000  1
  Al  Al13  1  0.97463500  0.25000000  0.37500000  1
  Al  Al14  1  0.25000000  0.47463500  0.12500000  1
  Al  Al15  1  0.75000000  0.52536500  0.12500000  1
  Al  Al16  1  0.97463500  0.75000000  0.87500000  1
  Al  Al17  1  0.52536500  0.25000000  0.87500000  1
  Al  Al18  1  0.75000000  0.47463500  0.62500000  1
  Al  Al19  1  0.02536500  0.25000000  0.87500000  1
  Al  Al20  1  0.25000000  0.52536500  0.62500000  1
  Al  Al21  1  0.47463500  0.75000000  0.87500000  1
  Al  Al22  1  0.75000000  0.97463500  0.62500000  1
  Al  Al23  1  0.25000000  0.02536500  0.62500000  1
  Cl  Cl24  1  0.40732550  0.87564650  0.12200850  1
  Cl  Cl25  1  0.72015400  0.91838100  0.21328400  1
  Cl  Cl26  1  0.37564650  0.40732550  0.37200850  1
  Cl  Cl27  1  0.09267450  0.37564650  0.12200850  1
  Cl  Cl28  1  0.22015400  0.58161900  0.21328400  1
  Cl  Cl29  1  0.77984600  0.41838100  0.21328400  1
  Cl  Cl30  1  0.91838100  0.77984600  0.46328400  1
  Cl  Cl31  1  0.91838100  0.72015400  0.28671600  1
  Cl  Cl32  1  0.59267450  0.62435350  0.12799150  1
  Cl  Cl33  1  0.59267450  0.12435350  0.12200850  1
  Cl  Cl34  1  0.12435350  0.90732550  0.37200850  1
  Cl  Cl35  1  0.22015400  0.08161900  0.03671600  1
  Cl  Cl36  1  0.72015400  0.41838100  0.03671600  1
  Cl  Cl37  1  0.12435350  0.59267450  0.37799150  1
  Cl  Cl38  1  0.87564650  0.40732550  0.37799150  1
  Cl  Cl39  1  0.27984600  0.08161900  0.21328400  1
  Cl  Cl40  1  0.87564650  0.09267450  0.37200850  1
  Cl  Cl41  1  0.41838100  0.72015400  0.46328400  1
  Cl  Cl42  1  0.58161900  0.27984600  0.46328400  1
  Cl  Cl43  1  0.41838100  0.77984600  0.28671600  1
  Cl  Cl44  1  0.08161900  0.22015400  0.46328400  1
  Cl  Cl45  1  0.27984600  0.58161900  0.03671600  1
  Cl  Cl46  1  0.90732550  0.62435350  0.12200850  1
  Cl  Cl47  1  0.58161900  0.22015400  0.28671600  1
  Cl  Cl48  1  0.37564650  0.09267450  0.37799150  1
  Cl  Cl49  1  0.09267450  0.87564650  0.12799150  1
  Cl  Cl50  1  0.62435350  0.90732550  0.37799150  1
  Cl  Cl51  1  0.08161900  0.27984600  0.28671600  1
  Cl  Cl52  1  0.62435350  0.59267450  0.37200850  1
  Cl  Cl53  1  0.90732550  0.12435350  0.12799150  1
  Cl  Cl54  1  0.40732550  0.37564650  0.12799150  1
  Cl  Cl55  1  0.77984600  0.91838100  0.03671600  1
  Cl  Cl56  1  0.90732550  0.37564650  0.62200850  1
  Cl  Cl57  1  0.22015400  0.41838100  0.71328400  1
  Cl  Cl58  1  0.87564650  0.90732550  0.87200850  1
  Cl  Cl59  1  0.59267450  0.87564650  0.62200850  1
  Cl  Cl60  1  0.72015400  0.08161900  0.71328400  1
  Cl  Cl61  1  0.27984600  0.91838100  0.71328400  1
  Cl  Cl62  1  0.41838100  0.27984600  0.96328400  1
  Cl  Cl63  1  0.41838100  0.22015400  0.78671600  1
  Cl  Cl64  1  0.09267450  0.12435350  0.62799150  1
  Cl  Cl65  1  0.09267450  0.62435350  0.62200850  1
  Cl  Cl66  1  0.62435350  0.40732550  0.87200850  1
  Cl  Cl67  1  0.72015400  0.58161900  0.53671600  1
  Cl  Cl68  1  0.22015400  0.91838100  0.53671600  1
  Cl  Cl69  1  0.62435350  0.09267450  0.87799150  1
  Cl  Cl70  1  0.37564650  0.90732550  0.87799150  1
  Cl  Cl71  1  0.77984600  0.58161900  0.71328400  1
  Cl  Cl72  1  0.37564650  0.59267450  0.87200850  1
  Cl  Cl73  1  0.91838100  0.22015400  0.96328400  1
  Cl  Cl74  1  0.08161900  0.77984600  0.96328400  1
  Cl  Cl75  1  0.91838100  0.27984600  0.78671600  1
  Cl  Cl76  1  0.58161900  0.72015400  0.96328400  1
  Cl  Cl77  1  0.77984600  0.08161900  0.53671600  1
  Cl  Cl78  1  0.40732550  0.12435350  0.62200850  1
  Cl  Cl79  1  0.08161900  0.72015400  0.78671600  1
  Cl  Cl80  1  0.87564650  0.59267450  0.87799150  1
  Cl  Cl81  1  0.59267450  0.37564650  0.62799150  1
  Cl  Cl82  1  0.12435350  0.40732550  0.87799150  1
  Cl  Cl83  1  0.58161900  0.77984600  0.78671600  1
  Cl  Cl84  1  0.12435350  0.09267450  0.87200850  1
  Cl  Cl85  1  0.40732550  0.62435350  0.62799150  1
  Cl  Cl86  1  0.90732550  0.87564650  0.62799150  1
  Cl  Cl87  1  0.27984600  0.41838100  0.53671600  1
