# generated using pymatgen
data_Pr3CCl5
_symmetry_space_group_name_H-M   'P 1'
_cell_length_a   14.13149000
_cell_length_b   8.80508000
_cell_length_c   16.00402965
_cell_angle_alpha   90.00000000
_cell_angle_beta   97.33614625
_cell_angle_gamma   90.00000000
_symmetry_Int_Tables_number   1
_chemical_formula_structural   Pr3CCl5
_chemical_formula_sum   'Pr24 C8 Cl40'
_cell_volume   1975.06266665
_cell_formula_units_Z   8
loop_
 _symmetry_equiv_pos_site_id
 _symmetry_equiv_pos_as_xyz
  1  'x, y, z'
loop_
 _atom_site_type_symbol
 _atom_site_label
 _atom_site_symmetry_multiplicity
 _atom_site_fract_x
 _atom_site_fract_y
 _atom_site_fract_z
 _atom_site_occupancy
  Pr  Pr0  1  0.21702950  0.87341950  0.70224300  1
  Pr  Pr1  1  0.37143500  0.91435200  0.06248300  1
  Pr  Pr2  1  0.78297050  0.12658050  0.29775700  1
  Pr  Pr3  1  0.62856500  0.91435200  0.43751700  1
  Pr  Pr4  1  0.64300800  0.35326400  0.45429400  1
  Pr  Pr5  1  0.78297050  0.87341950  0.79775700  1
  Pr  Pr6  1  0.35699200  0.35326400  0.04570600  1
  Pr  Pr7  1  0.62856500  0.08564800  0.93751700  1
  Pr  Pr8  1  0.35699200  0.64673600  0.54570600  1
  Pr  Pr9  1  0.37143500  0.08564800  0.56248300  1
  Pr  Pr10  1  0.21702950  0.12658050  0.20224300  1
  Pr  Pr11  1  0.64300800  0.64673600  0.95429400  1
  Pr  Pr12  1  0.71702950  0.37341950  0.70224300  1
  Pr  Pr13  1  0.87143500  0.41435200  0.06248300  1
  Pr  Pr14  1  0.28297050  0.62658050  0.29775700  1
  Pr  Pr15  1  0.12856500  0.41435200  0.43751700  1
  Pr  Pr16  1  0.14300800  0.85326400  0.45429400  1
  Pr  Pr17  1  0.28297050  0.37341950  0.79775700  1
  Pr  Pr18  1  0.85699200  0.85326400  0.04570600  1
  Pr  Pr19  1  0.12856500  0.58564800  0.93751700  1
  Pr  Pr20  1  0.85699200  0.14673600  0.54570600  1
  Pr  Pr21  1  0.87143500  0.58564800  0.56248300  1
  Pr  Pr22  1  0.71702950  0.62658050  0.20224300  1
  Pr  Pr23  1  0.14300800  0.14673600  0.95429400  1
  C  C24  1  0.72942850  0.12017350  0.42967400  1
  C  C25  1  0.27057150  0.12017350  0.07032600  1
  C  C26  1  0.72942850  0.87982650  0.92967400  1
  C  C27  1  0.27057150  0.87982650  0.57032600  1
  C  C28  1  0.22942850  0.62017350  0.42967400  1
  C  C29  1  0.77057150  0.62017350  0.07032600  1
  C  C30  1  0.22942850  0.37982650  0.92967400  1
  C  C31  1  0.77057150  0.37982650  0.57032600  1
  Cl  Cl32  1  0.48271700  0.13512500  0.42094800  1
  Cl  Cl33  1  0.51728300  0.86487500  0.57905200  1
  Cl  Cl34  1  0.63580750  0.35313350  0.26532600  1
  Cl  Cl35  1  0.52904700  0.37622400  0.59895600  1
  Cl  Cl36  1  0.47095300  0.62377600  0.40104400  1
  Cl  Cl37  1  0.36419250  0.64686650  0.73467400  1
  Cl  Cl38  1  0.37103400  0.09205600  0.74172100  1
  Cl  Cl39  1  0.76254450  0.13918750  0.09251000  1
  Cl  Cl40  1  0.51728300  0.13512500  0.07905200  1
  Cl  Cl41  1  0.62896600  0.90794400  0.25827900  1
  Cl  Cl42  1  0.37103400  0.90794400  0.24172100  1
  Cl  Cl43  1  0.63580750  0.64686650  0.76532600  1
  Cl  Cl44  1  0.52904700  0.62377600  0.09895600  1
  Cl  Cl45  1  0.47095300  0.37622400  0.90104400  1
  Cl  Cl46  1  0.23745550  0.13918750  0.40749000  1
  Cl  Cl47  1  0.76254450  0.86081250  0.59251000  1
  Cl  Cl48  1  0.62896600  0.09205600  0.75827900  1
  Cl  Cl49  1  0.36419250  0.35313350  0.23467400  1
  Cl  Cl50  1  0.23745550  0.86081250  0.90749000  1
  Cl  Cl51  1  0.48271700  0.86487500  0.92094800  1
  Cl  Cl52  1  0.98271700  0.63512500  0.42094800  1
  Cl  Cl53  1  0.01728300  0.36487500  0.57905200  1
  Cl  Cl54  1  0.13580750  0.85313350  0.26532600  1
  Cl  Cl55  1  0.02904700  0.87622400  0.59895600  1
  Cl  Cl56  1  0.97095300  0.12377600  0.40104400  1
  Cl  Cl57  1  0.86419250  0.14686650  0.73467400  1
  Cl  Cl58  1  0.87103400  0.59205600  0.74172100  1
  Cl  Cl59  1  0.26254450  0.63918750  0.09251000  1
  Cl  Cl60  1  0.01728300  0.63512500  0.07905200  1
  Cl  Cl61  1  0.12896600  0.40794400  0.25827900  1
  Cl  Cl62  1  0.87103400  0.40794400  0.24172100  1
  Cl  Cl63  1  0.13580750  0.14686650  0.76532600  1
  Cl  Cl64  1  0.02904700  0.12377600  0.09895600  1
  Cl  Cl65  1  0.97095300  0.87622400  0.90104400  1
  Cl  Cl66  1  0.73745550  0.63918750  0.40749000  1
  Cl  Cl67  1  0.26254450  0.36081250  0.59251000  1
  Cl  Cl68  1  0.12896600  0.59205600  0.75827900  1
  Cl  Cl69  1  0.86419250  0.85313350  0.23467400  1
  Cl  Cl70  1  0.73745550  0.36081250  0.90749000  1
  Cl  Cl71  1  0.98271700  0.36487500  0.92094800  1
