# generated using pymatgen
data_CsV2O5
_symmetry_space_group_name_H-M   'P 1'
_cell_length_a   7.44176000
_cell_length_b   10.00155700
_cell_length_c   7.97414605
_cell_angle_alpha   90.00000000
_cell_angle_beta   90.60940928
_cell_angle_gamma   90.00000000
_symmetry_Int_Tables_number   1
_chemical_formula_structural   CsV2O5
_chemical_formula_sum   'Cs4 V8 O20'
_cell_volume   593.47563480
_cell_formula_units_Z   4
loop_
 _symmetry_equiv_pos_site_id
 _symmetry_equiv_pos_as_xyz
  1  'x, y, z'
loop_
 _atom_site_type_symbol
 _atom_site_label
 _atom_site_symmetry_multiplicity
 _atom_site_fract_x
 _atom_site_fract_y
 _atom_site_fract_z
 _atom_site_occupancy
  Cs  Cs0  1  0.40139900  0.12617500  0.76909600  1
  Cs  Cs1  1  0.59860100  0.62617500  0.73090400  1
  Cs  Cs2  1  0.59860100  0.87382500  0.23090400  1
  Cs  Cs3  1  0.40139900  0.37382500  0.26909600  1
  V  V4  1  0.88801100  0.97704900  0.66404400  1
  V  V5  1  0.11198900  0.47704900  0.83595600  1
  V  V6  1  0.11198900  0.02295100  0.33595600  1
  V  V7  1  0.88801100  0.52295100  0.16404400  1
  V  V8  1  0.87881200  0.20484000  0.01228900  1
  V  V9  1  0.12118800  0.70484000  0.48771100  1
  V  V10  1  0.12118800  0.79516000  0.98771100  1
  V  V11  1  0.87881200  0.29516000  0.51228900  1
  O  O12  1  0.89194200  0.12814000  0.81509300  1
  O  O13  1  0.10805800  0.62814000  0.68490700  1
  O  O14  1  0.10805800  0.87186000  0.18490700  1
  O  O15  1  0.89194200  0.37186000  0.31509300  1
  O  O16  1  0.67067500  0.18080000  0.08120600  1
  O  O17  1  0.32932500  0.68080000  0.41879400  1
  O  O18  1  0.32932500  0.81920000  0.91879400  1
  O  O19  1  0.67067500  0.31920000  0.58120600  1
  O  O20  1  0.31867400  0.07571300  0.37924000  1
  O  O21  1  0.68132600  0.57571300  0.12076000  1
  O  O22  1  0.68132600  0.92428700  0.62076000  1
  O  O23  1  0.31867400  0.42428700  0.87924000  1
  O  O24  1  0.03905500  0.13274600  0.14428200  1
  O  O25  1  0.96094500  0.63274600  0.35571800  1
  O  O26  1  0.96094500  0.86725400  0.85571800  1
  O  O27  1  0.03905500  0.36725400  0.64428200  1
  O  O28  1  0.93488400  0.11493300  0.48231900  1
  O  O29  1  0.06511600  0.61493300  0.01768100  1
  O  O30  1  0.06511600  0.88506700  0.51768100  1
  O  O31  1  0.93488400  0.38506700  0.98231900  1
