# generated using pymatgen
data_SrTaNO2
_symmetry_space_group_name_H-M   'P 1'
_cell_length_a   5.67649200
_cell_length_b   5.67649200
_cell_length_c   8.25260000
_cell_angle_alpha   90.00000000
_cell_angle_beta   90.00000000
_cell_angle_gamma   90.00000000
_symmetry_Int_Tables_number   1
_chemical_formula_structural   SrTaNO2
_chemical_formula_sum   'Sr4 Ta4 N4 O8'
_cell_volume   265.91991042
_cell_formula_units_Z   4
loop_
 _symmetry_equiv_pos_site_id
 _symmetry_equiv_pos_as_xyz
  1  'x, y, z'
loop_
 _atom_site_type_symbol
 _atom_site_label
 _atom_site_symmetry_multiplicity
 _atom_site_fract_x
 _atom_site_fract_y
 _atom_site_fract_z
 _atom_site_occupancy
  Sr  Sr0  1  0.00000000  0.50000000  0.25000000  1
  Sr  Sr1  1  0.50000000  0.00000000  0.25000000  1
  Sr  Sr2  1  0.50000000  0.00000000  0.75000000  1
  Sr  Sr3  1  0.00000000  0.50000000  0.75000000  1
  Ta  Ta4  1  0.50000000  0.50000000  0.00000000  1
  Ta  Ta5  1  0.00000000  0.00000000  0.00000000  1
  Ta  Ta6  1  0.00000000  0.00000000  0.50000000  1
  Ta  Ta7  1  0.50000000  0.50000000  0.50000000  1
  N  N8  1  0.50000000  0.50000000  0.25000000  1
  N  N9  1  0.00000000  0.00000000  0.25000000  1
  N  N10  1  0.00000000  0.00000000  0.75000000  1
  N  N11  1  0.50000000  0.50000000  0.75000000  1
  O  O12  1  0.79457250  0.29457250  0.50000000  1
  O  O13  1  0.20542750  0.29457250  0.00000000  1
  O  O14  1  0.70542750  0.20542750  0.00000000  1
  O  O15  1  0.79457250  0.70542750  0.00000000  1
  O  O16  1  0.29457250  0.79457250  0.00000000  1
  O  O17  1  0.70542750  0.79457250  0.50000000  1
  O  O18  1  0.20542750  0.70542750  0.50000000  1
  O  O19  1  0.29457250  0.20542750  0.50000000  1
