# generated using pymatgen
data_NaSbCO2F3
_symmetry_space_group_name_H-M   'P 1'
_cell_length_a   17.51333000
_cell_length_b   6.42600400
_cell_length_c   8.49297259
_cell_angle_alpha   90.00000000
_cell_angle_beta   96.90386746
_cell_angle_gamma   90.00000000
_symmetry_Int_Tables_number   1
_chemical_formula_structural   NaSbCO2F3
_chemical_formula_sum   'Na8 Sb8 C8 O16 F24'
_cell_volume   948.87499907
_cell_formula_units_Z   8
loop_
 _symmetry_equiv_pos_site_id
 _symmetry_equiv_pos_as_xyz
  1  'x, y, z'
loop_
 _atom_site_type_symbol
 _atom_site_label
 _atom_site_symmetry_multiplicity
 _atom_site_fract_x
 _atom_site_fract_y
 _atom_site_fract_z
 _atom_site_occupancy
  Na  Na0  1  0.78968550  0.11584550  0.17619100  1
  Na  Na1  1  0.78968550  0.88415450  0.67619100  1
  Na  Na2  1  0.71031450  0.61584550  0.32380900  1
  Na  Na3  1  0.71031450  0.38415450  0.82380900  1
  Na  Na4  1  0.28968550  0.61584550  0.17619100  1
  Na  Na5  1  0.28968550  0.38415450  0.67619100  1
  Na  Na6  1  0.21031450  0.11584550  0.32380900  1
  Na  Na7  1  0.21031450  0.88415450  0.82380900  1
  Sb  Sb8  1  0.60545100  0.12501900  0.39455400  1
  Sb  Sb9  1  0.60545100  0.87498100  0.89455400  1
  Sb  Sb10  1  0.89454900  0.62501900  0.10544600  1
  Sb  Sb11  1  0.89454900  0.37498100  0.60544600  1
  Sb  Sb12  1  0.10545100  0.62501900  0.39455400  1
  Sb  Sb13  1  0.10545100  0.37498100  0.89455400  1
  Sb  Sb14  1  0.39454900  0.12501900  0.10544600  1
  Sb  Sb15  1  0.39454900  0.87498100  0.60544600  1
  C  C16  1  0.53168550  0.42735950  0.97247600  1
  C  C17  1  0.96831450  0.07264050  0.02752400  1
  C  C18  1  0.96831450  0.92735950  0.52752400  1
  C  C19  1  0.53168550  0.57264050  0.47247600  1
  C  C20  1  0.03168550  0.92735950  0.97247600  1
  C  C21  1  0.46831450  0.57264050  0.02752400  1
  C  C22  1  0.46831450  0.42735950  0.52752400  1
  C  C23  1  0.03168550  0.07264050  0.47247600  1
  O  O24  1  0.97211000  0.26385500  0.99628700  1
  O  O25  1  0.58310050  0.51238250  0.89909500  1
  O  O26  1  0.97211000  0.73614500  0.49628700  1
  O  O27  1  0.91689950  0.01238250  0.60090500  1
  O  O28  1  0.52789000  0.23614500  0.00371300  1
  O  O29  1  0.52789000  0.76385500  0.50371300  1
  O  O30  1  0.58310050  0.48761750  0.39909500  1
  O  O31  1  0.91689950  0.98761750  0.10090500  1
  O  O32  1  0.47211000  0.76385500  0.99628700  1
  O  O33  1  0.08310050  0.01238250  0.89909500  1
  O  O34  1  0.47211000  0.23614500  0.49628700  1
  O  O35  1  0.41689950  0.51238250  0.60090500  1
  O  O36  1  0.02789000  0.73614500  0.00371300  1
  O  O37  1  0.02789000  0.26385500  0.50371300  1
  O  O38  1  0.08310050  0.98761750  0.39909500  1
  O  O39  1  0.41689950  0.48761750  0.10090500  1
  F  F40  1  0.69356350  0.26801150  0.30426900  1
  F  F41  1  0.63388550  0.19387850  0.62093700  1
  F  F42  1  0.80643650  0.76801150  0.19573100  1
  F  F43  1  0.86611450  0.30612150  0.37906300  1
  F  F44  1  0.80711850  0.41484850  0.04767200  1
  F  F45  1  0.69288150  0.08515150  0.95232800  1
  F  F46  1  0.80711850  0.58515150  0.54767200  1
  F  F47  1  0.86611450  0.69387850  0.87906300  1
  F  F48  1  0.69356350  0.73198850  0.80426900  1
  F  F49  1  0.69288150  0.91484850  0.45232800  1
  F  F50  1  0.80643650  0.23198850  0.69573100  1
  F  F51  1  0.63388550  0.80612150  0.12093700  1
  F  F52  1  0.19356350  0.76801150  0.30426900  1
  F  F53  1  0.13388550  0.69387850  0.62093700  1
  F  F54  1  0.30643650  0.26801150  0.19573100  1
  F  F55  1  0.36611450  0.80612150  0.37906300  1
  F  F56  1  0.30711850  0.91484850  0.04767200  1
  F  F57  1  0.19288150  0.58515150  0.95232800  1
  F  F58  1  0.30711850  0.08515150  0.54767200  1
  F  F59  1  0.36611450  0.19387850  0.87906300  1
  F  F60  1  0.19356350  0.23198850  0.80426900  1
  F  F61  1  0.19288150  0.41484850  0.45232800  1
  F  F62  1  0.30643650  0.73198850  0.69573100  1
  F  F63  1  0.13388550  0.30612150  0.12093700  1
