# generated using pymatgen
data_RbTm(PO3)4
_symmetry_space_group_name_H-M   'P 1'
_cell_length_a   10.35429000
_cell_length_b   8.89393000
_cell_length_c   12.81651322
_cell_angle_alpha   90.00000000
_cell_angle_beta   124.14342717
_cell_angle_gamma   90.00000000
_symmetry_Int_Tables_number   1
_chemical_formula_structural   RbTm(PO3)4
_chemical_formula_sum   'Rb4 Tm4 P16 O48'
_cell_volume   976.83869505
_cell_formula_units_Z   4
loop_
 _symmetry_equiv_pos_site_id
 _symmetry_equiv_pos_as_xyz
  1  'x, y, z'
loop_
 _atom_site_type_symbol
 _atom_site_label
 _atom_site_symmetry_multiplicity
 _atom_site_fract_x
 _atom_site_fract_y
 _atom_site_fract_z
 _atom_site_occupancy
  Rb  Rb0  1  0.76804300  0.93547500  0.95854100  1
  Rb  Rb1  1  0.23195700  0.43547500  0.54145900  1
  Rb  Rb2  1  0.23195700  0.06452500  0.04145900  1
  Rb  Rb3  1  0.76804300  0.56452500  0.45854100  1
  Tm  Tm4  1  0.31512800  0.72711400  0.81708800  1
  Tm  Tm5  1  0.68487200  0.22711400  0.68291200  1
  Tm  Tm6  1  0.68487200  0.27288600  0.18291200  1
  Tm  Tm7  1  0.31512800  0.77288600  0.31708800  1
  P  P8  1  0.97407000  0.97467700  0.72012200  1
  P  P9  1  0.02593000  0.47467700  0.77987800  1
  P  P10  1  0.02593000  0.02532300  0.27987800  1
  P  P11  1  0.97407000  0.52532300  0.22012200  1
  P  P12  1  0.67333000  0.82927900  0.63251500  1
  P  P13  1  0.32667000  0.32927900  0.86748500  1
  P  P14  1  0.32667000  0.17072100  0.36748500  1
  P  P15  1  0.67333000  0.67072100  0.13251500  1
  P  P16  1  0.60936200  0.59070800  0.75779400  1
  P  P17  1  0.39063800  0.09070800  0.74220600  1
  P  P18  1  0.39063800  0.40929200  0.24220600  1
  P  P19  1  0.60936200  0.90929200  0.25779400  1
  P  P20  1  0.19928400  0.88738900  0.52398100  1
  P  P21  1  0.80071600  0.38738900  0.97601900  1
  P  P22  1  0.80071600  0.11261100  0.47601900  1
  P  P23  1  0.19928400  0.61261100  0.02398100  1
  O  O24  1  0.03819000  0.54929400  0.90120600  1
  O  O25  1  0.96181000  0.04929400  0.59879400  1
  O  O26  1  0.96181000  0.45070600  0.09879400  1
  O  O27  1  0.03819000  0.95070600  0.40120600  1
  O  O28  1  0.42416300  0.95654500  0.82476600  1
  O  O29  1  0.57583700  0.45654500  0.67523400  1
  O  O30  1  0.57583700  0.04345500  0.17523400  1
  O  O31  1  0.42416300  0.54345500  0.32476600  1
  O  O32  1  0.13285300  0.90556600  0.80061300  1
  O  O33  1  0.86714700  0.40556600  0.69938700  1
  O  O34  1  0.86714700  0.09443400  0.19938700  1
  O  O35  1  0.13285300  0.59443400  0.30061300  1
  O  O36  1  0.47548300  0.67515200  0.74376300  1
  O  O37  1  0.52451700  0.17515200  0.75623700  1
  O  O38  1  0.52451700  0.32484800  0.25623700  1
  O  O39  1  0.47548300  0.82484800  0.24376300  1
  O  O40  1  0.07318200  0.58540000  0.71815000  1
  O  O41  1  0.92681800  0.08540000  0.78185000  1
  O  O42  1  0.92681800  0.41460000  0.28185000  1
  O  O43  1  0.07318200  0.91460000  0.21815000  1
  O  O44  1  0.63107700  0.97432500  0.66581600  1
  O  O45  1  0.36892300  0.47432500  0.83418400  1
  O  O46  1  0.36892300  0.02567500  0.33418400  1
  O  O47  1  0.63107700  0.52567500  0.16581600  1
  O  O48  1  0.84423500  0.84131200  0.65570000  1
  O  O49  1  0.15576500  0.34131200  0.84430000  1
  O  O50  1  0.15576500  0.15868800  0.34430000  1
  O  O51  1  0.84423500  0.65868800  0.15570000  1
  O  O52  1  0.71824000  0.70976800  0.74421500  1
  O  O53  1  0.28176000  0.20976800  0.75578500  1
  O  O54  1  0.28176000  0.29023200  0.25578500  1
  O  O55  1  0.71824000  0.79023200  0.24421500  1
  O  O56  1  0.29698500  0.67109800  0.98041600  1
  O  O57  1  0.70301500  0.17109800  0.51958400  1
  O  O58  1  0.70301500  0.32890200  0.01958400  1
  O  O59  1  0.29698500  0.82890200  0.48041600  1
  O  O60  1  0.16522100  0.78479900  0.59880200  1
  O  O61  1  0.83477900  0.28479900  0.90119800  1
  O  O62  1  0.83477900  0.21520100  0.40119800  1
  O  O63  1  0.16522100  0.71520100  0.09880200  1
  O  O64  1  0.73127600  0.54654300  0.90323300  1
  O  O65  1  0.26872400  0.04654300  0.59676700  1
  O  O66  1  0.26872400  0.45345700  0.09676700  1
  O  O67  1  0.73127600  0.95345700  0.40323300  1
  O  O68  1  0.56806000  0.75816600  0.50587300  1
  O  O69  1  0.43194000  0.25816600  0.99412700  1
  O  O70  1  0.43194000  0.24183400  0.49412700  1
  O  O71  1  0.56806000  0.74183400  0.00587300  1
