# generated using pymatgen
data_CsAlSiO4
_symmetry_space_group_name_H-M   'P 1'
_cell_length_a   5.50247000
_cell_length_b   9.01174300
_cell_length_c   9.59451400
_cell_angle_alpha   90.00000000
_cell_angle_beta   90.00000000
_cell_angle_gamma   90.00000000
_symmetry_Int_Tables_number   1
_chemical_formula_structural   CsAlSiO4
_chemical_formula_sum   'Cs4 Al4 Si4 O16'
_cell_volume   475.76168342
_cell_formula_units_Z   4
loop_
 _symmetry_equiv_pos_site_id
 _symmetry_equiv_pos_as_xyz
  1  'x, y, z'
loop_
 _atom_site_type_symbol
 _atom_site_label
 _atom_site_symmetry_multiplicity
 _atom_site_fract_x
 _atom_site_fract_y
 _atom_site_fract_z
 _atom_site_occupancy
  Cs  Cs0  1  0.75000000  0.49953800  0.80116400  1
  Cs  Cs1  1  0.25000000  0.50046200  0.19883600  1
  Cs  Cs2  1  0.25000000  0.00046200  0.30116400  1
  Cs  Cs3  1  0.75000000  0.99953800  0.69883600  1
  Al  Al4  1  0.75000000  0.31692800  0.41575300  1
  Al  Al5  1  0.75000000  0.81692800  0.08424700  1
  Al  Al6  1  0.25000000  0.68307200  0.58424700  1
  Al  Al7  1  0.25000000  0.18307200  0.91575300  1
  Si  Si8  1  0.25000000  0.80964200  0.91553100  1
  Si  Si9  1  0.25000000  0.30964200  0.58446900  1
  Si  Si10  1  0.75000000  0.69035800  0.41553100  1
  Si  Si11  1  0.75000000  0.19035800  0.08446900  1
  O  O12  1  0.75000000  0.25336200  0.24367200  1
  O  O13  1  0.50789500  0.75344500  0.49695000  1
  O  O14  1  0.99210500  0.75344500  0.49695000  1
  O  O15  1  0.99210500  0.25344500  0.00305000  1
  O  O16  1  0.75000000  0.75336200  0.25632800  1
  O  O17  1  0.25000000  0.74663800  0.75632800  1
  O  O18  1  0.49210500  0.24655500  0.50305000  1
  O  O19  1  0.25000000  0.24663800  0.74367200  1
  O  O20  1  0.00789500  0.24655500  0.50305000  1
  O  O21  1  0.00789500  0.74655500  0.99695000  1
  O  O22  1  0.25000000  0.48980100  0.58812500  1
  O  O23  1  0.50789500  0.25344500  0.00305000  1
  O  O24  1  0.49210500  0.74655500  0.99695000  1
  O  O25  1  0.75000000  0.51019900  0.41187500  1
  O  O26  1  0.25000000  0.98980100  0.91187500  1
  O  O27  1  0.75000000  0.01019900  0.08812500  1
