# generated using pymatgen
data_TaAgS3
_symmetry_space_group_name_H-M   'P 1'
_cell_length_a   3.39192400
_cell_length_b   14.36227000
_cell_length_c   7.78558500
_cell_angle_alpha   90.00000000
_cell_angle_beta   90.00000000
_cell_angle_gamma   90.00000000
_symmetry_Int_Tables_number   1
_chemical_formula_structural   TaAgS3
_chemical_formula_sum   'Ta4 Ag4 S12'
_cell_volume   379.28044357
_cell_formula_units_Z   4
loop_
 _symmetry_equiv_pos_site_id
 _symmetry_equiv_pos_as_xyz
  1  'x, y, z'
loop_
 _atom_site_type_symbol
 _atom_site_label
 _atom_site_symmetry_multiplicity
 _atom_site_fract_x
 _atom_site_fract_y
 _atom_site_fract_z
 _atom_site_occupancy
  Ta  Ta0  1  0.50000000  0.23714400  0.48932400  1
  Ta  Ta1  1  0.00000000  0.26285600  0.98932400  1
  Ta  Ta2  1  0.00000000  0.73714400  0.48932400  1
  Ta  Ta3  1  0.50000000  0.76285600  0.98932400  1
  Ag  Ag4  1  0.50000000  0.49696700  0.24401400  1
  Ag  Ag5  1  0.00000000  0.00303300  0.74401400  1
  Ag  Ag6  1  0.00000000  0.99696700  0.24401400  1
  Ag  Ag7  1  0.50000000  0.50303300  0.74401400  1
  S  S8  1  0.50000000  0.17432600  0.80937300  1
  S  S9  1  0.50000000  0.17464700  0.16921200  1
  S  S10  1  0.00000000  0.32535300  0.66921200  1
  S  S11  1  0.50000000  0.39555600  0.98907700  1
  S  S12  1  0.00000000  0.10444400  0.48907700  1
  S  S13  1  0.00000000  0.32567400  0.30937300  1
  S  S14  1  0.00000000  0.67432600  0.80937300  1
  S  S15  1  0.00000000  0.67464700  0.16921200  1
  S  S16  1  0.50000000  0.82535300  0.66921200  1
  S  S17  1  0.00000000  0.89555600  0.98907700  1
  S  S18  1  0.50000000  0.60444400  0.48907700  1
  S  S19  1  0.50000000  0.82567400  0.30937300  1
