# generated using pymatgen
data_Li4Mo3O8
_symmetry_space_group_name_H-M   'P 1'
_cell_length_a   6.16443651
_cell_length_b   6.16443651
_cell_length_c   15.63506414
_cell_angle_alpha   90.00000000
_cell_angle_beta   90.00000000
_cell_angle_gamma   120.00000000
_symmetry_Int_Tables_number   1
_chemical_formula_structural   Li4Mo3O8
_chemical_formula_sum   'Li12 Mo9 O24'
_cell_volume   514.53754157
_cell_formula_units_Z   3
loop_
 _symmetry_equiv_pos_site_id
 _symmetry_equiv_pos_as_xyz
  1  'x, y, z'
loop_
 _atom_site_type_symbol
 _atom_site_label
 _atom_site_symmetry_multiplicity
 _atom_site_fract_x
 _atom_site_fract_y
 _atom_site_fract_z
 _atom_site_occupancy
  Li  Li0  1  0.33333333  0.66666667  0.16666667  1
  Li  Li1  1  0.33333333  0.66666667  0.30570667  1
  Li  Li2  1  0.33333333  0.66666667  0.02762667  1
  Li  Li3  1  0.00000000  0.00000000  0.00000000  1
  Li  Li4  1  1.00000000  1.00000000  0.50000000  1
  Li  Li5  1  0.00000000  0.00000000  0.63904000  1
  Li  Li6  1  0.00000000  0.00000000  0.36096000  1
  Li  Li7  1  0.66666667  0.33333333  0.33333333  1
  Li  Li8  1  0.66666667  0.33333333  0.83333333  1
  Li  Li9  1  0.66666667  0.33333333  0.97237333  1
  Li  Li10  1  0.66666667  0.33333333  0.69429333  1
  Li  Li11  1  0.33333333  0.66666667  0.66666667  1
  Mo  Mo12  1  0.33333333  0.16666667  0.16666667  1
  Mo  Mo13  1  0.83333333  0.16666667  0.16666667  1
  Mo  Mo14  1  0.83333333  0.66666667  0.16666667  1
  Mo  Mo15  1  0.00000000  0.50000000  0.50000000  1
  Mo  Mo16  1  0.50000000  0.50000000  0.50000000  1
  Mo  Mo17  1  0.50000000  0.00000000  0.50000000  1
  Mo  Mo18  1  0.66666667  0.83333333  0.83333333  1
  Mo  Mo19  1  0.16666667  0.83333333  0.83333333  1
  Mo  Mo20  1  0.16666667  0.33333333  0.83333333  1
  O  O21  1  0.67416667  0.83708333  0.09511333  1
  O  O22  1  0.16291667  0.83708333  0.09511333  1
  O  O23  1  0.50375000  0.00750000  0.23822000  1
  O  O24  1  0.00000000  0.00000000  0.23691800  1
  O  O25  1  0.50375000  0.49625000  0.23822000  1
  O  O26  1  0.66666667  0.33333333  0.09641533  1
  O  O27  1  0.99250000  0.49625000  0.23822000  1
  O  O28  1  0.16291667  0.32583333  0.09511333  1
  O  O29  1  0.34083333  0.17041667  0.42844667  1
  O  O30  1  0.82958333  0.17041667  0.42844667  1
  O  O31  1  0.17041667  0.34083333  0.57155333  1
  O  O32  1  0.66666667  0.33333333  0.57025133  1
  O  O33  1  0.17041667  0.82958333  0.57155333  1
  O  O34  1  0.33333333  0.66666667  0.42974867  1
  O  O35  1  0.65916667  0.82958333  0.57155333  1
  O  O36  1  0.82958333  0.65916667  0.42844667  1
  O  O37  1  0.00750000  0.50375000  0.76178000  1
  O  O38  1  0.49625000  0.50375000  0.76178000  1
  O  O39  1  0.83708333  0.67416667  0.90488667  1
  O  O40  1  0.33333333  0.66666667  0.90358467  1
  O  O41  1  0.83708333  0.16291667  0.90488667  1
  O  O42  1  0.00000000  0.00000000  0.76308200  1
  O  O43  1  0.32583333  0.16291667  0.90488667  1
  O  O44  1  0.49625000  0.99250000  0.76178000  1
