# generated using pymatgen
data_Cs4P2Se9
_symmetry_space_group_name_H-M   'P 1'
_cell_length_a   10.42628600
_cell_length_b   10.94591600
_cell_length_c   20.12257563
_cell_angle_alpha   90.00000000
_cell_angle_beta   93.85809417
_cell_angle_gamma   90.00000000
_symmetry_Int_Tables_number   1
_chemical_formula_structural   Cs4P2Se9
_chemical_formula_sum   'Cs16 P8 Se36'
_cell_volume   2291.28957789
_cell_formula_units_Z   4
loop_
 _symmetry_equiv_pos_site_id
 _symmetry_equiv_pos_as_xyz
  1  'x, y, z'
loop_
 _atom_site_type_symbol
 _atom_site_label
 _atom_site_symmetry_multiplicity
 _atom_site_fract_x
 _atom_site_fract_y
 _atom_site_fract_z
 _atom_site_occupancy
  Cs  Cs0  1  0.46640100  0.74947200  0.52530700  1
  Cs  Cs1  1  0.53359900  0.25052800  0.47469300  1
  Cs  Cs2  1  0.53359900  0.74947200  0.97469300  1
  Cs  Cs3  1  0.65991250  0.09682050  0.82557400  1
  Cs  Cs4  1  0.34008750  0.09682050  0.67442600  1
  Cs  Cs5  1  0.65991250  0.90317950  0.32557400  1
  Cs  Cs6  1  0.46640100  0.25052800  0.02530700  1
  Cs  Cs7  1  0.34008750  0.90317950  0.17442600  1
  Cs  Cs8  1  0.96640100  0.24947200  0.52530700  1
  Cs  Cs9  1  0.03359900  0.75052800  0.47469300  1
  Cs  Cs10  1  0.03359900  0.24947200  0.97469300  1
  Cs  Cs11  1  0.15991250  0.59682050  0.82557400  1
  Cs  Cs12  1  0.84008750  0.59682050  0.67442600  1
  Cs  Cs13  1  0.15991250  0.40317950  0.32557400  1
  Cs  Cs14  1  0.96640100  0.75052800  0.02530700  1
  Cs  Cs15  1  0.84008750  0.40317950  0.17442600  1
  P  P16  1  0.73952500  0.00742800  0.62322900  1
  P  P17  1  0.26047500  0.00742800  0.87677100  1
  P  P18  1  0.73952500  0.99257200  0.12322900  1
  P  P19  1  0.26047500  0.99257200  0.37677100  1
  P  P20  1  0.23952500  0.50742800  0.62322900  1
  P  P21  1  0.76047500  0.50742800  0.87677100  1
  P  P22  1  0.23952500  0.49257200  0.12322900  1
  P  P23  1  0.76047500  0.49257200  0.37677100  1
  Se  Se24  1  0.30889350  0.19697650  0.85542000  1
  Se  Se25  1  0.69110650  0.80302350  0.14458000  1
  Se  Se26  1  0.63000550  0.12170550  0.17963900  1
  Se  Se27  1  0.30889350  0.80302350  0.35542000  1
  Se  Se28  1  0.63000550  0.87829450  0.67963900  1
  Se  Se29  1  0.69110650  0.19697650  0.64458000  1
  Se  Se30  1  0.36999450  0.12170550  0.32036100  1
  Se  Se31  1  0.03773400  0.02240200  0.34942400  1
  Se  Se32  1  0.24518250  0.96358650  0.98319600  1
  Se  Se33  1  0.96226600  0.97759800  0.65057600  1
  Se  Se34  1  0.75481750  0.96358650  0.51680400  1
  Se  Se35  1  0.96226600  0.02240200  0.15057600  1
  Se  Se36  1  0.36999450  0.87829450  0.82036100  1
  Se  Se37  1  0.75481750  0.03641350  0.01680400  1
  Se  Se38  1  0.03773400  0.97759800  0.84942400  1
  Se  Se39  1  0.50000000  0.59397400  0.75000000  1
  Se  Se40  1  0.24518250  0.03641350  0.48319600  1
  Se  Se41  1  0.50000000  0.40602600  0.25000000  1
  Se  Se42  1  0.80889350  0.69697650  0.85542000  1
  Se  Se43  1  0.19110650  0.30302350  0.14458000  1
  Se  Se44  1  0.13000550  0.62170550  0.17963900  1
  Se  Se45  1  0.80889350  0.30302350  0.35542000  1
  Se  Se46  1  0.13000550  0.37829450  0.67963900  1
  Se  Se47  1  0.19110650  0.69697650  0.64458000  1
  Se  Se48  1  0.86999450  0.62170550  0.32036100  1
  Se  Se49  1  0.53773400  0.52240200  0.34942400  1
  Se  Se50  1  0.74518250  0.46358650  0.98319600  1
  Se  Se51  1  0.46226600  0.47759800  0.65057600  1
  Se  Se52  1  0.25481750  0.46358650  0.51680400  1
  Se  Se53  1  0.46226600  0.52240200  0.15057600  1
  Se  Se54  1  0.86999450  0.37829450  0.82036100  1
  Se  Se55  1  0.25481750  0.53641350  0.01680400  1
  Se  Se56  1  0.53773400  0.47759800  0.84942400  1
  Se  Se57  1  0.00000000  0.09397400  0.75000000  1
  Se  Se58  1  0.74518250  0.53641350  0.48319600  1
  Se  Se59  1  0.00000000  0.90602600  0.25000000  1
