# generated using pymatgen
data_Cs2Nb6PbCl18
_symmetry_space_group_name_H-M   'P 1'
_cell_length_a   9.70160012
_cell_length_b   9.70160012
_cell_length_c   26.80231099
_cell_angle_alpha   90.00000000
_cell_angle_beta   90.00000000
_cell_angle_gamma   120.00000000
_symmetry_Int_Tables_number   1
_chemical_formula_structural   Cs2Nb6PbCl18
_chemical_formula_sum   'Cs6 Nb18 Pb3 Cl54'
_cell_volume   2184.68895934
_cell_formula_units_Z   3
loop_
 _symmetry_equiv_pos_site_id
 _symmetry_equiv_pos_as_xyz
  1  'x, y, z'
loop_
 _atom_site_type_symbol
 _atom_site_label
 _atom_site_symmetry_multiplicity
 _atom_site_fract_x
 _atom_site_fract_y
 _atom_site_fract_z
 _atom_site_occupancy
  Cs  Cs0  1  0.00000000  0.00000000  0.27699500  1
  Cs  Cs1  1  0.66666667  0.33333333  0.05633833  1
  Cs  Cs2  1  0.66666667  0.33333333  0.61032833  1
  Cs  Cs3  1  0.33333333  0.66666667  0.38967167  1
  Cs  Cs4  1  0.33333333  0.66666667  0.94366167  1
  Cs  Cs5  1  0.00000000  0.00000000  0.72300500  1
  Nb  Nb6  1  0.52393800  0.82226600  0.12188700  1
  Nb  Nb7  1  0.17773400  0.70167200  0.12188700  1
  Nb  Nb8  1  0.29832800  0.47606200  0.12188700  1
  Nb  Nb9  1  0.48893267  0.63166133  0.21144633  1
  Nb  Nb10  1  0.14272867  0.51106733  0.21144633  1
  Nb  Nb11  1  0.36833867  0.85727133  0.21144633  1
  Nb  Nb12  1  0.19060467  0.15559933  0.45522033  1
  Nb  Nb13  1  0.84440067  0.03500533  0.45522033  1
  Nb  Nb14  1  0.96499467  0.80939533  0.45522033  1
  Nb  Nb15  1  0.15559933  0.96499467  0.54477967  1
  Nb  Nb16  1  0.80939533  0.84440067  0.54477967  1
  Nb  Nb17  1  0.03500533  0.19060467  0.54477967  1
  Nb  Nb18  1  0.85727133  0.48893267  0.78855367  1
  Nb  Nb19  1  0.51106733  0.36833867  0.78855367  1
  Nb  Nb20  1  0.63166133  0.14272867  0.78855367  1
  Nb  Nb21  1  0.82226600  0.29832800  0.87811300  1
  Nb  Nb22  1  0.47606200  0.17773400  0.87811300  1
  Nb  Nb23  1  0.70167200  0.52393800  0.87811300  1
  Pb  Pb24  1  0.00000000  0.00000000  0.00000000  1
  Pb  Pb25  1  0.66666667  0.33333333  0.33333333  1
  Pb  Pb26  1  0.33333333  0.66666667  0.66666667  1
  Cl  Cl27  1  0.47364933  0.40084767  0.16710467  1
  Cl  Cl28  1  0.51686600  0.62590600  0.06097000  1
  Cl  Cl29  1  0.73946833  0.80698267  0.16622867  1
  Cl  Cl30  1  0.19301733  0.93248567  0.16622867  1
  Cl  Cl31  1  0.76293233  0.02279467  0.06394567  1
  Cl  Cl32  1  0.92719833  0.52635067  0.16710467  1
  Cl  Cl33  1  0.55762667  0.85019933  0.27236333  1
  Cl  Cl34  1  0.06751433  0.26053167  0.16622867  1
  Cl  Cl35  1  0.29257267  0.44237333  0.27236333  1
  Cl  Cl36  1  0.40680433  0.09626567  0.26938767  1
  Cl  Cl37  1  0.10904000  0.48313400  0.06097000  1
  Cl  Cl38  1  0.59915233  0.07280167  0.16710467  1
  Cl  Cl39  1  0.25986233  0.23706767  0.06394567  1
  Cl  Cl40  1  0.14980067  0.70742733  0.27236333  1
  Cl  Cl41  1  0.68946133  0.59319567  0.26938767  1
  Cl  Cl42  1  0.37409400  0.89096000  0.06097000  1
  Cl  Cl43  1  0.97720533  0.74013767  0.06394567  1
  Cl  Cl44  1  0.90373433  0.31053867  0.26938767  1
  Cl  Cl45  1  0.14031600  0.73418100  0.50043800  1
  Cl  Cl46  1  0.18353267  0.95923933  0.39430333  1
  Cl  Cl47  1  0.40613500  0.14031600  0.49956200  1
  Cl  Cl48  1  0.85968400  0.26581900  0.49956200  1
  Cl  Cl49  1  0.42959900  0.35612800  0.39727900  1
  Cl  Cl50  1  0.59386500  0.85968400  0.50043800  1
  Cl  Cl51  1  0.22429333  0.18353267  0.60569667  1
  Cl  Cl52  1  0.73418100  0.59386500  0.49956200  1
  Cl  Cl53  1  0.95923933  0.77570667  0.60569667  1
  Cl  Cl54  1  0.07347100  0.42959900  0.60272100  1
  Cl  Cl55  1  0.77570667  0.81646733  0.39430333  1
  Cl  Cl56  1  0.26581900  0.40613500  0.50043800  1
  Cl  Cl57  1  0.92652900  0.57040100  0.39727900  1
  Cl  Cl58  1  0.81646733  0.04076067  0.60569667  1
  Cl  Cl59  1  0.35612800  0.92652900  0.60272100  1
  Cl  Cl60  1  0.04076067  0.22429333  0.39430333  1
  Cl  Cl61  1  0.64387200  0.07347100  0.39727900  1
  Cl  Cl62  1  0.57040100  0.64387200  0.60272100  1
  Cl  Cl63  1  0.80698267  0.06751433  0.83377133  1
  Cl  Cl64  1  0.85019933  0.29257267  0.72763667  1
  Cl  Cl65  1  0.07280167  0.47364933  0.83289533  1
  Cl  Cl66  1  0.52635067  0.59915233  0.83289533  1
  Cl  Cl67  1  0.09626567  0.68946133  0.73061233  1
  Cl  Cl68  1  0.26053167  0.19301733  0.83377133  1
  Cl  Cl69  1  0.89096000  0.51686600  0.93903000  1
  Cl  Cl70  1  0.40084767  0.92719833  0.83289533  1
  Cl  Cl71  1  0.62590600  0.10904000  0.93903000  1
  Cl  Cl72  1  0.74013767  0.76293233  0.93605433  1
  Cl  Cl73  1  0.44237333  0.14980067  0.72763667  1
  Cl  Cl74  1  0.93248567  0.73946833  0.83377133  1
  Cl  Cl75  1  0.59319567  0.90373433  0.73061233  1
  Cl  Cl76  1  0.48313400  0.37409400  0.93903000  1
  Cl  Cl77  1  0.02279467  0.25986233  0.93605433  1
  Cl  Cl78  1  0.70742733  0.55762667  0.72763667  1
  Cl  Cl79  1  0.31053867  0.40680433  0.73061233  1
  Cl  Cl80  1  0.23706767  0.97720533  0.93605433  1
