# generated using pymatgen
data_MnBr2
_symmetry_space_group_name_H-M   'P 1'
_cell_length_a   3.87816011
_cell_length_b   3.87816011
_cell_length_c   20.14763563
_cell_angle_alpha   90.00000000
_cell_angle_beta   90.00000000
_cell_angle_gamma   120.00000000
_symmetry_Int_Tables_number   1
_chemical_formula_structural   MnBr2
_chemical_formula_sum   'Mn3 Br6'
_cell_volume   262.42559429
_cell_formula_units_Z   3
loop_
 _symmetry_equiv_pos_site_id
 _symmetry_equiv_pos_as_xyz
  1  'x, y, z'
loop_
 _atom_site_type_symbol
 _atom_site_label
 _atom_site_symmetry_multiplicity
 _atom_site_fract_x
 _atom_site_fract_y
 _atom_site_fract_z
 _atom_site_occupancy
  Mn  Mn0  1  0.00000000  0.00000000  0.00000000  1
  Mn  Mn1  1  0.66666667  0.33333333  0.33333333  1
  Mn  Mn2  1  0.33333333  0.66666667  0.66666667  1
  Br  Br3  1  0.00000000  0.00000000  0.25813100  1
  Br  Br4  1  0.66666667  0.33333333  0.07520233  1
  Br  Br5  1  0.66666667  0.33333333  0.59146433  1
  Br  Br6  1  0.33333333  0.66666667  0.40853567  1
  Br  Br7  1  0.33333333  0.66666667  0.92479767  1
  Br  Br8  1  0.00000000  0.00000000  0.74186900  1
