# generated using pymatgen
data_Sn2PClO4
_symmetry_space_group_name_H-M   'P 1'
_cell_length_a   4.82730400
_cell_length_b   8.93505000
_cell_length_c   13.79945700
_cell_angle_alpha   90.00000000
_cell_angle_beta   90.00000000
_cell_angle_gamma   90.00000000
_symmetry_Int_Tables_number   1
_chemical_formula_structural   Sn2PClO4
_chemical_formula_sum   'Sn8 P4 Cl4 O16'
_cell_volume   595.20097517
_cell_formula_units_Z   4
loop_
 _symmetry_equiv_pos_site_id
 _symmetry_equiv_pos_as_xyz
  1  'x, y, z'
loop_
 _atom_site_type_symbol
 _atom_site_label
 _atom_site_symmetry_multiplicity
 _atom_site_fract_x
 _atom_site_fract_y
 _atom_site_fract_z
 _atom_site_occupancy
  Sn  Sn0  1  0.96878650  0.19847850  0.88662300  1
  Sn  Sn1  1  0.46878650  0.30152150  0.38662300  1
  Sn  Sn2  1  0.46878650  0.30152150  0.11337700  1
  Sn  Sn3  1  0.96878650  0.19847850  0.61337700  1
  Sn  Sn4  1  0.46878650  0.69847850  0.88662300  1
  Sn  Sn5  1  0.96878650  0.80152150  0.38662300  1
  Sn  Sn6  1  0.96878650  0.80152150  0.11337700  1
  Sn  Sn7  1  0.46878650  0.69847850  0.61337700  1
  P  P8  1  0.44699950  0.36343650  0.75000000  1
  P  P9  1  0.94699950  0.13656350  0.25000000  1
  P  P10  1  0.94699950  0.86343650  0.75000000  1
  P  P11  1  0.44699950  0.63656350  0.25000000  1
  Cl  Cl12  1  0.54454100  0.00000000  0.00000000  1
  Cl  Cl13  1  0.54454100  0.00000000  0.50000000  1
  Cl  Cl14  1  0.04454100  0.50000000  0.00000000  1
  Cl  Cl15  1  0.04454100  0.50000000  0.50000000  1
  O  O16  1  0.57317450  0.29785650  0.84354100  1
  O  O17  1  0.62874800  0.17600800  0.25000000  1
  O  O18  1  0.97078900  0.03809000  0.75000000  1
  O  O19  1  0.07317450  0.20214350  0.15645900  1
  O  O20  1  0.57317450  0.29785650  0.65645900  1
  O  O21  1  0.07317450  0.20214350  0.34354100  1
  O  O22  1  0.12874800  0.32399200  0.75000000  1
  O  O23  1  0.47078900  0.46191000  0.25000000  1
  O  O24  1  0.07317450  0.79785650  0.84354100  1
  O  O25  1  0.12874800  0.67600800  0.25000000  1
  O  O26  1  0.47078900  0.53809000  0.75000000  1
  O  O27  1  0.57317450  0.70214350  0.15645900  1
  O  O28  1  0.07317450  0.79785650  0.65645900  1
  O  O29  1  0.57317450  0.70214350  0.34354100  1
  O  O30  1  0.62874800  0.82399200  0.75000000  1
  O  O31  1  0.97078900  0.96191000  0.25000000  1
