# generated using pymatgen
data_TiPHO5
_symmetry_space_group_name_H-M   'P 1'
_cell_length_a   7.48501000
_cell_length_b   7.16377000
_cell_length_c   7.48593550
_cell_angle_alpha   90.00000000
_cell_angle_beta   116.84418464
_cell_angle_gamma   90.00000000
_symmetry_Int_Tables_number   1
_chemical_formula_structural   TiPHO5
_chemical_formula_sum   'Ti4 P4 H4 O20'
_cell_volume   358.14652580
_cell_formula_units_Z   4
loop_
 _symmetry_equiv_pos_site_id
 _symmetry_equiv_pos_as_xyz
  1  'x, y, z'
loop_
 _atom_site_type_symbol
 _atom_site_label
 _atom_site_symmetry_multiplicity
 _atom_site_fract_x
 _atom_site_fract_y
 _atom_site_fract_z
 _atom_site_occupancy
  Ti  Ti0  1  0.71818600  0.27371600  0.97272800  1
  Ti  Ti1  1  0.71931100  0.77560500  0.47028700  1
  Ti  Ti2  1  0.28068900  0.27560500  0.52971300  1
  Ti  Ti3  1  0.28181400  0.77371600  0.02727200  1
  P  P4  1  0.00134400  0.63736800  0.24982200  1
  P  P5  1  0.99865600  0.13736800  0.75017800  1
  P  P6  1  0.49926300  0.88815600  0.74913800  1
  P  P7  1  0.50073700  0.38815600  0.25086200  1
  H  H8  1  0.04466200  0.52742400  0.70504000  1
  H  H9  1  0.95533800  0.02742400  0.29496000  1
  H  H10  1  0.07345100  0.07439600  0.17694300  1
  H  H11  1  0.92654900  0.57439600  0.82305700  1
  O  O12  1  0.99587800  0.63568700  0.75385600  1
  O  O13  1  0.09800700  0.76416900  0.15075100  1
  O  O14  1  0.49909700  0.34968800  0.75143500  1
  O  O15  1  0.15847200  0.01377400  0.91453100  1
  O  O16  1  0.84103500  0.01259200  0.58631800  1
  O  O17  1  0.90689100  0.76988300  0.34742000  1
  O  O18  1  0.66182500  0.01157000  0.91149600  1
  O  O19  1  0.90199300  0.26416900  0.84924900  1
  O  O20  1  0.50090300  0.84968800  0.24856500  1
  O  O21  1  0.33817500  0.51157000  0.08850400  1
  O  O22  1  0.00412200  0.13568700  0.24614400  1
  O  O23  1  0.40271000  0.26312000  0.34957600  1
  O  O24  1  0.84152800  0.51377400  0.08546900  1
  O  O25  1  0.40086400  0.76196100  0.84657300  1
  O  O26  1  0.33618500  0.01319200  0.58914800  1
  O  O27  1  0.66381500  0.51319200  0.41085200  1
  O  O28  1  0.09310900  0.26988300  0.65258000  1
  O  O29  1  0.59729000  0.76312000  0.65042400  1
  O  O30  1  0.59913600  0.26196100  0.15342700  1
  O  O31  1  0.15896500  0.51259200  0.41368200  1
