# generated using pymatgen
data_Cu8GeSe6
_symmetry_space_group_name_H-M   'P 1'
_cell_length_a   12.72122350
_cell_length_b   12.72122350
_cell_length_c   11.78547900
_cell_angle_alpha   90.00000000
_cell_angle_beta   90.00000000
_cell_angle_gamma   120.00000000
_symmetry_Int_Tables_number   1
_chemical_formula_structural   Cu8GeSe6
_chemical_formula_sum   'Cu48 Ge6 Se36'
_cell_volume   1651.71698901
_cell_formula_units_Z   6
loop_
 _symmetry_equiv_pos_site_id
 _symmetry_equiv_pos_as_xyz
  1  'x, y, z'
loop_
 _atom_site_type_symbol
 _atom_site_label
 _atom_site_symmetry_multiplicity
 _atom_site_fract_x
 _atom_site_fract_y
 _atom_site_fract_z
 _atom_site_occupancy
  Cu  Cu0  1  0.19466800  0.35573000  0.55530800  1
  Cu  Cu1  1  0.80533200  0.64427000  0.05530800  1
  Cu  Cu2  1  0.64074900  0.51160000  0.43015500  1
  Cu  Cu3  1  0.16106200  0.35573000  0.05530800  1
  Cu  Cu4  1  0.35925100  0.48840000  0.93015500  1
  Cu  Cu5  1  0.64427000  0.80533200  0.05530800  1
  Cu  Cu6  1  0.16106200  0.80533200  0.55530800  1
  Cu  Cu7  1  0.35573000  0.16106200  0.05530800  1
  Cu  Cu8  1  0.00000000  0.54058750  0.26925100  1
  Cu  Cu9  1  0.64427000  0.83893800  0.55530800  1
  Cu  Cu10  1  0.87085100  0.35925100  0.43015500  1
  Cu  Cu11  1  0.66621900  0.85754500  0.33610400  1
  Cu  Cu12  1  0.48840000  0.12914900  0.43015500  1
  Cu  Cu13  1  0.33378100  0.19132600  0.33610400  1
  Cu  Cu14  1  0.35925100  0.87085100  0.43015500  1
  Cu  Cu15  1  0.00000000  0.45941250  0.76925100  1
  Cu  Cu16  1  0.18696850  0.18696850  0.95822600  1
  Cu  Cu17  1  0.87085100  0.51160000  0.93015500  1
  Cu  Cu18  1  0.66621900  0.80867400  0.83610400  1
  Cu  Cu19  1  0.18696850  0.00000000  0.45822600  1
  Cu  Cu20  1  0.19466800  0.83893800  0.05530800  1
  Cu  Cu21  1  0.19132600  0.85754500  0.83610400  1
  Cu  Cu22  1  0.45941250  0.45941250  0.26925100  1
  Cu  Cu23  1  0.83893800  0.19466800  0.05530800  1
  Cu  Cu24  1  0.51160000  0.87085100  0.93015500  1
  Cu  Cu25  1  0.14245500  0.80867400  0.33610400  1
  Cu  Cu26  1  0.51160000  0.64074900  0.43015500  1
  Cu  Cu27  1  0.12914900  0.48840000  0.43015500  1
  Cu  Cu28  1  0.14245500  0.33378100  0.83610400  1
  Cu  Cu29  1  0.19132600  0.33378100  0.33610400  1
  Cu  Cu30  1  0.33378100  0.14245500  0.83610400  1
  Cu  Cu31  1  0.64074900  0.12914900  0.93015500  1
  Cu  Cu32  1  0.80533200  0.16106200  0.55530800  1
  Cu  Cu33  1  0.00000000  0.18696850  0.45822600  1
  Cu  Cu34  1  0.45941250  0.00000000  0.76925100  1
  Cu  Cu35  1  0.54058750  0.54058750  0.76925100  1
  Cu  Cu36  1  0.00000000  0.81303150  0.95822600  1
  Cu  Cu37  1  0.81303150  0.81303150  0.45822600  1
  Cu  Cu38  1  0.80867400  0.66621900  0.83610400  1
  Cu  Cu39  1  0.12914900  0.64074900  0.93015500  1
  Cu  Cu40  1  0.48840000  0.35925100  0.93015500  1
  Cu  Cu41  1  0.54058750  0.00000000  0.26925100  1
  Cu  Cu42  1  0.83893800  0.64427000  0.55530800  1
  Cu  Cu43  1  0.85754500  0.19132600  0.83610400  1
  Cu  Cu44  1  0.85754500  0.66621900  0.33610400  1
  Cu  Cu45  1  0.81303150  0.00000000  0.95822600  1
  Cu  Cu46  1  0.35573000  0.19466800  0.55530800  1
  Cu  Cu47  1  0.80867400  0.14245500  0.33610400  1
  Ge  Ge48  1  0.33333333  0.66666667  0.17313800  1
  Ge  Ge49  1  0.33333333  0.66666667  0.67313800  1
  Ge  Ge50  1  0.66666667  0.33333333  0.67313800  1
  Ge  Ge51  1  0.00000000  0.00000000  0.20048600  1
  Ge  Ge52  1  0.66666667  0.33333333  0.17313800  1
  Ge  Ge53  1  0.00000000  0.00000000  0.70048600  1
  Se  Se54  1  0.00000000  0.34836150  0.57867800  1
  Se  Se55  1  0.63997450  0.63997450  0.94499300  1
  Se  Se56  1  0.34836150  0.00000000  0.57867800  1
  Se  Se57  1  0.18252350  0.18252350  0.74669600  1
  Se  Se58  1  0.34836150  0.34836150  0.07867800  1
  Se  Se59  1  0.81747650  0.00000000  0.74669600  1
  Se  Se60  1  0.66666667  0.33333333  0.47144500  1
  Se  Se61  1  0.65163850  0.00000000  0.07867800  1
  Se  Se62  1  0.51856300  0.67487100  0.22339900  1
  Se  Se63  1  0.00000000  0.81747650  0.74669600  1
  Se  Se64  1  0.33333333  0.66666667  0.97144500  1
  Se  Se65  1  0.48143700  0.15630800  0.22339900  1
  Se  Se66  1  0.00000000  0.18252350  0.24669600  1
  Se  Se67  1  0.65163850  0.65163850  0.57867800  1
  Se  Se68  1  0.51856300  0.84369200  0.72339900  1
  Se  Se69  1  0.00000000  0.00000000  0.99922600  1
  Se  Se70  1  0.32512900  0.48143700  0.72339900  1
  Se  Se71  1  0.00000000  0.65163850  0.07867800  1
  Se  Se72  1  0.66666667  0.33333333  0.97144500  1
  Se  Se73  1  0.18252350  0.00000000  0.24669600  1
  Se  Se74  1  0.84369200  0.32512900  0.22339900  1
  Se  Se75  1  0.84369200  0.51856300  0.72339900  1
  Se  Se76  1  0.48143700  0.32512900  0.72339900  1
  Se  Se77  1  0.67487100  0.51856300  0.22339900  1
  Se  Se78  1  0.33333333  0.66666667  0.47144500  1
  Se  Se79  1  0.81747650  0.81747650  0.24669600  1
  Se  Se80  1  0.36002550  0.36002550  0.44499300  1
  Se  Se81  1  0.00000000  0.63997450  0.44499300  1
  Se  Se82  1  0.00000000  0.36002550  0.94499300  1
  Se  Se83  1  0.67487100  0.15630800  0.72339900  1
  Se  Se84  1  0.63997450  0.00000000  0.44499300  1
  Se  Se85  1  0.36002550  0.00000000  0.94499300  1
  Se  Se86  1  0.15630800  0.48143700  0.22339900  1
  Se  Se87  1  0.32512900  0.84369200  0.22339900  1
  Se  Se88  1  0.00000000  0.00000000  0.49922600  1
  Se  Se89  1  0.15630800  0.67487100  0.72339900  1
