# generated using pymatgen
data_AlPO4
_symmetry_space_group_name_H-M   'P 1'
_cell_length_a   22.87584600
_cell_length_b   13.89738600
_cell_length_c   14.23274173
_cell_angle_alpha   90.00000000
_cell_angle_beta   98.67898170
_cell_angle_gamma   90.00000000
_symmetry_Int_Tables_number   1
_chemical_formula_structural   AlPO4
_chemical_formula_sum   'Al32 P32 O128'
_cell_volume   4472.98240541
_cell_formula_units_Z   32
loop_
 _symmetry_equiv_pos_site_id
 _symmetry_equiv_pos_as_xyz
  1  'x, y, z'
loop_
 _atom_site_type_symbol
 _atom_site_label
 _atom_site_symmetry_multiplicity
 _atom_site_fract_x
 _atom_site_fract_y
 _atom_site_fract_z
 _atom_site_occupancy
  Al  Al0  1  0.74101750  0.11410950  0.43777500  1
  Al  Al1  1  0.33370300  0.29710600  0.59610700  1
  Al  Al2  1  0.83798000  0.89058700  0.30349500  1
  Al  Al3  1  0.16202000  0.10941300  0.69650500  1
  Al  Al4  1  0.16202000  0.89058700  0.19650500  1
  Al  Al5  1  0.66629700  0.29710600  0.90389300  1
  Al  Al6  1  0.43024450  0.38783750  0.99117400  1
  Al  Al7  1  0.66629700  0.70289400  0.40389300  1
  Al  Al8  1  0.56975550  0.38783750  0.50882600  1
  Al  Al9  1  0.33370300  0.70289400  0.09610700  1
  Al  Al10  1  0.25898250  0.11410950  0.06222500  1
  Al  Al11  1  0.83798000  0.10941300  0.80349500  1
  Al  Al12  1  0.56975550  0.61216250  0.00882600  1
  Al  Al13  1  0.43024450  0.61216250  0.49117400  1
  Al  Al14  1  0.25898250  0.88589050  0.56222500  1
  Al  Al15  1  0.74101750  0.88589050  0.93777500  1
  Al  Al16  1  0.24101750  0.61410950  0.43777500  1
  Al  Al17  1  0.83370300  0.79710600  0.59610700  1
  Al  Al18  1  0.33798000  0.39058700  0.30349500  1
  Al  Al19  1  0.66202000  0.60941300  0.69650500  1
  Al  Al20  1  0.66202000  0.39058700  0.19650500  1
  Al  Al21  1  0.16629700  0.79710600  0.90389300  1
  Al  Al22  1  0.93024450  0.88783750  0.99117400  1
  Al  Al23  1  0.16629700  0.20289400  0.40389300  1
  Al  Al24  1  0.06975550  0.88783750  0.50882600  1
  Al  Al25  1  0.83370300  0.20289400  0.09610700  1
  Al  Al26  1  0.75898250  0.61410950  0.06222500  1
  Al  Al27  1  0.33798000  0.60941300  0.80349500  1
  Al  Al28  1  0.06975550  0.11216250  0.00882600  1
  Al  Al29  1  0.93024450  0.11216250  0.49117400  1
  Al  Al30  1  0.75898250  0.38589050  0.56222500  1
  Al  Al31  1  0.24101750  0.38589050  0.93777500  1
  P  P32  1  0.56866650  0.61707750  0.51038800  1
  P  P33  1  0.26032650  0.10973250  0.56022900  1
  P  P34  1  0.66560150  0.70194350  0.89978000  1
  P  P35  1  0.73967350  0.10973250  0.93977100  1
  P  P36  1  0.83908450  0.11489250  0.30141600  1
  P  P37  1  0.26032650  0.89026750  0.06022900  1
  P  P38  1  0.16091550  0.88510750  0.69858400  1
  P  P39  1  0.56866650  0.38292250  0.01038800  1
  P  P40  1  0.33439850  0.29805650  0.10022000  1
  P  P41  1  0.83908450  0.88510750  0.80141600  1
  P  P42  1  0.66560150  0.29805650  0.39978000  1
  P  P43  1  0.73967350  0.89026750  0.43977100  1
  P  P44  1  0.33439850  0.70194350  0.60022000  1
  P  P45  1  0.43133350  0.38292250  0.48961200  1
  P  P46  1  0.16091550  0.11489250  0.19858400  1
  P  P47  1  0.43133350  0.61707750  0.98961200  1
  P  P48  1  0.06866650  0.11707750  0.51038800  1
  P  P49  1  0.76032650  0.60973250  0.56022900  1
  P  P50  1  0.16560150  0.20194350  0.89978000  1
  P  P51  1  0.23967350  0.60973250  0.93977100  1
  P  P52  1  0.33908450  0.61489250  0.30141600  1
  P  P53  1  0.76032650  0.39026750  0.06022900  1
  P  P54  1  0.66091550  0.38510750  0.69858400  1
  P  P55  1  0.06866650  0.88292250  0.01038800  1
  P  P56  1  0.83439850  0.79805650  0.10022000  1
  P  P57  1  0.33908450  0.38510750  0.80141600  1
  P  P58  1  0.16560150  0.79805650  0.39978000  1
  P  P59  1  0.23967350  0.39026750  0.43977100  1
  P  P60  1  0.83439850  0.20194350  0.60022000  1
  P  P61  1  0.93133350  0.88292250  0.48961200  1
  P  P62  1  0.66091550  0.61489250  0.19858400  1
  P  P63  1  0.93133350  0.11707750  0.98961200  1
  O  O64  1  0.16241350  0.01045850  0.23570000  1
  O  O65  1  0.31418550  0.17683350  0.57031600  1
  O  O66  1  0.21653900  0.86444400  0.65299700  1
  O  O67  1  0.07317900  0.01073900  0.48059200  1
  O  O68  1  0.92682100  0.01073900  0.01940800  1
  O  O69  1  0.22087800  0.12586400  0.46356900  1
  O  O70  1  0.92682100  0.98926100  0.51940800  1
  O  O71  1  0.78346100  0.86444400  0.84700300  1
  O  O72  1  0.22087800  0.87413600  0.96356900  1
  O  O73  1  0.60536250  0.67836350  0.92946700  1
  O  O74  1  0.68001800  0.19156100  0.42301900  1
  O  O75  1  0.59878200  0.68046500  0.44347400  1
  O  O76  1  0.28293650  0.00546050  0.56490500  1
  O  O77  1  0.40121800  0.68046500  0.05652600  1
  O  O78  1  0.59878200  0.31953500  0.94347400  1
  O  O79  1  0.78565150  0.13611050  0.54757600  1
  O  O80  1  0.50385800  0.64845400  0.50207900  1
  O  O81  1  0.60486500  0.63124500  0.12564400  1
  O  O82  1  0.21434850  0.13611050  0.95242400  1
  O  O83  1  0.68001800  0.80843900  0.92301900  1
  O  O84  1  0.78565150  0.86388950  0.04757600  1
  O  O85  1  0.65972000  0.31577300  0.78161800  1
  O  O86  1  0.40121800  0.31953500  0.55652600  1
  O  O87  1  0.31998200  0.80843900  0.57698100  1
  O  O88  1  0.39513500  0.36875500  0.87435600  1
  O  O89  1  0.66222650  0.31317650  0.29241200  1
  O  O90  1  0.22466150  0.86967350  0.14186400  1
  O  O91  1  0.59814800  0.36940300  0.11422300  1
  O  O92  1  0.49614200  0.64845400  0.99792100  1
  O  O93  1  0.77912200  0.12586400  0.03643100  1
  O  O94  1  0.16241350  0.98954150  0.73570000  1
  O  O95  1  0.60486500  0.36875500  0.62564400  1
  O  O96  1  0.71706350  0.00546050  0.93509500  1
  O  O97  1  0.83758650  0.98954150  0.76430000  1
  O  O98  1  0.77533850  0.86967350  0.35813600  1
  O  O99  1  0.68581450  0.17683350  0.92968400  1
  O  O100  1  0.78346100  0.13555600  0.34700300  1
  O  O101  1  0.39513500  0.63124500  0.37435600  1
  O  O102  1  0.59814800  0.63059700  0.61422300  1
  O  O103  1  0.34028000  0.68422700  0.21838200  1
  O  O104  1  0.68581450  0.82316650  0.42968400  1
  O  O105  1  0.22466150  0.13032650  0.64186400  1
  O  O106  1  0.83758650  0.01045850  0.26430000  1
  O  O107  1  0.77912200  0.87413600  0.53643100  1
  O  O108  1  0.40185200  0.63059700  0.88577700  1
  O  O109  1  0.28293650  0.99453950  0.06490500  1
  O  O110  1  0.50385800  0.35154600  0.00207900  1
  O  O111  1  0.77533850  0.13032650  0.85813600  1
  O  O112  1  0.66222650  0.68682350  0.79241200  1
  O  O113  1  0.39463750  0.67836350  0.57053300  1
  O  O114  1  0.65972000  0.68422700  0.28161800  1
  O  O115  1  0.21653900  0.13555600  0.15299700  1
  O  O116  1  0.31418550  0.82316650  0.07031600  1
  O  O117  1  0.31998200  0.19156100  0.07698100  1
  O  O118  1  0.39463750  0.32163650  0.07053300  1
  O  O119  1  0.40185200  0.36940300  0.38577700  1
  O  O120  1  0.33777350  0.68682350  0.70758800  1
  O  O121  1  0.07317900  0.98926100  0.98059200  1
  O  O122  1  0.71706350  0.99453950  0.43509500  1
  O  O123  1  0.60536250  0.32163650  0.42946700  1
  O  O124  1  0.21434850  0.86388950  0.45242400  1
  O  O125  1  0.49614200  0.35154600  0.49792100  1
  O  O126  1  0.34028000  0.31577300  0.71838200  1
  O  O127  1  0.33777350  0.31317650  0.20758800  1
  O  O128  1  0.66241350  0.51045850  0.23570000  1
  O  O129  1  0.81418550  0.67683350  0.57031600  1
  O  O130  1  0.71653900  0.36444400  0.65299700  1
  O  O131  1  0.57317900  0.51073900  0.48059200  1
  O  O132  1  0.42682100  0.51073900  0.01940800  1
  O  O133  1  0.72087800  0.62586400  0.46356900  1
  O  O134  1  0.42682100  0.48926100  0.51940800  1
  O  O135  1  0.28346100  0.36444400  0.84700300  1
  O  O136  1  0.72087800  0.37413600  0.96356900  1
  O  O137  1  0.10536250  0.17836350  0.92946700  1
  O  O138  1  0.18001800  0.69156100  0.42301900  1
  O  O139  1  0.09878200  0.18046500  0.44347400  1
  O  O140  1  0.78293650  0.50546050  0.56490500  1
  O  O141  1  0.90121800  0.18046500  0.05652600  1
  O  O142  1  0.09878200  0.81953500  0.94347400  1
  O  O143  1  0.28565150  0.63611050  0.54757600  1
  O  O144  1  0.00385800  0.14845400  0.50207900  1
  O  O145  1  0.10486500  0.13124500  0.12564400  1
  O  O146  1  0.71434850  0.63611050  0.95242400  1
  O  O147  1  0.18001800  0.30843900  0.92301900  1
  O  O148  1  0.28565150  0.36388950  0.04757600  1
  O  O149  1  0.15972000  0.81577300  0.78161800  1
  O  O150  1  0.90121800  0.81953500  0.55652600  1
  O  O151  1  0.81998200  0.30843900  0.57698100  1
  O  O152  1  0.89513500  0.86875500  0.87435600  1
  O  O153  1  0.16222650  0.81317650  0.29241200  1
  O  O154  1  0.72466150  0.36967350  0.14186400  1
  O  O155  1  0.09814800  0.86940300  0.11422300  1
  O  O156  1  0.99614200  0.14845400  0.99792100  1
  O  O157  1  0.27912200  0.62586400  0.03643100  1
  O  O158  1  0.66241350  0.48954150  0.73570000  1
  O  O159  1  0.10486500  0.86875500  0.62564400  1
  O  O160  1  0.21706350  0.50546050  0.93509500  1
  O  O161  1  0.33758650  0.48954150  0.76430000  1
  O  O162  1  0.27533850  0.36967350  0.35813600  1
  O  O163  1  0.18581450  0.67683350  0.92968400  1
  O  O164  1  0.28346100  0.63555600  0.34700300  1
  O  O165  1  0.89513500  0.13124500  0.37435600  1
  O  O166  1  0.09814800  0.13059700  0.61422300  1
  O  O167  1  0.84028000  0.18422700  0.21838200  1
  O  O168  1  0.18581450  0.32316650  0.42968400  1
  O  O169  1  0.72466150  0.63032650  0.64186400  1
  O  O170  1  0.33758650  0.51045850  0.26430000  1
  O  O171  1  0.27912200  0.37413600  0.53643100  1
  O  O172  1  0.90185200  0.13059700  0.88577700  1
  O  O173  1  0.78293650  0.49453950  0.06490500  1
  O  O174  1  0.00385800  0.85154600  0.00207900  1
  O  O175  1  0.27533850  0.63032650  0.85813600  1
  O  O176  1  0.16222650  0.18682350  0.79241200  1
  O  O177  1  0.89463750  0.17836350  0.57053300  1
  O  O178  1  0.15972000  0.18422700  0.28161800  1
  O  O179  1  0.71653900  0.63555600  0.15299700  1
  O  O180  1  0.81418550  0.32316650  0.07031600  1
  O  O181  1  0.81998200  0.69156100  0.07698100  1
  O  O182  1  0.89463750  0.82163650  0.07053300  1
  O  O183  1  0.90185200  0.86940300  0.38577700  1
  O  O184  1  0.83777350  0.18682350  0.70758800  1
  O  O185  1  0.57317900  0.48926100  0.98059200  1
  O  O186  1  0.21706350  0.49453950  0.43509500  1
  O  O187  1  0.10536250  0.82163650  0.42946700  1
  O  O188  1  0.71434850  0.36388950  0.45242400  1
  O  O189  1  0.99614200  0.85154600  0.49792100  1
  O  O190  1  0.84028000  0.81577300  0.71838200  1
  O  O191  1  0.83777350  0.81317650  0.20758800  1
