# generated using pymatgen
data_Ca3(AlN2)2
_symmetry_space_group_name_H-M   'P 1'
_cell_length_a   10.63086400
_cell_length_b   8.28950400
_cell_length_c   5.53712348
_cell_angle_alpha   90.00000000
_cell_angle_beta   92.03568169
_cell_angle_gamma   90.00000000
_symmetry_Int_Tables_number   1
_chemical_formula_structural   Ca3(AlN2)2
_chemical_formula_sum   'Ca12 Al8 N16'
_cell_volume   487.64878491
_cell_formula_units_Z   4
loop_
 _symmetry_equiv_pos_site_id
 _symmetry_equiv_pos_as_xyz
  1  'x, y, z'
loop_
 _atom_site_type_symbol
 _atom_site_label
 _atom_site_symmetry_multiplicity
 _atom_site_fract_x
 _atom_site_fract_y
 _atom_site_fract_z
 _atom_site_occupancy
  Ca  Ca0  1  0.61598300  0.63760700  0.54478200  1
  Ca  Ca1  1  0.38401700  0.36239300  0.45521800  1
  Ca  Ca2  1  0.50000000  0.10066300  0.75000000  1
  Ca  Ca3  1  0.50000000  0.89933700  0.25000000  1
  Ca  Ca4  1  0.61598300  0.36239300  0.04478200  1
  Ca  Ca5  1  0.38401700  0.63760700  0.95521800  1
  Ca  Ca6  1  0.11598300  0.13760700  0.54478200  1
  Ca  Ca7  1  0.88401700  0.86239300  0.45521800  1
  Ca  Ca8  1  0.00000000  0.60066300  0.75000000  1
  Ca  Ca9  1  0.00000000  0.39933700  0.25000000  1
  Ca  Ca10  1  0.11598300  0.86239300  0.04478200  1
  Ca  Ca11  1  0.88401700  0.13760700  0.95521800  1
  Al  Al12  1  0.70439250  0.88110750  0.91219800  1
  Al  Al13  1  0.29560750  0.11889250  0.08780200  1
  Al  Al14  1  0.29560750  0.88110750  0.58780200  1
  Al  Al15  1  0.70439250  0.11889250  0.41219800  1
  Al  Al16  1  0.20439250  0.38110750  0.91219800  1
  Al  Al17  1  0.79560750  0.61889250  0.08780200  1
  Al  Al18  1  0.79560750  0.38110750  0.58780200  1
  Al  Al19  1  0.20439250  0.61889250  0.41219800  1
  N  N20  1  0.62209800  0.68052500  0.02078800  1
  N  N21  1  0.66258350  0.07372750  0.08179600  1
  N  N22  1  0.37790200  0.68052500  0.47921200  1
  N  N23  1  0.66258350  0.92627250  0.58179600  1
  N  N24  1  0.62209800  0.31947500  0.52078800  1
  N  N25  1  0.33741650  0.07372750  0.41820400  1
  N  N26  1  0.37790200  0.31947500  0.97921200  1
  N  N27  1  0.33741650  0.92627250  0.91820400  1
  N  N28  1  0.12209800  0.18052500  0.02078800  1
  N  N29  1  0.16258350  0.57372750  0.08179600  1
  N  N30  1  0.87790200  0.18052500  0.47921200  1
  N  N31  1  0.16258350  0.42627250  0.58179600  1
  N  N32  1  0.12209800  0.81947500  0.52078800  1
  N  N33  1  0.83741650  0.57372750  0.41820400  1
  N  N34  1  0.87790200  0.81947500  0.97921200  1
  N  N35  1  0.83741650  0.42627250  0.91820400  1
