# generated using pymatgen
data_Hg4AsI5
_symmetry_space_group_name_H-M   'P 1'
_cell_length_a   12.38946400
_cell_length_b   12.51021600
_cell_length_c   20.55056100
_cell_angle_alpha   90.00000000
_cell_angle_beta   90.00000000
_cell_angle_gamma   90.00000000
_symmetry_Int_Tables_number   1
_chemical_formula_structural   Hg4AsI5
_chemical_formula_sum   'Hg32 As8 I40'
_cell_volume   3185.23154633
_cell_formula_units_Z   8
loop_
 _symmetry_equiv_pos_site_id
 _symmetry_equiv_pos_as_xyz
  1  'x, y, z'
loop_
 _atom_site_type_symbol
 _atom_site_label
 _atom_site_symmetry_multiplicity
 _atom_site_fract_x
 _atom_site_fract_y
 _atom_site_fract_z
 _atom_site_occupancy
  Hg  Hg0  1  0.83858800  0.89573400  0.82784300  1
  Hg  Hg1  1  0.50000000  0.05306200  0.82934300  1
  Hg  Hg2  1  0.50000000  0.23454400  0.67093800  1
  Hg  Hg3  1  0.16141200  0.10426600  0.17215700  1
  Hg  Hg4  1  0.50000000  0.73454400  0.82906200  1
  Hg  Hg5  1  0.66141200  0.10426600  0.32784300  1
  Hg  Hg6  1  0.16141200  0.89573400  0.82784300  1
  Hg  Hg7  1  0.33858800  0.89573400  0.67215700  1
  Hg  Hg8  1  0.50000000  0.94693800  0.17065700  1
  Hg  Hg9  1  0.50000000  0.26545600  0.17093800  1
  Hg  Hg10  1  0.50000000  0.44693800  0.32934300  1
  Hg  Hg11  1  0.50000000  0.55306200  0.67065700  1
  Hg  Hg12  1  0.83858800  0.10426600  0.17215700  1
  Hg  Hg13  1  0.50000000  0.76545600  0.32906200  1
  Hg  Hg14  1  0.33858800  0.10426600  0.32784300  1
  Hg  Hg15  1  0.66141200  0.89573400  0.67215700  1
  Hg  Hg16  1  0.33858800  0.39573400  0.82784300  1
  Hg  Hg17  1  0.00000000  0.55306200  0.82934300  1
  Hg  Hg18  1  0.00000000  0.73454400  0.67093800  1
  Hg  Hg19  1  0.66141200  0.60426600  0.17215700  1
  Hg  Hg20  1  0.00000000  0.23454400  0.82906200  1
  Hg  Hg21  1  0.16141200  0.60426600  0.32784300  1
  Hg  Hg22  1  0.66141200  0.39573400  0.82784300  1
  Hg  Hg23  1  0.83858800  0.39573400  0.67215700  1
  Hg  Hg24  1  0.00000000  0.44693800  0.17065700  1
  Hg  Hg25  1  0.00000000  0.76545600  0.17093800  1
  Hg  Hg26  1  0.00000000  0.94693800  0.32934300  1
  Hg  Hg27  1  0.00000000  0.05306200  0.67065700  1
  Hg  Hg28  1  0.33858800  0.60426600  0.17215700  1
  Hg  Hg29  1  0.00000000  0.26545600  0.32906200  1
  Hg  Hg30  1  0.83858800  0.60426600  0.32784300  1
  Hg  Hg31  1  0.16141200  0.39573400  0.67215700  1
  As  As32  1  0.50000000  0.60604600  0.25046300  1
  As  As33  1  0.50000000  0.39395400  0.74953700  1
  As  As34  1  0.50000000  0.10604600  0.24953700  1
  As  As35  1  0.50000000  0.89395400  0.75046300  1
  As  As36  1  0.00000000  0.10604600  0.25046300  1
  As  As37  1  0.00000000  0.89395400  0.74953700  1
  As  As38  1  0.00000000  0.60604600  0.24953700  1
  As  As39  1  0.00000000  0.39395400  0.75046300  1
  I  I40  1  0.50000000  0.42735000  0.08374200  1
  I  I41  1  0.50000000  0.71268000  0.58249200  1
  I  I42  1  0.82024050  0.88898050  0.58257900  1
  I  I43  1  0.50000000  0.92735000  0.41625800  1
  I  I44  1  0.75000000  0.85979000  0.25000000  1
  I  I45  1  0.82024050  0.11101950  0.41742100  1
  I  I46  1  0.50000000  0.07265000  0.58374200  1
  I  I47  1  0.32024050  0.11101950  0.08257900  1
  I  I48  1  0.75000000  0.14021000  0.75000000  1
  I  I49  1  0.17975950  0.11101950  0.41742100  1
  I  I50  1  0.17975950  0.88898050  0.58257900  1
  I  I51  1  0.25000000  0.14021000  0.75000000  1
  I  I52  1  0.50000000  0.57265000  0.91625800  1
  I  I53  1  0.50000000  0.78732000  0.08249200  1
  I  I54  1  0.50000000  0.28732000  0.41750800  1
  I  I55  1  0.32024050  0.88898050  0.91742100  1
  I  I56  1  0.50000000  0.21268000  0.91750800  1
  I  I57  1  0.67975950  0.11101950  0.08257900  1
  I  I58  1  0.25000000  0.85979000  0.25000000  1
  I  I59  1  0.67975950  0.88898050  0.91742100  1
  I  I60  1  0.00000000  0.92735000  0.08374200  1
  I  I61  1  0.00000000  0.21268000  0.58249200  1
  I  I62  1  0.32024050  0.38898050  0.58257900  1
  I  I63  1  0.00000000  0.42735000  0.41625800  1
  I  I64  1  0.25000000  0.35979000  0.25000000  1
  I  I65  1  0.32024050  0.61101950  0.41742100  1
  I  I66  1  0.00000000  0.57265000  0.58374200  1
  I  I67  1  0.82024050  0.61101950  0.08257900  1
  I  I68  1  0.25000000  0.64021000  0.75000000  1
  I  I69  1  0.67975950  0.61101950  0.41742100  1
  I  I70  1  0.67975950  0.38898050  0.58257900  1
  I  I71  1  0.75000000  0.64021000  0.75000000  1
  I  I72  1  0.00000000  0.07265000  0.91625800  1
  I  I73  1  0.00000000  0.28732000  0.08249200  1
  I  I74  1  0.00000000  0.78732000  0.41750800  1
  I  I75  1  0.82024050  0.38898050  0.91742100  1
  I  I76  1  0.00000000  0.71268000  0.91750800  1
  I  I77  1  0.17975950  0.61101950  0.08257900  1
  I  I78  1  0.75000000  0.35979000  0.25000000  1
  I  I79  1  0.17975950  0.38898050  0.91742100  1
