# generated using pymatgen
data_Rb2(ReS2)3
_symmetry_space_group_name_H-M   'P 1'
_cell_length_a   17.16248200
_cell_length_b   9.96287000
_cell_length_c   12.18340687
_cell_angle_alpha   90.00000000
_cell_angle_beta   91.35022485
_cell_angle_gamma   90.00000000
_symmetry_Int_Tables_number   1
_chemical_formula_structural   Rb2(ReS2)3
_chemical_formula_sum   'Rb16 Re24 S48'
_cell_volume   2082.63279209
_cell_formula_units_Z   8
loop_
 _symmetry_equiv_pos_site_id
 _symmetry_equiv_pos_as_xyz
  1  'x, y, z'
loop_
 _atom_site_type_symbol
 _atom_site_label
 _atom_site_symmetry_multiplicity
 _atom_site_fract_x
 _atom_site_fract_y
 _atom_site_fract_z
 _atom_site_occupancy
  Rb  Rb0  1  0.50000000  0.88155900  0.25000000  1
  Rb  Rb1  1  0.38473850  0.75166150  0.48062900  1
  Rb  Rb2  1  0.50000000  0.28625600  0.25000000  1
  Rb  Rb3  1  0.61526150  0.24833850  0.51937100  1
  Rb  Rb4  1  0.50000000  0.71374400  0.75000000  1
  Rb  Rb5  1  0.38473850  0.24833850  0.98062900  1
  Rb  Rb6  1  0.50000000  0.11844100  0.75000000  1
  Rb  Rb7  1  0.61526150  0.75166150  0.01937100  1
  Rb  Rb8  1  0.00000000  0.38155900  0.25000000  1
  Rb  Rb9  1  0.88473850  0.25166150  0.48062900  1
  Rb  Rb10  1  0.00000000  0.78625600  0.25000000  1
  Rb  Rb11  1  0.11526150  0.74833850  0.51937100  1
  Rb  Rb12  1  0.00000000  0.21374400  0.75000000  1
  Rb  Rb13  1  0.88473850  0.74833850  0.98062900  1
  Rb  Rb14  1  0.00000000  0.61844100  0.75000000  1
  Rb  Rb15  1  0.11526150  0.25166150  0.01937100  1
  Re  Re16  1  0.15731800  0.84545700  0.97812400  1
  Re  Re17  1  0.29053950  0.17117550  0.37324300  1
  Re  Re18  1  0.70946050  0.17117550  0.12675700  1
  Re  Re19  1  0.29053950  0.82882450  0.87324300  1
  Re  Re20  1  0.84268200  0.15454300  0.02187600  1
  Re  Re21  1  0.70958400  0.89137900  0.41378400  1
  Re  Re22  1  0.70958400  0.10862100  0.91378400  1
  Re  Re23  1  0.29041600  0.89137900  0.08621600  1
  Re  Re24  1  0.84268200  0.84545700  0.52187600  1
  Re  Re25  1  0.15731800  0.15454300  0.47812400  1
  Re  Re26  1  0.70946050  0.82882450  0.62675700  1
  Re  Re27  1  0.29041600  0.10862100  0.58621600  1
  Re  Re28  1  0.65731800  0.34545700  0.97812400  1
  Re  Re29  1  0.79053950  0.67117550  0.37324300  1
  Re  Re30  1  0.20946050  0.67117550  0.12675700  1
  Re  Re31  1  0.79053950  0.32882450  0.87324300  1
  Re  Re32  1  0.34268200  0.65454300  0.02187600  1
  Re  Re33  1  0.20958400  0.39137900  0.41378400  1
  Re  Re34  1  0.20958400  0.60862100  0.91378400  1
  Re  Re35  1  0.79041600  0.39137900  0.08621600  1
  Re  Re36  1  0.34268200  0.34545700  0.52187600  1
  Re  Re37  1  0.65731800  0.65454300  0.47812400  1
  Re  Re38  1  0.20946050  0.32882450  0.62675700  1
  Re  Re39  1  0.79041600  0.60862100  0.58621600  1
  S  S40  1  0.16610750  0.10268750  0.67117700  1
  S  S41  1  0.83389250  0.10268750  0.82882300  1
  S  S42  1  0.33396200  0.71699700  0.21311000  1
  S  S43  1  0.76030850  0.03709250  0.55962900  1
  S  S44  1  0.34770650  0.92487750  0.70303000  1
  S  S45  1  0.34770650  0.07512250  0.20303000  1
  S  S46  1  0.23969150  0.03709250  0.94037100  1
  S  S47  1  0.58979800  0.86505700  0.51772100  1
  S  S48  1  0.76030850  0.96290750  0.05962900  1
  S  S49  1  0.53175050  0.53435250  0.43032800  1
  S  S50  1  0.46824950  0.53435250  0.06967200  1
  S  S51  1  0.66603800  0.71699700  0.28689000  1
  S  S52  1  0.23969150  0.96290750  0.44037100  1
  S  S53  1  0.33396200  0.28300300  0.71311000  1
  S  S54  1  0.83389250  0.89731250  0.32882300  1
  S  S55  1  0.46824950  0.46564750  0.56967200  1
  S  S56  1  0.53175050  0.46564750  0.93032800  1
  S  S57  1  0.65229350  0.07512250  0.29697000  1
  S  S58  1  0.65229350  0.92487750  0.79697000  1
  S  S59  1  0.58979800  0.13494300  0.01772100  1
  S  S60  1  0.66603800  0.28300300  0.78689000  1
  S  S61  1  0.16610750  0.89731250  0.17117700  1
  S  S62  1  0.41020200  0.86505700  0.98227900  1
  S  S63  1  0.41020200  0.13494300  0.48227900  1
  S  S64  1  0.66610750  0.60268750  0.67117700  1
  S  S65  1  0.33389250  0.60268750  0.82882300  1
  S  S66  1  0.83396200  0.21699700  0.21311000  1
  S  S67  1  0.26030850  0.53709250  0.55962900  1
  S  S68  1  0.84770650  0.42487750  0.70303000  1
  S  S69  1  0.84770650  0.57512250  0.20303000  1
  S  S70  1  0.73969150  0.53709250  0.94037100  1
  S  S71  1  0.08979800  0.36505700  0.51772100  1
  S  S72  1  0.26030850  0.46290750  0.05962900  1
  S  S73  1  0.03175050  0.03435250  0.43032800  1
  S  S74  1  0.96824950  0.03435250  0.06967200  1
  S  S75  1  0.16603800  0.21699700  0.28689000  1
  S  S76  1  0.73969150  0.46290750  0.44037100  1
  S  S77  1  0.83396200  0.78300300  0.71311000  1
  S  S78  1  0.33389250  0.39731250  0.32882300  1
  S  S79  1  0.96824950  0.96564750  0.56967200  1
  S  S80  1  0.03175050  0.96564750  0.93032800  1
  S  S81  1  0.15229350  0.57512250  0.29697000  1
  S  S82  1  0.15229350  0.42487750  0.79697000  1
  S  S83  1  0.08979800  0.63494300  0.01772100  1
  S  S84  1  0.16603800  0.78300300  0.78689000  1
  S  S85  1  0.66610750  0.39731250  0.17117700  1
  S  S86  1  0.91020200  0.36505700  0.98227900  1
  S  S87  1  0.91020200  0.63494300  0.48227900  1
