# generated using pymatgen
data_BaErAgS3
_symmetry_space_group_name_H-M   'P 1'
_cell_length_a   17.53379200
_cell_length_b   4.05828400
_cell_length_c   8.60324651
_cell_angle_alpha   90.00000000
_cell_angle_beta   103.00934786
_cell_angle_gamma   90.00000000
_symmetry_Int_Tables_number   1
_chemical_formula_structural   BaErAgS3
_chemical_formula_sum   'Ba4 Er4 Ag4 S12'
_cell_volume   596.46947290
_cell_formula_units_Z   4
loop_
 _symmetry_equiv_pos_site_id
 _symmetry_equiv_pos_as_xyz
  1  'x, y, z'
loop_
 _atom_site_type_symbol
 _atom_site_label
 _atom_site_symmetry_multiplicity
 _atom_site_fract_x
 _atom_site_fract_y
 _atom_site_fract_z
 _atom_site_occupancy
  Ba  Ba0  1  0.86414700  0.00000000  0.43111200  1
  Ba  Ba1  1  0.63585300  0.50000000  0.56888800  1
  Ba  Ba2  1  0.36414700  0.50000000  0.43111200  1
  Ba  Ba3  1  0.13585300  0.00000000  0.56888800  1
  Er  Er4  1  0.66382600  0.50000000  0.08043800  1
  Er  Er5  1  0.83617400  0.00000000  0.91956200  1
  Er  Er6  1  0.16382600  0.00000000  0.08043800  1
  Er  Er7  1  0.33617400  0.50000000  0.91956200  1
  Ag  Ag8  1  0.51463100  0.00000000  0.20868700  1
  Ag  Ag9  1  0.98536900  0.50000000  0.79131300  1
  Ag  Ag10  1  0.01463100  0.50000000  0.20868700  1
  Ag  Ag11  1  0.48536900  0.00000000  0.79131300  1
  S  S12  1  0.82529000  0.50000000  0.12943900  1
  S  S13  1  0.67471000  0.00000000  0.87056100  1
  S  S14  1  0.82404400  0.50000000  0.70091600  1
  S  S15  1  0.67595600  0.00000000  0.29908400  1
  S  S16  1  0.00000000  0.50000000  0.50000000  1
  S  S17  1  0.00000000  0.00000000  0.00000000  1
  S  S18  1  0.32529000  0.00000000  0.12943900  1
  S  S19  1  0.17471000  0.50000000  0.87056100  1
  S  S20  1  0.32404400  0.00000000  0.70091600  1
  S  S21  1  0.17595600  0.50000000  0.29908400  1
  S  S22  1  0.50000000  0.00000000  0.50000000  1
  S  S23  1  0.50000000  0.50000000  0.00000000  1
