# generated using pymatgen
data_Li3ScN2
_symmetry_space_group_name_H-M   'P 1'
_cell_length_a   10.06345200
_cell_length_b   10.06345200
_cell_length_c   10.06345200
_cell_angle_alpha   90.00000000
_cell_angle_beta   90.00000000
_cell_angle_gamma   90.00000000
_symmetry_Int_Tables_number   1
_chemical_formula_structural   Li3ScN2
_chemical_formula_sum   'Li48 Sc16 N32'
_cell_volume   1019.15664016
_cell_formula_units_Z   16
loop_
 _symmetry_equiv_pos_site_id
 _symmetry_equiv_pos_as_xyz
  1  'x, y, z'
loop_
 _atom_site_type_symbol
 _atom_site_label
 _atom_site_symmetry_multiplicity
 _atom_site_fract_x
 _atom_site_fract_y
 _atom_site_fract_z
 _atom_site_occupancy
  Li  Li0  1  0.13795700  0.40375900  0.13609200  1
  Li  Li1  1  0.86390800  0.36204300  0.40375900  1
  Li  Li2  1  0.09624100  0.13609200  0.86204300  1
  Li  Li3  1  0.13609200  0.86204300  0.09624100  1
  Li  Li4  1  0.59624100  0.36390800  0.13795700  1
  Li  Li5  1  0.13609200  0.13795700  0.40375900  1
  Li  Li6  1  0.40375900  0.13609200  0.13795700  1
  Li  Li7  1  0.40375900  0.86390800  0.36204300  1
  Li  Li8  1  0.36390800  0.13795700  0.59624100  1
  Li  Li9  1  0.86204300  0.09624100  0.13609200  1
  Li  Li10  1  0.13795700  0.59624100  0.36390800  1
  Li  Li11  1  0.36204300  0.40375900  0.86390800  1
  Li  Li12  1  0.36204300  0.09624100  0.36390800  1
  Li  Li13  1  0.63609200  0.13795700  0.09624100  1
  Li  Li14  1  0.40375900  0.36390800  0.63795700  1
  Li  Li15  1  0.36390800  0.63795700  0.40375900  1
  Li  Li16  1  0.90375900  0.13609200  0.36204300  1
  Li  Li17  1  0.36390800  0.36204300  0.09624100  1
  Li  Li18  1  0.09624100  0.36390800  0.36204300  1
  Li  Li19  1  0.09624100  0.63609200  0.13795700  1
  Li  Li20  1  0.13609200  0.36204300  0.90375900  1
  Li  Li21  1  0.63795700  0.40375900  0.36390800  1
  Li  Li22  1  0.36204300  0.90375900  0.13609200  1
  Li  Li23  1  0.13795700  0.09624100  0.63609200  1
  Li  Li24  1  0.63795700  0.90375900  0.63609200  1
  Li  Li25  1  0.36390800  0.86204300  0.90375900  1
  Li  Li26  1  0.59624100  0.63609200  0.36204300  1
  Li  Li27  1  0.63609200  0.36204300  0.59624100  1
  Li  Li28  1  0.09624100  0.86390800  0.63795700  1
  Li  Li29  1  0.63609200  0.63795700  0.90375900  1
  Li  Li30  1  0.90375900  0.63609200  0.63795700  1
  Li  Li31  1  0.90375900  0.36390800  0.86204300  1
  Li  Li32  1  0.86390800  0.63795700  0.09624100  1
  Li  Li33  1  0.36204300  0.59624100  0.63609200  1
  Li  Li34  1  0.63795700  0.09624100  0.86390800  1
  Li  Li35  1  0.86204300  0.90375900  0.36390800  1
  Li  Li36  1  0.86204300  0.59624100  0.86390800  1
  Li  Li37  1  0.13609200  0.63795700  0.59624100  1
  Li  Li38  1  0.90375900  0.86390800  0.13795700  1
  Li  Li39  1  0.86390800  0.13795700  0.90375900  1
  Li  Li40  1  0.40375900  0.63609200  0.86204300  1
  Li  Li41  1  0.86390800  0.86204300  0.59624100  1
  Li  Li42  1  0.59624100  0.86390800  0.86204300  1
  Li  Li43  1  0.59624100  0.13609200  0.63795700  1
  Li  Li44  1  0.63609200  0.86204300  0.40375900  1
  Li  Li45  1  0.13795700  0.90375900  0.86390800  1
  Li  Li46  1  0.86204300  0.40375900  0.63609200  1
  Li  Li47  1  0.63795700  0.59624100  0.13609200  1
  Sc  Sc48  1  0.87120350  0.37120350  0.12879650  1
  Sc  Sc49  1  0.37120350  0.12879650  0.87120350  1
  Sc  Sc50  1  0.12879650  0.12879650  0.12879650  1
  Sc  Sc51  1  0.12879650  0.87120350  0.37120350  1
  Sc  Sc52  1  0.12879650  0.62879650  0.87120350  1
  Sc  Sc53  1  0.62879650  0.87120350  0.12879650  1
  Sc  Sc54  1  0.37120350  0.37120350  0.37120350  1
  Sc  Sc55  1  0.87120350  0.12879650  0.62879650  1
  Sc  Sc56  1  0.37120350  0.87120350  0.62879650  1
  Sc  Sc57  1  0.87120350  0.62879650  0.37120350  1
  Sc  Sc58  1  0.62879650  0.62879650  0.62879650  1
  Sc  Sc59  1  0.62879650  0.37120350  0.87120350  1
  Sc  Sc60  1  0.62879650  0.12879650  0.37120350  1
  Sc  Sc61  1  0.12879650  0.37120350  0.62879650  1
  Sc  Sc62  1  0.87120350  0.87120350  0.87120350  1
  Sc  Sc63  1  0.37120350  0.62879650  0.12879650  1
  N  N64  1  0.75000000  0.25000000  0.25000000  1
  N  N65  1  0.25000000  0.25000000  0.75000000  1
  N  N66  1  0.25000000  0.25000000  0.25000000  1
  N  N67  1  0.25000000  0.75000000  0.25000000  1
  N  N68  1  0.25000000  0.98600100  0.50000000  1
  N  N69  1  0.50000000  0.25000000  0.98600100  1
  N  N70  1  0.01399900  0.00000000  0.25000000  1
  N  N71  1  0.00000000  0.25000000  0.01399900  1
  N  N72  1  0.98600100  0.50000000  0.25000000  1
  N  N73  1  0.25000000  0.01399900  0.00000000  1
  N  N74  1  0.25000000  0.51399900  0.00000000  1
  N  N75  1  0.00000000  0.25000000  0.51399900  1
  N  N76  1  0.48600100  0.50000000  0.25000000  1
  N  N77  1  0.50000000  0.25000000  0.48600100  1
  N  N78  1  0.51399900  0.00000000  0.25000000  1
  N  N79  1  0.25000000  0.48600100  0.50000000  1
  N  N80  1  0.25000000  0.75000000  0.75000000  1
  N  N81  1  0.75000000  0.75000000  0.25000000  1
  N  N82  1  0.75000000  0.75000000  0.75000000  1
  N  N83  1  0.75000000  0.25000000  0.75000000  1
  N  N84  1  0.75000000  0.48600100  0.00000000  1
  N  N85  1  0.00000000  0.75000000  0.48600100  1
  N  N86  1  0.51399900  0.50000000  0.75000000  1
  N  N87  1  0.50000000  0.75000000  0.51399900  1
  N  N88  1  0.48600100  0.00000000  0.75000000  1
  N  N89  1  0.75000000  0.51399900  0.50000000  1
  N  N90  1  0.75000000  0.01399900  0.50000000  1
  N  N91  1  0.50000000  0.75000000  0.01399900  1
  N  N92  1  0.98600100  0.00000000  0.75000000  1
  N  N93  1  0.00000000  0.75000000  0.98600100  1
  N  N94  1  0.01399900  0.50000000  0.75000000  1
  N  N95  1  0.75000000  0.98600100  0.00000000  1
