# generated using pymatgen
data_SiO2
_symmetry_space_group_name_H-M   'P 1'
_cell_length_a   12.59270449
_cell_length_b   12.59270449
_cell_length_c   7.17098531
_cell_angle_alpha   90.00000000
_cell_angle_beta   90.00000000
_cell_angle_gamma   120.00000000
_symmetry_Int_Tables_number   1
_chemical_formula_structural   SiO2
_chemical_formula_sum   'Si18 O36'
_cell_volume   984.79875075
_cell_formula_units_Z   18
loop_
 _symmetry_equiv_pos_site_id
 _symmetry_equiv_pos_as_xyz
  1  'x, y, z'
loop_
 _atom_site_type_symbol
 _atom_site_label
 _atom_site_symmetry_multiplicity
 _atom_site_fract_x
 _atom_site_fract_y
 _atom_site_fract_z
 _atom_site_occupancy
  Si  Si0  1  0.68600733  0.10063067  0.37089167  1
  Si  Si1  1  0.74795667  0.98065933  0.03755833  1
  Si  Si2  1  0.98065933  0.23270267  0.96244167  1
  Si  Si3  1  0.91871000  0.35267400  0.29577500  1
  Si  Si4  1  0.56603600  0.91871000  0.70422500  1
  Si  Si5  1  0.10063067  0.41462333  0.62910833  1
  Si  Si6  1  0.35267400  0.43396400  0.70422500  1
  Si  Si7  1  0.41462333  0.31399267  0.37089167  1
  Si  Si8  1  0.64732600  0.56603600  0.29577500  1
  Si  Si9  1  0.58537667  0.68600733  0.62910833  1
  Si  Si10  1  0.23270267  0.25204333  0.03755833  1
  Si  Si11  1  0.76729733  0.74795667  0.96244167  1
  Si  Si12  1  0.01934067  0.76729733  0.03755833  1
  Si  Si13  1  0.08129000  0.64732600  0.70422500  1
  Si  Si14  1  0.31399267  0.89936933  0.62910833  1
  Si  Si15  1  0.25204333  0.01934067  0.96244167  1
  Si  Si16  1  0.89936933  0.58537667  0.37089167  1
  Si  Si17  1  0.43396400  0.08129000  0.29577500  1
  O  O18  1  0.93978433  0.31317167  0.08962667  1
  O  O19  1  0.86624667  0.09413333  0.93698633  1
  O  O20  1  0.64650500  0.04005400  0.57704000  1
  O  O21  1  0.72688233  0.02016167  0.24370667  1
  O  O22  1  0.09413333  0.22788667  0.06301367  1
  O  O23  1  0.10544667  0.53291333  0.72968033  1
  O  O24  1  0.56122000  0.80042000  0.60365300  1
  O  O25  1  0.80042000  0.23920000  0.39634700  1
  O  O26  1  0.57253333  0.10544667  0.27031967  1
  O  O27  1  0.62661267  0.93978433  0.91037333  1
  O  O28  1  0.04005400  0.39354900  0.42296000  1
  O  O29  1  0.02016167  0.29327933  0.75629333  1
  O  O30  1  0.60645100  0.64650500  0.42296000  1
  O  O31  1  0.53291333  0.42746667  0.27031967  1
  O  O32  1  0.31317167  0.37338733  0.91037333  1
  O  O33  1  0.39354900  0.35349500  0.57704000  1
  O  O34  1  0.76080000  0.56122000  0.39634700  1
  O  O35  1  0.77211333  0.86624667  0.06301367  1
  O  O36  1  0.22788667  0.13375333  0.93698633  1
  O  O37  1  0.46708667  0.57253333  0.72968033  1
  O  O38  1  0.23920000  0.43878000  0.60365300  1
  O  O39  1  0.29327933  0.27311767  0.24370667  1
  O  O40  1  0.70672067  0.72688233  0.75629333  1
  O  O41  1  0.68682833  0.62661267  0.08962667  1
  O  O42  1  0.27311767  0.97983833  0.75629333  1
  O  O43  1  0.19958000  0.76080000  0.60365300  1
  O  O44  1  0.97983833  0.70672067  0.24370667  1
  O  O45  1  0.06021567  0.68682833  0.91037333  1
  O  O46  1  0.42746667  0.89455333  0.72968033  1
  O  O47  1  0.43878000  0.19958000  0.39634700  1
  O  O48  1  0.89455333  0.46708667  0.27031967  1
  O  O49  1  0.13375333  0.90586667  0.06301367  1
  O  O50  1  0.90586667  0.77211333  0.93698633  1
  O  O51  1  0.95994600  0.60645100  0.57704000  1
  O  O52  1  0.37338733  0.06021567  0.08962667  1
  O  O53  1  0.35349500  0.95994600  0.42296000  1
