# generated using pymatgen
data_BaLi(B3O5)3
_symmetry_space_group_name_H-M   'P 1'
_cell_length_a   11.17861463
_cell_length_b   11.17861463
_cell_length_c   17.19063024
_cell_angle_alpha   90.00000000
_cell_angle_beta   90.00000000
_cell_angle_gamma   120.00000000
_symmetry_Int_Tables_number   1
_chemical_formula_structural   BaLi(B3O5)3
_chemical_formula_sum   'Ba6 Li6 B54 O90'
_cell_volume   1860.36602550
_cell_formula_units_Z   6
loop_
 _symmetry_equiv_pos_site_id
 _symmetry_equiv_pos_as_xyz
  1  'x, y, z'
loop_
 _atom_site_type_symbol
 _atom_site_label
 _atom_site_symmetry_multiplicity
 _atom_site_fract_x
 _atom_site_fract_y
 _atom_site_fract_z
 _atom_site_occupancy
  Ba  Ba0  1  0.00000000  0.00000000  0.00000000  1
  Ba  Ba1  1  0.33333333  0.66666667  0.16666667  1
  Ba  Ba2  1  0.66666667  0.33333333  0.33333333  1
  Ba  Ba3  1  0.00000000  0.00000000  0.50000000  1
  Ba  Ba4  1  0.33333333  0.66666667  0.66666667  1
  Ba  Ba5  1  0.66666667  0.33333333  0.83333333  1
  Li  Li6  1  0.33333333  0.66666667  0.41666667  1
  Li  Li7  1  0.33333333  0.66666667  0.91666667  1
  Li  Li8  1  0.00000000  0.00000000  0.75000000  1
  Li  Li9  1  0.00000000  0.00000000  0.25000000  1
  Li  Li10  1  0.66666667  0.33333333  0.08333333  1
  Li  Li11  1  0.66666667  0.33333333  0.58333333  1
  B  B12  1  0.23630367  0.33333333  0.08333333  1
  B  B13  1  0.12946300  0.39655500  0.97730100  1
  B  B14  1  0.43036300  0.00000000  0.25000000  1
  B  B15  1  0.60344500  0.73290800  0.97730100  1
  B  B16  1  0.39957467  0.46279633  0.35603233  1
  B  B17  1  0.60042533  0.06322167  0.14396767  1
  B  B18  1  0.56963700  0.56963700  0.25000000  1
  B  B19  1  0.20387033  0.93375867  0.18936567  1
  B  B20  1  0.06624133  0.27011167  0.18936567  1
  B  B21  1  0.72988833  0.79612967  0.18936567  1
  B  B22  1  0.66666667  0.90297033  0.08333333  1
  B  B23  1  0.26709200  0.87053700  0.97730100  1
  B  B24  1  0.00000000  0.43036300  0.25000000  1
  B  B25  1  0.46279633  0.39957467  0.14396767  1
  B  B26  1  0.06322167  0.60042533  0.35603233  1
  B  B27  1  0.53720367  0.93677833  0.35603233  1
  B  B28  1  0.09702967  0.76369633  0.08333333  1
  B  B29  1  0.93677833  0.53720367  0.14396767  1
  B  B30  1  0.90297033  0.66666667  0.41666667  1
  B  B31  1  0.79612967  0.72988833  0.31063433  1
  B  B32  1  0.09702967  0.33333333  0.58333333  1
  B  B33  1  0.27011167  0.06624133  0.31063433  1
  B  B34  1  0.06624133  0.79612967  0.68936567  1
  B  B35  1  0.26709200  0.39655500  0.47730100  1
  B  B36  1  0.23630367  0.90297033  0.58333333  1
  B  B37  1  0.87053700  0.26709200  0.52269900  1
  B  B38  1  0.73290800  0.60344500  0.52269900  1
  B  B39  1  0.39655500  0.12946300  0.52269900  1
  B  B40  1  0.33333333  0.23630367  0.41666667  1
  B  B41  1  0.93375867  0.20387033  0.31063433  1
  B  B42  1  0.66666667  0.76369633  0.58333333  1
  B  B43  1  0.12946300  0.73290800  0.47730100  1
  B  B44  1  0.72988833  0.93375867  0.68936567  1
  B  B45  1  0.20387033  0.27011167  0.68936567  1
  B  B46  1  0.76369633  0.09702967  0.41666667  1
  B  B47  1  0.60344500  0.87053700  0.47730100  1
  B  B48  1  0.56963700  0.00000000  0.75000000  1
  B  B49  1  0.46279633  0.06322167  0.64396767  1
  B  B50  1  0.76369633  0.66666667  0.91666667  1
  B  B51  1  0.93677833  0.39957467  0.64396767  1
  B  B52  1  0.73290800  0.12946300  0.02269900  1
  B  B53  1  0.93375867  0.72988833  0.81063433  1
  B  B54  1  0.90297033  0.23630367  0.91666667  1
  B  B55  1  0.53720367  0.60042533  0.85603233  1
  B  B56  1  0.39957467  0.93677833  0.85603233  1
  B  B57  1  0.06322167  0.46279633  0.85603233  1
  B  B58  1  0.00000000  0.56963700  0.75000000  1
  B  B59  1  0.60042533  0.53720367  0.64396767  1
  B  B60  1  0.33333333  0.09702967  0.91666667  1
  B  B61  1  0.79612967  0.06624133  0.81063433  1
  B  B62  1  0.39655500  0.26709200  0.02269900  1
  B  B63  1  0.87053700  0.60344500  0.02269900  1
  B  B64  1  0.43036300  0.43036300  0.75000000  1
  B  B65  1  0.27011167  0.20387033  0.81063433  1
  O  O66  1  0.98371667  0.73186433  0.02838033  1
  O  O67  1  0.11423233  0.22970567  0.12791367  1
  O  O68  1  0.21786000  0.43696100  0.03875300  1
  O  O69  1  0.77029433  0.88452667  0.12791367  1
  O  O70  1  0.60146900  0.68295000  0.19504700  1
  O  O71  1  0.33333333  0.49305867  0.41666667  1
  O  O72  1  0.33333333  0.84027467  0.91666667  1
  O  O73  1  0.11547333  0.88576767  0.12791367  1
  O  O74  1  0.31705000  0.91851900  0.19504700  1
  O  O75  1  0.44756567  0.55119333  0.29458033  1
  O  O76  1  0.10362767  0.55243433  0.29458033  1
  O  O77  1  0.55119333  0.44756567  0.20541967  1
  O  O78  1  0.50694133  0.84027467  0.41666667  1
  O  O79  1  0.15972533  0.66666667  0.41666667  1
  O  O80  1  0.91851900  0.31705000  0.30495300  1
  O  O81  1  0.21910100  0.78214000  0.03875300  1
  O  O82  1  0.34961667  0.41481433  0.13828633  1
  O  O83  1  0.74814767  0.01628333  0.02838033  1
  O  O84  1  0.89637233  0.44880667  0.20541967  1
  O  O85  1  0.26813567  0.25185233  0.02838033  1
  O  O86  1  0.50694133  0.66666667  0.91666667  1
  O  O87  1  0.08148100  0.39853100  0.19504700  1
  O  O88  1  0.58518567  0.93480233  0.13828633  1
  O  O89  1  0.68295000  0.60146900  0.30495300  1
  O  O90  1  0.15972533  0.49305867  0.91666667  1
  O  O91  1  0.55243433  0.10362767  0.20541967  1
  O  O92  1  0.56303900  0.78089900  0.03875300  1
  O  O93  1  0.39853100  0.08148100  0.30495300  1
  O  O94  1  0.44880667  0.89637233  0.29458033  1
  O  O95  1  0.06519767  0.65038333  0.13828633  1
  O  O96  1  0.65038333  0.06519767  0.36171367  1
  O  O97  1  0.78089900  0.56303900  0.46124700  1
  O  O98  1  0.88452667  0.77029433  0.37208633  1
  O  O99  1  0.43696100  0.21786000  0.46124700  1
  O  O100  1  0.26813567  0.01628333  0.52838033  1
  O  O101  1  0.00000000  0.82639200  0.75000000  1
  O  O102  1  0.00000000  0.17360800  0.25000000  1
  O  O103  1  0.78214000  0.21910100  0.46124700  1
  O  O104  1  0.98371667  0.25185233  0.52838033  1
  O  O105  1  0.11423233  0.88452667  0.62791367  1
  O  O106  1  0.77029433  0.88576767  0.62791367  1
  O  O107  1  0.21786000  0.78089900  0.53875300  1
  O  O108  1  0.17360800  0.17360800  0.75000000  1
  O  O109  1  0.82639200  0.00000000  0.75000000  1
  O  O110  1  0.58518567  0.65038333  0.63828633  1
  O  O111  1  0.88576767  0.11547333  0.37208633  1
  O  O112  1  0.01628333  0.74814767  0.47161967  1
  O  O113  1  0.41481433  0.34961667  0.36171367  1
  O  O114  1  0.56303900  0.78214000  0.53875300  1
  O  O115  1  0.93480233  0.58518567  0.36171367  1
  O  O116  1  0.17360800  0.00000000  0.25000000  1
  O  O117  1  0.74814767  0.73186433  0.52838033  1
  O  O118  1  0.25185233  0.26813567  0.47161967  1
  O  O119  1  0.34961667  0.93480233  0.63828633  1
  O  O120  1  0.82639200  0.82639200  0.25000000  1
  O  O121  1  0.21910100  0.43696100  0.53875300  1
  O  O122  1  0.22970567  0.11423233  0.37208633  1
  O  O123  1  0.06519767  0.41481433  0.63828633  1
  O  O124  1  0.11547333  0.22970567  0.62791367  1
  O  O125  1  0.73186433  0.98371667  0.47161967  1
  O  O126  1  0.31705000  0.39853100  0.69504700  1
  O  O127  1  0.44756567  0.89637233  0.79458033  1
  O  O128  1  0.55119333  0.10362767  0.70541967  1
  O  O129  1  0.10362767  0.55119333  0.79458033  1
  O  O130  1  0.93480233  0.34961667  0.86171367  1
  O  O131  1  0.66666667  0.15972533  0.08333333  1
  O  O132  1  0.66666667  0.50694133  0.58333333  1
  O  O133  1  0.44880667  0.55243433  0.79458033  1
  O  O134  1  0.65038333  0.58518567  0.86171367  1
  O  O135  1  0.78089900  0.21786000  0.96124700  1
  O  O136  1  0.43696100  0.21910100  0.96124700  1
  O  O137  1  0.88452667  0.11423233  0.87208633  1
  O  O138  1  0.84027467  0.50694133  0.08333333  1
  O  O139  1  0.49305867  0.33333333  0.08333333  1
  O  O140  1  0.25185233  0.98371667  0.97161967  1
  O  O141  1  0.55243433  0.44880667  0.70541967  1
  O  O142  1  0.68295000  0.08148100  0.80495300  1
  O  O143  1  0.08148100  0.68295000  0.69504700  1
  O  O144  1  0.22970567  0.11547333  0.87208633  1
  O  O145  1  0.60146900  0.91851900  0.69504700  1
  O  O146  1  0.84027467  0.33333333  0.58333333  1
  O  O147  1  0.41481433  0.06519767  0.86171367  1
  O  O148  1  0.91851900  0.60146900  0.80495300  1
  O  O149  1  0.01628333  0.26813567  0.97161967  1
  O  O150  1  0.49305867  0.15972533  0.58333333  1
  O  O151  1  0.88576767  0.77029433  0.87208633  1
  O  O152  1  0.89637233  0.44756567  0.70541967  1
  O  O153  1  0.73186433  0.74814767  0.97161967  1
  O  O154  1  0.78214000  0.56303900  0.96124700  1
  O  O155  1  0.39853100  0.31705000  0.80495300  1
