# generated using pymatgen
data_Tm2O3
_symmetry_space_group_name_H-M   'P 1'
_cell_length_a   13.87182400
_cell_length_b   3.43365800
_cell_length_c   8.50942514
_cell_angle_alpha   90.00000000
_cell_angle_beta   100.37044755
_cell_angle_gamma   90.00000000
_symmetry_Int_Tables_number   1
_chemical_formula_structural   Tm2O3
_chemical_formula_sum   'Tm12 O18'
_cell_volume   398.69225985
_cell_formula_units_Z   6
loop_
 _symmetry_equiv_pos_site_id
 _symmetry_equiv_pos_as_xyz
  1  'x, y, z'
loop_
 _atom_site_type_symbol
 _atom_site_label
 _atom_site_symmetry_multiplicity
 _atom_site_fract_x
 _atom_site_fract_y
 _atom_site_fract_z
 _atom_site_occupancy
  Tm  Tm0  1  0.86488800  0.50000000  0.51250300  1
  Tm  Tm1  1  0.80833800  0.50000000  0.86267300  1
  Tm  Tm2  1  0.69166200  0.00000000  0.13732700  1
  Tm  Tm3  1  0.96801700  0.00000000  0.18564100  1
  Tm  Tm4  1  0.63511200  0.00000000  0.48749700  1
  Tm  Tm5  1  0.53198300  0.50000000  0.81435900  1
  Tm  Tm6  1  0.36488800  0.00000000  0.51250300  1
  Tm  Tm7  1  0.30833800  0.00000000  0.86267300  1
  Tm  Tm8  1  0.19166200  0.50000000  0.13732700  1
  Tm  Tm9  1  0.46801700  0.50000000  0.18564100  1
  Tm  Tm10  1  0.13511200  0.50000000  0.48749700  1
  Tm  Tm11  1  0.03198300  0.00000000  0.81435900  1
  O  O12  1  0.87243700  0.00000000  0.71870000  1
  O  O13  1  0.79298500  0.00000000  0.37745600  1
  O  O14  1  0.97024600  0.50000000  0.34269100  1
  O  O15  1  0.62756300  0.50000000  0.28130000  1
  O  O16  1  0.67439700  0.50000000  0.96885600  1
  O  O17  1  0.00000000  0.50000000  0.00000000  1
  O  O18  1  0.82560300  0.00000000  0.03114400  1
  O  O19  1  0.70701500  0.50000000  0.62254400  1
  O  O20  1  0.52975400  0.00000000  0.65730900  1
  O  O21  1  0.37243700  0.50000000  0.71870000  1
  O  O22  1  0.29298500  0.50000000  0.37745600  1
  O  O23  1  0.47024600  0.00000000  0.34269100  1
  O  O24  1  0.12756300  0.00000000  0.28130000  1
  O  O25  1  0.17439700  0.00000000  0.96885600  1
  O  O26  1  0.50000000  0.00000000  0.00000000  1
  O  O27  1  0.32560300  0.50000000  0.03114400  1
  O  O28  1  0.20701500  0.00000000  0.62254400  1
  O  O29  1  0.02975400  0.50000000  0.65730900  1
