# generated using pymatgen
data_TiSO5
_symmetry_space_group_name_H-M   'P 1'
_cell_length_a   5.30859700
_cell_length_b   6.65382200
_cell_length_c   11.20260300
_cell_angle_alpha   90.00000000
_cell_angle_beta   90.00000000
_cell_angle_gamma   90.00000000
_symmetry_Int_Tables_number   1
_chemical_formula_structural   TiSO5
_chemical_formula_sum   'Ti4 S4 O20'
_cell_volume   395.70349085
_cell_formula_units_Z   4
loop_
 _symmetry_equiv_pos_site_id
 _symmetry_equiv_pos_as_xyz
  1  'x, y, z'
loop_
 _atom_site_type_symbol
 _atom_site_label
 _atom_site_symmetry_multiplicity
 _atom_site_fract_x
 _atom_site_fract_y
 _atom_site_fract_z
 _atom_site_occupancy
  Ti  Ti0  1  0.25000000  0.84291700  0.05604400  1
  Ti  Ti1  1  0.75000000  0.34291700  0.44395600  1
  Ti  Ti2  1  0.25000000  0.65708300  0.55604400  1
  Ti  Ti3  1  0.75000000  0.15708300  0.94395600  1
  S  S4  1  0.25000000  0.47558300  0.84409300  1
  S  S5  1  0.75000000  0.52441700  0.15590700  1
  S  S6  1  0.75000000  0.97558300  0.65590700  1
  S  S7  1  0.25000000  0.02441700  0.34409300  1
  O  O8  1  0.25000000  0.67006900  0.90997900  1
  O  O9  1  0.50000000  0.50000000  0.50000000  1
  O  O10  1  0.25000000  0.97561600  0.21460500  1
  O  O11  1  0.25000000  0.82993100  0.40997900  1
  O  O12  1  0.01973900  0.36295500  0.87154900  1
  O  O13  1  0.48026100  0.13704500  0.37154900  1
  O  O14  1  0.98026100  0.63704500  0.12845100  1
  O  O15  1  0.75000000  0.32993100  0.09002100  1
  O  O16  1  0.51973900  0.63704500  0.12845100  1
  O  O17  1  0.75000000  0.02438400  0.78539500  1
  O  O18  1  0.00000000  0.00000000  0.00000000  1
  O  O19  1  0.75000000  0.47561600  0.28539500  1
  O  O20  1  0.75000000  0.17006900  0.59002100  1
  O  O21  1  0.51973900  0.86295500  0.62845100  1
  O  O22  1  0.01973900  0.13704500  0.37154900  1
  O  O23  1  0.98026100  0.86295500  0.62845100  1
  O  O24  1  0.48026100  0.36295500  0.87154900  1
  O  O25  1  0.50000000  0.00000000  0.00000000  1
  O  O26  1  0.00000000  0.50000000  0.50000000  1
  O  O27  1  0.25000000  0.52438400  0.71460500  1
