# generated using pymatgen
data_SiO2
_symmetry_space_group_name_H-M   'P 1'
_cell_length_a   10.31189600
_cell_length_b   12.72961400
_cell_length_c   14.16308800
_cell_angle_alpha   90.00000000
_cell_angle_beta   90.00000000
_cell_angle_gamma   90.00000000
_symmetry_Int_Tables_number   1
_chemical_formula_structural   SiO2
_chemical_formula_sum   'Si32 O64'
_cell_volume   1859.13836336
_cell_formula_units_Z   32
loop_
 _symmetry_equiv_pos_site_id
 _symmetry_equiv_pos_as_xyz
  1  'x, y, z'
loop_
 _atom_site_type_symbol
 _atom_site_label
 _atom_site_symmetry_multiplicity
 _atom_site_fract_x
 _atom_site_fract_y
 _atom_site_fract_z
 _atom_site_occupancy
  Si  Si0  1  0.50000000  0.16256200  0.50000000  1
  Si  Si1  1  0.50000000  0.00000000  0.63657300  1
  Si  Si2  1  0.38814900  0.29841400  0.81627400  1
  Si  Si3  1  0.61185100  0.29841400  0.18372600  1
  Si  Si4  1  0.50000000  0.66256200  0.00000000  1
  Si  Si5  1  0.61185100  0.79841400  0.31627400  1
  Si  Si6  1  0.00000000  0.00000000  0.86342700  1
  Si  Si7  1  0.50000000  0.83743800  0.50000000  1
  Si  Si8  1  0.38814900  0.70158600  0.18372600  1
  Si  Si9  1  0.61185100  0.70158600  0.81627400  1
  Si  Si10  1  0.50000000  0.00000000  0.36342700  1
  Si  Si11  1  0.38814900  0.20158600  0.31627400  1
  Si  Si12  1  0.61185100  0.20158600  0.68372600  1
  Si  Si13  1  0.38814900  0.79841400  0.68372600  1
  Si  Si14  1  0.50000000  0.33743800  0.00000000  1
  Si  Si15  1  0.00000000  0.00000000  0.13657300  1
  Si  Si16  1  0.00000000  0.66256200  0.50000000  1
  Si  Si17  1  0.00000000  0.50000000  0.63657300  1
  Si  Si18  1  0.88814900  0.79841400  0.81627400  1
  Si  Si19  1  0.11185100  0.79841400  0.18372600  1
  Si  Si20  1  0.00000000  0.16256200  0.00000000  1
  Si  Si21  1  0.11185100  0.29841400  0.31627400  1
  Si  Si22  1  0.50000000  0.50000000  0.86342700  1
  Si  Si23  1  0.00000000  0.33743800  0.50000000  1
  Si  Si24  1  0.88814900  0.20158600  0.18372600  1
  Si  Si25  1  0.11185100  0.20158600  0.81627400  1
  Si  Si26  1  0.00000000  0.50000000  0.36342700  1
  Si  Si27  1  0.88814900  0.70158600  0.31627400  1
  Si  Si28  1  0.11185100  0.70158600  0.68372600  1
  Si  Si29  1  0.88814900  0.29841400  0.68372600  1
  Si  Si30  1  0.00000000  0.83743800  0.00000000  1
  Si  Si31  1  0.50000000  0.50000000  0.13657300  1
  O  O32  1  0.41702650  0.41658150  0.07143800  1
  O  O33  1  0.25000000  0.75000000  0.71699300  1
  O  O34  1  0.50000000  0.25000000  0.75000000  1
  O  O35  1  0.39599850  0.07202350  0.30408200  1
  O  O36  1  0.39599850  0.92797650  0.69591800  1
  O  O37  1  0.58297350  0.58341850  0.07143800  1
  O  O38  1  0.50000000  0.25000000  0.25000000  1
  O  O39  1  0.89599850  0.07202350  0.19591800  1
  O  O40  1  0.10400150  0.07202350  0.80408200  1
  O  O41  1  0.40947450  0.26872450  0.92909500  1
  O  O42  1  0.25000000  0.25000000  0.78300700  1
  O  O43  1  0.59052550  0.73127550  0.92909500  1
  O  O44  1  0.40947450  0.23127550  0.42909500  1
  O  O45  1  0.60400150  0.92797650  0.30408200  1
  O  O46  1  0.59052550  0.23127550  0.57090500  1
  O  O47  1  0.10400150  0.92797650  0.19591800  1
  O  O48  1  0.25000000  0.25000000  0.28300700  1
  O  O49  1  0.40947450  0.76872450  0.57090500  1
  O  O50  1  0.58297350  0.91658150  0.57143800  1
  O  O51  1  0.41702650  0.58341850  0.92856200  1
  O  O52  1  0.40947450  0.73127550  0.07090500  1
  O  O53  1  0.59052550  0.26872450  0.07090500  1
  O  O54  1  0.41702650  0.91658150  0.42856200  1
  O  O55  1  0.41702650  0.08341850  0.57143800  1
  O  O56  1  0.89599850  0.92797650  0.80408200  1
  O  O57  1  0.58297350  0.08341850  0.42856200  1
  O  O58  1  0.50000000  0.75000000  0.75000000  1
  O  O59  1  0.25000000  0.75000000  0.21699300  1
  O  O60  1  0.58297350  0.41658150  0.92856200  1
  O  O61  1  0.60400150  0.07202350  0.69591800  1
  O  O62  1  0.59052550  0.76872450  0.42909500  1
  O  O63  1  0.50000000  0.75000000  0.25000000  1
  O  O64  1  0.91702650  0.91658150  0.07143800  1
  O  O65  1  0.75000000  0.25000000  0.71699300  1
  O  O66  1  0.00000000  0.75000000  0.75000000  1
  O  O67  1  0.89599850  0.57202350  0.30408200  1
  O  O68  1  0.89599850  0.42797650  0.69591800  1
  O  O69  1  0.08297350  0.08341850  0.07143800  1
  O  O70  1  0.00000000  0.75000000  0.25000000  1
  O  O71  1  0.39599850  0.57202350  0.19591800  1
  O  O72  1  0.60400150  0.57202350  0.80408200  1
  O  O73  1  0.90947450  0.76872450  0.92909500  1
  O  O74  1  0.75000000  0.75000000  0.78300700  1
  O  O75  1  0.09052550  0.23127550  0.92909500  1
  O  O76  1  0.90947450  0.73127550  0.42909500  1
  O  O77  1  0.10400150  0.42797650  0.30408200  1
  O  O78  1  0.09052550  0.73127550  0.57090500  1
  O  O79  1  0.60400150  0.42797650  0.19591800  1
  O  O80  1  0.75000000  0.75000000  0.28300700  1
  O  O81  1  0.90947450  0.26872450  0.57090500  1
  O  O82  1  0.08297350  0.41658150  0.57143800  1
  O  O83  1  0.91702650  0.08341850  0.92856200  1
  O  O84  1  0.90947450  0.23127550  0.07090500  1
  O  O85  1  0.09052550  0.76872450  0.07090500  1
  O  O86  1  0.91702650  0.41658150  0.42856200  1
  O  O87  1  0.91702650  0.58341850  0.57143800  1
  O  O88  1  0.39599850  0.42797650  0.80408200  1
  O  O89  1  0.08297350  0.58341850  0.42856200  1
  O  O90  1  0.00000000  0.25000000  0.75000000  1
  O  O91  1  0.75000000  0.25000000  0.21699300  1
  O  O92  1  0.08297350  0.91658150  0.92856200  1
  O  O93  1  0.10400150  0.57202350  0.69591800  1
  O  O94  1  0.09052550  0.26872450  0.42909500  1
  O  O95  1  0.00000000  0.25000000  0.25000000  1
