# generated using pymatgen
data_NdTeBrO3
_symmetry_space_group_name_H-M   'P 1'
_cell_length_a   3.92603000
_cell_length_b   3.92603000
_cell_length_c   27.93683500
_cell_angle_alpha   90.00000000
_cell_angle_beta   90.00000000
_cell_angle_gamma   90.00000000
_symmetry_Int_Tables_number   1
_chemical_formula_structural   NdTeBrO3
_chemical_formula_sum   'Nd4 Te4 Br4 O12'
_cell_volume   430.61031661
_cell_formula_units_Z   4
loop_
 _symmetry_equiv_pos_site_id
 _symmetry_equiv_pos_as_xyz
  1  'x, y, z'
loop_
 _atom_site_type_symbol
 _atom_site_label
 _atom_site_symmetry_multiplicity
 _atom_site_fract_x
 _atom_site_fract_y
 _atom_site_fract_z
 _atom_site_occupancy
  Nd  Nd0  1  0.00000000  0.50000000  0.71112500  1
  Nd  Nd1  1  0.50000000  0.00000000  0.28887500  1
  Nd  Nd2  1  0.50000000  0.00000000  0.95566200  1
  Nd  Nd3  1  0.00000000  0.50000000  0.04433800  1
  Te  Te4  1  0.50000000  0.00000000  0.79282800  1
  Te  Te5  1  0.00000000  0.50000000  0.38059500  1
  Te  Te6  1  0.00000000  0.50000000  0.20717200  1
  Te  Te7  1  0.50000000  0.00000000  0.61940500  1
  Br  Br8  1  0.50000000  0.00000000  0.44410400  1
  Br  Br9  1  0.00000000  0.50000000  0.55589600  1
  Br  Br10  1  0.50000000  0.00000000  0.10386700  1
  Br  Br11  1  0.00000000  0.50000000  0.89613300  1
  O  O12  1  0.50000000  0.00000000  0.72143700  1
  O  O13  1  0.00000000  0.50000000  0.27856300  1
  O  O14  1  0.00000000  0.00000000  0.77524700  1
  O  O15  1  0.50000000  0.50000000  0.34711000  1
  O  O16  1  0.00000000  0.00000000  0.34711000  1
  O  O17  1  0.50000000  0.50000000  0.22475300  1
  O  O18  1  0.00000000  0.00000000  0.65289000  1
  O  O19  1  0.00000000  0.00000000  0.22475300  1
  O  O20  1  0.50000000  0.50000000  0.00000000  1
  O  O21  1  0.50000000  0.50000000  0.77524700  1
  O  O22  1  0.50000000  0.50000000  0.65289000  1
  O  O23  1  0.00000000  0.00000000  0.00000000  1
