# generated using pymatgen
data_Na3PSO3
_symmetry_space_group_name_H-M   'P 1'
_cell_length_a   8.51247003
_cell_length_b   8.51247003
_cell_length_c   11.85519627
_cell_angle_alpha   90.00000000
_cell_angle_beta   90.00000000
_cell_angle_gamma   120.00000000
_symmetry_Int_Tables_number   1
_chemical_formula_structural   Na3PSO3
_chemical_formula_sum   'Na18 P6 S6 O18'
_cell_volume   743.96168862
_cell_formula_units_Z   6
loop_
 _symmetry_equiv_pos_site_id
 _symmetry_equiv_pos_as_xyz
  1  'x, y, z'
loop_
 _atom_site_type_symbol
 _atom_site_label
 _atom_site_symmetry_multiplicity
 _atom_site_fract_x
 _atom_site_fract_y
 _atom_site_fract_z
 _atom_site_occupancy
  Na  Na0  1  0.68943967  0.68704033  0.19216233  1
  Na  Na1  1  0.31295967  0.00239933  0.19216233  1
  Na  Na2  1  0.99760067  0.31056033  0.19216233  1
  Na  Na3  1  0.97962633  0.64389367  0.02549567  1
  Na  Na4  1  0.35610633  0.33573267  0.02549567  1
  Na  Na5  1  0.66426733  0.02037367  0.02549567  1
  Na  Na6  1  0.35610633  0.02037367  0.52549567  1
  Na  Na7  1  0.97962633  0.33573267  0.52549567  1
  Na  Na8  1  0.66426733  0.64389367  0.52549567  1
  Na  Na9  1  0.64629300  0.97722700  0.35882900  1
  Na  Na10  1  0.02277300  0.66906600  0.35882900  1
  Na  Na11  1  0.33093400  0.35370700  0.35882900  1
  Na  Na12  1  0.02277300  0.35370700  0.85882900  1
  Na  Na13  1  0.64629300  0.66906600  0.85882900  1
  Na  Na14  1  0.33093400  0.97722700  0.85882900  1
  Na  Na15  1  0.31295967  0.31056033  0.69216233  1
  Na  Na16  1  0.68943967  0.00239933  0.69216233  1
  Na  Na17  1  0.99760067  0.68704033  0.69216233  1
  P  P18  1  0.33333333  0.66666667  0.57369867  1
  P  P19  1  0.33333333  0.66666667  0.07369867  1
  P  P20  1  0.00000000  0.00000000  0.90703200  1
  P  P21  1  0.00000000  0.00000000  0.40703200  1
  P  P22  1  0.66666667  0.33333333  0.24036533  1
  P  P23  1  0.66666667  0.33333333  0.74036533  1
  S  S24  1  0.33333333  0.66666667  0.25103067  1
  S  S25  1  0.33333333  0.66666667  0.75103067  1
  S  S26  1  0.00000000  0.00000000  0.58436400  1
  S  S27  1  0.00000000  0.00000000  0.08436400  1
  S  S28  1  0.66666667  0.33333333  0.91769733  1
  S  S29  1  0.66666667  0.33333333  0.41769733  1
  O  O30  1  0.49475000  0.33697700  0.20099500  1
  O  O31  1  0.66302300  0.15777300  0.20099500  1
  O  O32  1  0.84222700  0.50525000  0.20099500  1
  O  O33  1  0.32968967  0.83858333  0.03432833  1
  O  O34  1  0.16141667  0.49110633  0.03432833  1
  O  O35  1  0.50889367  0.67031033  0.03432833  1
  O  O36  1  0.16141667  0.67031033  0.53432833  1
  O  O37  1  0.32968967  0.49110633  0.53432833  1
  O  O38  1  0.50889367  0.83858333  0.53432833  1
  O  O39  1  0.99635633  0.17191667  0.36766167  1
  O  O40  1  0.82808333  0.82443967  0.36766167  1
  O  O41  1  0.17556033  0.00364367  0.36766167  1
  O  O42  1  0.82808333  0.00364367  0.86766167  1
  O  O43  1  0.99635633  0.82443967  0.86766167  1
  O  O44  1  0.17556033  0.17191667  0.86766167  1
  O  O45  1  0.66302300  0.50525000  0.70099500  1
  O  O46  1  0.49475000  0.15777300  0.70099500  1
  O  O47  1  0.84222700  0.33697700  0.70099500  1
