# generated using pymatgen
data_Nb2Cd2O7
_symmetry_space_group_name_H-M   'P 1'
_cell_length_a   7.44376800
_cell_length_b   7.53059200
_cell_length_c   10.57183400
_cell_angle_alpha   90.00000000
_cell_angle_beta   90.00000000
_cell_angle_gamma   90.00000000
_symmetry_Int_Tables_number   1
_chemical_formula_structural   Nb2Cd2O7
_chemical_formula_sum   'Nb8 Cd8 O28'
_cell_volume   592.61451263
_cell_formula_units_Z   4
loop_
 _symmetry_equiv_pos_site_id
 _symmetry_equiv_pos_as_xyz
  1  'x, y, z'
loop_
 _atom_site_type_symbol
 _atom_site_label
 _atom_site_symmetry_multiplicity
 _atom_site_fract_x
 _atom_site_fract_y
 _atom_site_fract_z
 _atom_site_occupancy
  Nb  Nb0  1  0.25000000  0.23162900  0.75677300  1
  Nb  Nb1  1  0.50000000  0.48739500  0.50000000  1
  Nb  Nb2  1  0.00000000  0.48739500  0.50000000  1
  Nb  Nb3  1  0.75000000  0.23162900  0.24322700  1
  Nb  Nb4  1  0.75000000  0.73162900  0.25677300  1
  Nb  Nb5  1  0.00000000  0.98739500  0.00000000  1
  Nb  Nb6  1  0.50000000  0.98739500  0.00000000  1
  Nb  Nb7  1  0.25000000  0.73162900  0.74322700  1
  Cd  Cd8  1  0.75000000  0.74441650  0.74280950  1
  Cd  Cd9  1  0.50000000  0.98573600  0.50000000  1
  Cd  Cd10  1  0.00000000  0.98573600  0.50000000  1
  Cd  Cd11  1  0.25000000  0.74441650  0.25719050  1
  Cd  Cd12  1  0.25000000  0.24441650  0.24280950  1
  Cd  Cd13  1  0.00000000  0.48573600  0.00000000  1
  Cd  Cd14  1  0.50000000  0.48573600  0.00000000  1
  Cd  Cd15  1  0.75000000  0.24441650  0.75719050  1
  O  O16  1  0.94660950  0.70056450  0.37528150  1
  O  O17  1  0.25000000  0.00180600  0.37429900  1
  O  O18  1  0.75000000  0.01076000  0.93365000  1
  O  O19  1  0.75000000  0.00351000  0.31982100  1
  O  O20  1  0.55339050  0.70056450  0.37528150  1
  O  O21  1  0.93884300  0.31674600  0.37317800  1
  O  O22  1  0.06115700  0.31674600  0.62682200  1
  O  O23  1  0.75000000  0.00180600  0.62570100  1
  O  O24  1  0.43884300  0.31674600  0.62682200  1
  O  O25  1  0.25000000  0.00351000  0.68017900  1
  O  O26  1  0.05339050  0.70056450  0.62471850  1
  O  O27  1  0.56115700  0.31674600  0.37317800  1
  O  O28  1  0.44660950  0.70056450  0.62471850  1
  O  O29  1  0.25000000  0.01076000  0.06635000  1
  O  O30  1  0.44660950  0.20056450  0.87528150  1
  O  O31  1  0.75000000  0.50180600  0.87429900  1
  O  O32  1  0.25000000  0.51076000  0.43365000  1
  O  O33  1  0.25000000  0.50351000  0.81982100  1
  O  O34  1  0.05339050  0.20056450  0.87528150  1
  O  O35  1  0.43884300  0.81674600  0.87317800  1
  O  O36  1  0.56115700  0.81674600  0.12682200  1
  O  O37  1  0.25000000  0.50180600  0.12570100  1
  O  O38  1  0.93884300  0.81674600  0.12682200  1
  O  O39  1  0.75000000  0.50351000  0.18017900  1
  O  O40  1  0.55339050  0.20056450  0.12471850  1
  O  O41  1  0.06115700  0.81674600  0.87317800  1
  O  O42  1  0.94660950  0.20056450  0.12471850  1
  O  O43  1  0.75000000  0.51076000  0.56635000  1
