# generated using pymatgen
data_BaSi6N8O
_symmetry_space_group_name_H-M   'P 1'
_cell_length_a   4.87122200
_cell_length_b   8.17214800
_cell_length_c   9.79971400
_cell_angle_alpha   90.00000000
_cell_angle_beta   90.00000000
_cell_angle_gamma   90.00000000
_symmetry_Int_Tables_number   1
_chemical_formula_structural   BaSi6N8O
_chemical_formula_sum   'Ba2 Si12 N16 O2'
_cell_volume   390.11041664
_cell_formula_units_Z   2
loop_
 _symmetry_equiv_pos_site_id
 _symmetry_equiv_pos_as_xyz
  1  'x, y, z'
loop_
 _atom_site_type_symbol
 _atom_site_label
 _atom_site_symmetry_multiplicity
 _atom_site_fract_x
 _atom_site_fract_y
 _atom_site_fract_z
 _atom_site_occupancy
  Ba  Ba0  1  0.49654300  0.50000000  0.00000000  1
  Ba  Ba1  1  0.99654300  0.00000000  0.50000000  1
  Si  Si2  1  0.02106900  0.80349000  0.84126500  1
  Si  Si3  1  0.02487000  0.50000000  0.33928900  1
  Si  Si4  1  0.02106900  0.19651000  0.84126500  1
  Si  Si5  1  0.02487000  0.50000000  0.66071100  1
  Si  Si6  1  0.02106900  0.80349000  0.15873500  1
  Si  Si7  1  0.02106900  0.19651000  0.15873500  1
  Si  Si8  1  0.52106900  0.30349000  0.34126500  1
  Si  Si9  1  0.52487000  0.00000000  0.83928900  1
  Si  Si10  1  0.52106900  0.69651000  0.34126500  1
  Si  Si11  1  0.52487000  0.00000000  0.16071100  1
  Si  Si12  1  0.52106900  0.30349000  0.65873500  1
  Si  Si13  1  0.52106900  0.69651000  0.65873500  1
  N  N14  1  0.05229000  0.72593500  0.00000000  1
  N  N15  1  0.18177100  0.67547100  0.27842200  1
  N  N16  1  0.05229000  0.27406500  0.00000000  1
  N  N17  1  0.67477900  0.50000000  0.68705200  1
  N  N18  1  0.18177100  0.32452900  0.27842200  1
  N  N19  1  0.67477900  0.50000000  0.31294800  1
  N  N20  1  0.18177100  0.67547100  0.72157800  1
  N  N21  1  0.18177100  0.32452900  0.72157800  1
  N  N22  1  0.55229000  0.22593500  0.50000000  1
  N  N23  1  0.68177100  0.17547100  0.77842200  1
  N  N24  1  0.55229000  0.77406500  0.50000000  1
  N  N25  1  0.17477900  0.00000000  0.18705200  1
  N  N26  1  0.68177100  0.82452900  0.77842200  1
  N  N27  1  0.17477900  0.00000000  0.81294800  1
  N  N28  1  0.68177100  0.17547100  0.22157800  1
  N  N29  1  0.68177100  0.82452900  0.22157800  1
  O  O30  1  0.61172300  0.00000000  0.00000000  1
  O  O31  1  0.11172300  0.50000000  0.50000000  1
