# generated using pymatgen
data_Y3GaO6
_symmetry_space_group_name_H-M   'P 1'
_cell_length_a   8.93475200
_cell_length_b   11.20887000
_cell_length_c   5.45711200
_cell_angle_alpha   90.00000000
_cell_angle_beta   90.00000000
_cell_angle_gamma   90.00000000
_symmetry_Int_Tables_number   1
_chemical_formula_structural   Y3GaO6
_chemical_formula_sum   'Y12 Ga4 O24'
_cell_volume   546.52143734
_cell_formula_units_Z   4
loop_
 _symmetry_equiv_pos_site_id
 _symmetry_equiv_pos_as_xyz
  1  'x, y, z'
loop_
 _atom_site_type_symbol
 _atom_site_label
 _atom_site_symmetry_multiplicity
 _atom_site_fract_x
 _atom_site_fract_y
 _atom_site_fract_z
 _atom_site_occupancy
  Y  Y0  1  0.19334500  0.89487700  0.53153100  1
  Y  Y1  1  0.80665500  0.89487700  0.53153100  1
  Y  Y2  1  0.50000000  0.89801100  0.07781800  1
  Y  Y3  1  0.50000000  0.10198900  0.57781800  1
  Y  Y4  1  0.80665500  0.10512300  0.03153100  1
  Y  Y5  1  0.19334500  0.10512300  0.03153100  1
  Y  Y6  1  0.69334500  0.39487700  0.53153100  1
  Y  Y7  1  0.30665500  0.39487700  0.53153100  1
  Y  Y8  1  0.00000000  0.39801100  0.07781800  1
  Y  Y9  1  0.00000000  0.60198900  0.57781800  1
  Y  Y10  1  0.30665500  0.60512300  0.03153100  1
  Y  Y11  1  0.69334500  0.60512300  0.03153100  1
  Ga  Ga12  1  0.50000000  0.69451500  0.50096400  1
  Ga  Ga13  1  0.50000000  0.30548500  0.00096400  1
  Ga  Ga14  1  0.00000000  0.19451500  0.50096400  1
  Ga  Ga15  1  0.00000000  0.80548500  0.00096400  1
  O  O16  1  0.33973050  0.98343650  0.80306200  1
  O  O17  1  0.50000000  0.28514900  0.33863800  1
  O  O18  1  0.34222250  0.23538250  0.82178300  1
  O  O19  1  0.66026950  0.01656350  0.30306200  1
  O  O20  1  0.65777750  0.76461750  0.32178300  1
  O  O21  1  0.33973050  0.01656350  0.30306200  1
  O  O22  1  0.65777750  0.23538250  0.82178300  1
  O  O23  1  0.50000000  0.45964200  0.86061000  1
  O  O24  1  0.34222250  0.76461750  0.32178300  1
  O  O25  1  0.50000000  0.54035800  0.36061000  1
  O  O26  1  0.66026950  0.98343650  0.80306200  1
  O  O27  1  0.50000000  0.71485100  0.83863800  1
  O  O28  1  0.83973050  0.48343650  0.80306200  1
  O  O29  1  0.00000000  0.78514900  0.33863800  1
  O  O30  1  0.84222250  0.73538250  0.82178300  1
  O  O31  1  0.16026950  0.51656350  0.30306200  1
  O  O32  1  0.15777750  0.26461750  0.32178300  1
  O  O33  1  0.83973050  0.51656350  0.30306200  1
  O  O34  1  0.15777750  0.73538250  0.82178300  1
  O  O35  1  0.00000000  0.95964200  0.86061000  1
  O  O36  1  0.84222250  0.26461750  0.32178300  1
  O  O37  1  0.00000000  0.04035800  0.36061000  1
  O  O38  1  0.16026950  0.48343650  0.80306200  1
  O  O39  1  0.00000000  0.21485100  0.83863800  1
