# generated using pymatgen
data_YI3
_symmetry_space_group_name_H-M   'P 1'
_cell_length_a   7.70691355
_cell_length_b   7.70691355
_cell_length_c   22.67374091
_cell_angle_alpha   90.00000000
_cell_angle_beta   90.00000000
_cell_angle_gamma   120.00000000
_symmetry_Int_Tables_number   1
_chemical_formula_structural   YI3
_chemical_formula_sum   'Y6 I18'
_cell_volume   1166.31211294
_cell_formula_units_Z   6
loop_
 _symmetry_equiv_pos_site_id
 _symmetry_equiv_pos_as_xyz
  1  'x, y, z'
loop_
 _atom_site_type_symbol
 _atom_site_label
 _atom_site_symmetry_multiplicity
 _atom_site_fract_x
 _atom_site_fract_y
 _atom_site_fract_z
 _atom_site_occupancy
  Y  Y0  1  0.00000000  0.00000000  0.16639800  1
  Y  Y1  1  0.66666667  0.33333333  0.16693533  1
  Y  Y2  1  0.66666667  0.33333333  0.49973133  1
  Y  Y3  1  0.33333333  0.66666667  0.50026867  1
  Y  Y4  1  0.33333333  0.66666667  0.83306467  1
  Y  Y5  1  0.00000000  0.00000000  0.83360200  1
  I  I6  1  0.33276967  0.30959533  0.24485233  1
  I  I7  1  0.68984100  0.66610300  0.08848100  1
  I  I8  1  0.97626200  0.31015900  0.08848100  1
  I  I9  1  0.33389700  0.02373800  0.08848100  1
  I  I10  1  0.69040467  0.02317433  0.24485233  1
  I  I11  1  0.97682567  0.66723033  0.24485233  1
  I  I12  1  0.99943633  0.64292867  0.57818567  1
  I  I13  1  0.35650767  0.99943633  0.42181433  1
  I  I14  1  0.64292867  0.64349233  0.42181433  1
  I  I15  1  0.00056367  0.35707133  0.42181433  1
  I  I16  1  0.35707133  0.35650767  0.57818567  1
  I  I17  1  0.64349233  0.00056367  0.57818567  1
  I  I18  1  0.66610300  0.97626200  0.91151900  1
  I  I19  1  0.02317433  0.33276967  0.75514767  1
  I  I20  1  0.30959533  0.97682567  0.75514767  1
  I  I21  1  0.66723033  0.69040467  0.75514767  1
  I  I22  1  0.02373800  0.68984100  0.91151900  1
  I  I23  1  0.31015900  0.33389700  0.91151900  1
