# generated using pymatgen
data_AgBiSCl2
_symmetry_space_group_name_H-M   'P 1'
_cell_length_a   4.07054200
_cell_length_b   14.17040200
_cell_length_c   8.70450200
_cell_angle_alpha   90.00000000
_cell_angle_beta   90.00000000
_cell_angle_gamma   90.00000000
_symmetry_Int_Tables_number   1
_chemical_formula_structural   AgBiSCl2
_chemical_formula_sum   'Ag4 Bi4 S4 Cl8'
_cell_volume   502.08626437
_cell_formula_units_Z   4
loop_
 _symmetry_equiv_pos_site_id
 _symmetry_equiv_pos_as_xyz
  1  'x, y, z'
loop_
 _atom_site_type_symbol
 _atom_site_label
 _atom_site_symmetry_multiplicity
 _atom_site_fract_x
 _atom_site_fract_y
 _atom_site_fract_z
 _atom_site_occupancy
  Ag  Ag0  1  0.00000000  0.00000000  0.00000000  1
  Ag  Ag1  1  0.00000000  0.00000000  0.50000000  1
  Ag  Ag2  1  0.50000000  0.50000000  0.00000000  1
  Ag  Ag3  1  0.50000000  0.50000000  0.50000000  1
  Bi  Bi4  1  0.00000000  0.29105300  0.25000000  1
  Bi  Bi5  1  0.50000000  0.20894700  0.75000000  1
  Bi  Bi6  1  0.50000000  0.79105300  0.25000000  1
  Bi  Bi7  1  0.00000000  0.70894700  0.75000000  1
  S  S8  1  0.50000000  0.41728900  0.25000000  1
  S  S9  1  0.00000000  0.08271100  0.75000000  1
  S  S10  1  0.00000000  0.91728900  0.25000000  1
  S  S11  1  0.50000000  0.58271100  0.75000000  1
  Cl  Cl12  1  0.50000000  0.15932700  0.06240200  1
  Cl  Cl13  1  0.00000000  0.34067300  0.93759800  1
  Cl  Cl14  1  0.00000000  0.34067300  0.56240200  1
  Cl  Cl15  1  0.50000000  0.15932700  0.43759800  1
  Cl  Cl16  1  0.00000000  0.65932700  0.06240200  1
  Cl  Cl17  1  0.50000000  0.84067300  0.93759800  1
  Cl  Cl18  1  0.50000000  0.84067300  0.56240200  1
  Cl  Cl19  1  0.00000000  0.65932700  0.43759800  1
