# generated using pymatgen
data_KNaZnO2
_symmetry_space_group_name_H-M   'P 1'
_cell_length_a   7.11209800
_cell_length_b   9.79715200
_cell_length_c   5.61989585
_cell_angle_alpha   90.00000000
_cell_angle_beta   126.50136835
_cell_angle_gamma   90.00000000
_symmetry_Int_Tables_number   1
_chemical_formula_structural   KNaZnO2
_chemical_formula_sum   'K4 Na4 Zn4 O8'
_cell_volume   314.77257963
_cell_formula_units_Z   4
loop_
 _symmetry_equiv_pos_site_id
 _symmetry_equiv_pos_as_xyz
  1  'x, y, z'
loop_
 _atom_site_type_symbol
 _atom_site_label
 _atom_site_symmetry_multiplicity
 _atom_site_fract_x
 _atom_site_fract_y
 _atom_site_fract_z
 _atom_site_occupancy
  K  K0  1  0.50000000  0.37619200  0.75000000  1
  K  K1  1  0.00000000  0.12380800  0.25000000  1
  K  K2  1  0.00000000  0.87619200  0.75000000  1
  K  K3  1  0.50000000  0.62380800  0.25000000  1
  Na  Na4  1  0.50000000  0.27056100  0.25000000  1
  Na  Na5  1  0.00000000  0.22943900  0.75000000  1
  Na  Na6  1  0.00000000  0.77056100  0.25000000  1
  Na  Na7  1  0.50000000  0.72943900  0.75000000  1
  Zn  Zn8  1  0.50000000  0.01031600  0.75000000  1
  Zn  Zn9  1  0.00000000  0.48968400  0.25000000  1
  Zn  Zn10  1  0.00000000  0.51031600  0.75000000  1
  Zn  Zn11  1  0.50000000  0.98968400  0.25000000  1
  O  O12  1  0.31924100  0.10719600  0.86724000  1
  O  O13  1  0.68075900  0.10719600  0.63276000  1
  O  O14  1  0.81924100  0.39280400  0.36724000  1
  O  O15  1  0.18075900  0.39280400  0.13276000  1
  O  O16  1  0.81924100  0.60719600  0.86724000  1
  O  O17  1  0.18075900  0.60719600  0.63276000  1
  O  O18  1  0.31924100  0.89280400  0.36724000  1
  O  O19  1  0.68075900  0.89280400  0.13276000  1
