# generated using pymatgen
data_Ca3(AsO4)2
_symmetry_space_group_name_H-M   'P 1'
_cell_length_a   10.92924008
_cell_length_b   10.92924008
_cell_length_c   38.34968009
_cell_angle_alpha   90.00000000
_cell_angle_beta   90.00000000
_cell_angle_gamma   120.00000000
_symmetry_Int_Tables_number   1
_chemical_formula_structural   Ca3(AsO4)2
_chemical_formula_sum   'Ca63 As42 O168'
_cell_volume   3967.09234004
_cell_formula_units_Z   21
loop_
 _symmetry_equiv_pos_site_id
 _symmetry_equiv_pos_as_xyz
  1  'x, y, z'
loop_
 _atom_site_type_symbol
 _atom_site_label
 _atom_site_symmetry_multiplicity
 _atom_site_fract_x
 _atom_site_fract_y
 _atom_site_fract_z
 _atom_site_occupancy
  Ca  Ca0  1  0.66666667  0.33333333  0.06671133  1
  Ca  Ca1  1  0.47161933  0.94259967  0.33119267  1
  Ca  Ca2  1  0.47098033  0.52838067  0.33119267  1
  Ca  Ca3  1  0.05740033  0.52901967  0.33119267  1
  Ca  Ca4  1  0.49942600  0.95304700  0.22828900  1
  Ca  Ca5  1  0.45362100  0.50057400  0.22828900  1
  Ca  Ca6  1  0.72576833  0.86185867  0.16401067  1
  Ca  Ca7  1  0.04695300  0.54637900  0.22828900  1
  Ca  Ca8  1  0.54591267  0.49336733  0.13365333  1
  Ca  Ca9  1  0.50663267  0.05254533  0.13365333  1
  Ca  Ca10  1  0.13814133  0.86390967  0.16401067  1
  Ca  Ca11  1  0.13609033  0.27423167  0.16401067  1
  Ca  Ca12  1  0.73956533  0.85769667  0.05700967  1
  Ca  Ca13  1  0.94745467  0.45408733  0.13365333  1
  Ca  Ca14  1  0.33333333  0.66666667  0.09100067  1
  Ca  Ca15  1  0.14230333  0.88186867  0.05700967  1
  Ca  Ca16  1  0.11813133  0.26043467  0.05700967  1
  Ca  Ca17  1  0.28425600  0.15783800  0.29820800  1
  Ca  Ca18  1  0.87358200  0.71574400  0.29820800  1
  Ca  Ca19  1  0.84216200  0.12641800  0.29820800  1
  Ca  Ca20  1  0.00000000  0.00000000  0.23249200  1
  Ca  Ca21  1  0.33333333  0.66666667  0.40004467  1
  Ca  Ca22  1  0.13828600  0.27593300  0.66452600  1
  Ca  Ca23  1  0.13764700  0.86171400  0.66452600  1
  Ca  Ca24  1  0.72406700  0.86235300  0.66452600  1
  Ca  Ca25  1  0.16609267  0.28638033  0.56162233  1
  Ca  Ca26  1  0.12028767  0.83390733  0.56162233  1
  Ca  Ca27  1  0.39243500  0.19519200  0.49734400  1
  Ca  Ca28  1  0.71361967  0.87971233  0.56162233  1
  Ca  Ca29  1  0.21257933  0.82670067  0.46698667  1
  Ca  Ca30  1  0.17329933  0.38587867  0.46698667  1
  Ca  Ca31  1  0.80480800  0.19724300  0.49734400  1
  Ca  Ca32  1  0.80275700  0.60756500  0.49734400  1
  Ca  Ca33  1  0.40623200  0.19103000  0.39034300  1
  Ca  Ca34  1  0.61412133  0.78742067  0.46698667  1
  Ca  Ca35  1  0.00000000  0.00000000  0.42433400  1
  Ca  Ca36  1  0.80897000  0.21520200  0.39034300  1
  Ca  Ca37  1  0.78479800  0.59376800  0.39034300  1
  Ca  Ca38  1  0.95092267  0.49117133  0.63154133  1
  Ca  Ca39  1  0.54024867  0.04907733  0.63154133  1
  Ca  Ca40  1  0.50882867  0.45975133  0.63154133  1
  Ca  Ca41  1  0.66666667  0.33333333  0.56582533  1
  Ca  Ca42  1  0.00000000  0.00000000  0.73337800  1
  Ca  Ca43  1  0.80495267  0.60926633  0.99785933  1
  Ca  Ca44  1  0.80431367  0.19504733  0.99785933  1
  Ca  Ca45  1  0.39073367  0.19568633  0.99785933  1
  Ca  Ca46  1  0.83275933  0.61971367  0.89495567  1
  Ca  Ca47  1  0.78695433  0.16724067  0.89495567  1
  Ca  Ca48  1  0.05910167  0.52852533  0.83067733  1
  Ca  Ca49  1  0.38028633  0.21304567  0.89495567  1
  Ca  Ca50  1  0.87924600  0.16003400  0.80032000  1
  Ca  Ca51  1  0.83996600  0.71921200  0.80032000  1
  Ca  Ca52  1  0.47147467  0.53057633  0.83067733  1
  Ca  Ca53  1  0.46942367  0.94089833  0.83067733  1
  Ca  Ca54  1  0.07289867  0.52436333  0.72367633  1
  Ca  Ca55  1  0.28078800  0.12075400  0.80032000  1
  Ca  Ca56  1  0.66666667  0.33333333  0.75766733  1
  Ca  Ca57  1  0.47563667  0.54853533  0.72367633  1
  Ca  Ca58  1  0.45146467  0.92710133  0.72367633  1
  Ca  Ca59  1  0.61758933  0.82450467  0.96487467  1
  Ca  Ca60  1  0.20691533  0.38241067  0.96487467  1
  Ca  Ca61  1  0.17549533  0.79308467  0.96487467  1
  Ca  Ca62  1  0.33333333  0.66666667  0.89915867  1
  As  As63  1  0.66666667  0.33333333  0.33258033  1
  As  As64  1  0.86329300  0.68068400  0.09831100  1
  As  As65  1  0.81739100  0.13670700  0.09831100  1
  As  As66  1  0.31931600  0.18260900  0.09831100  1
  As  As67  1  0.65199300  0.80380700  0.26484300  1
  As  As68  1  0.19619300  0.84818600  0.26484300  1
  As  As69  1  0.15181400  0.34800700  0.26484300  1
  As  As70  1  0.33333333  0.66666667  0.16765967  1
  As  As71  1  0.50192267  0.53617633  0.03364933  1
  As  As72  1  0.46382367  0.96574633  0.03364933  1
  As  As73  1  0.03425367  0.49807733  0.03364933  1
  As  As74  1  0.35538067  0.19495633  0.20009833  1
  As  As75  1  0.83957567  0.64461933  0.20009833  1
  As  As76  1  0.80504367  0.16042433  0.20009833  1
  As  As77  1  0.33333333  0.66666667  0.66591367  1
  As  As78  1  0.52995967  0.01401733  0.43164433  1
  As  As79  1  0.48405767  0.47004033  0.43164433  1
  As  As80  1  0.98598267  0.51594233  0.43164433  1
  As  As81  1  0.31865967  0.13714033  0.59817633  1
  As  As82  1  0.86285967  0.18151933  0.59817633  1
  As  As83  1  0.81848067  0.68134033  0.59817633  1
  As  As84  1  0.00000000  0.00000000  0.50099300  1
  As  As85  1  0.16858933  0.86950967  0.36698267  1
  As  As86  1  0.13049033  0.29907967  0.36698267  1
  As  As87  1  0.70092033  0.83141067  0.36698267  1
  As  As88  1  0.02204733  0.52828967  0.53343167  1
  As  As89  1  0.50624233  0.97795267  0.53343167  1
  As  As90  1  0.47171033  0.49375767  0.53343167  1
  As  As91  1  0.00000000  0.00000000  0.99924700  1
  As  As92  1  0.19662633  0.34735067  0.76497767  1
  As  As93  1  0.15072433  0.80337367  0.76497767  1
  As  As94  1  0.65264933  0.84927567  0.76497767  1
  As  As95  1  0.98532633  0.47047367  0.93150967  1
  As  As96  1  0.52952633  0.51485267  0.93150967  1
  As  As97  1  0.48514733  0.01467367  0.93150967  1
  As  As98  1  0.66666667  0.33333333  0.83432633  1
  As  As99  1  0.83525600  0.20284300  0.70031600  1
  As  As100  1  0.79715700  0.63241300  0.70031600  1
  As  As101  1  0.36758700  0.16474400  0.70031600  1
  As  As102  1  0.68871400  0.86162300  0.86676500  1
  As  As103  1  0.17290900  0.31128600  0.86676500  1
  As  As104  1  0.13837700  0.82709100  0.86676500  1
  O  O105  1  0.76516233  0.50486067  0.10983567  1
  O  O106  1  0.73969833  0.23483767  0.10983567  1
  O  O107  1  0.49513933  0.26030167  0.10983567  1
  O  O108  1  0.86237867  0.70942033  0.05434033  1
  O  O109  1  0.84704167  0.13762133  0.05434033  1
  O  O110  1  0.85398100  0.43154300  0.02906700  1
  O  O111  1  0.67265500  0.18424400  0.32093100  1
  O  O112  1  0.57756200  0.14601900  0.02906700  1
  O  O113  1  0.56845700  0.42243800  0.02906700  1
  O  O114  1  0.29057967  0.15295833  0.05434033  1
  O  O115  1  0.51158900  0.32734500  0.32093100  1
  O  O116  1  0.56638667  0.87984633  0.28485633  1
  O  O117  1  0.59688233  0.63169667  0.27617767  1
  O  O118  1  0.74730467  0.13264933  0.24240133  1
  O  O119  1  0.31345967  0.43361333  0.28485633  1
  O  O120  1  0.36830333  0.96518567  0.27617767  1
  O  O121  1  0.12015367  0.68654033  0.28485633  1
  O  O122  1  0.62461133  0.80829667  0.22096967  1
  O  O123  1  0.81575600  0.48841100  0.32093100  1
  O  O124  1  0.38534467  0.25269533  0.24240133  1
  O  O125  1  0.03481433  0.40311767  0.27617767  1
  O  O126  1  0.66550733  0.56062167  0.18808767  1
  O  O127  1  0.65382833  0.04523867  0.17683367  1
  O  O128  1  0.33333333  0.66666667  0.21192267  1
  O  O129  1  0.19170333  0.81631467  0.22096967  1
  O  O130  1  0.18368533  0.37538867  0.22096967  1
  O  O131  1  0.43937833  0.10488567  0.18808767  1
  O  O132  1  0.39141033  0.34617167  0.17683367  1
  O  O133  1  0.86735067  0.61465533  0.24240133  1
  O  O134  1  0.78138667  0.76280233  0.11681533  1
  O  O135  1  0.47873967  0.66883733  0.14855933  1
  O  O136  1  0.70107833  0.96324067  0.10856567  1
  O  O137  1  0.33116267  0.80990233  0.14855933  1
  O  O138  1  0.19009767  0.52126033  0.14855933  1
  O  O139  1  0.89511433  0.33449267  0.18808767  1
  O  O140  1  0.95476133  0.60858967  0.17683367  1
  O  O141  1  0.23719767  0.01858433  0.11681533  1
  O  O142  1  0.26216233  0.29892167  0.10856567  1
  O  O143  1  0.50668067  0.60068933  0.07544533  1
  O  O144  1  0.39931067  0.90599133  0.07544533  1
  O  O145  1  0.98141567  0.21861333  0.11681533  1
  O  O146  1  0.03675933  0.73783767  0.10856567  1
  O  O147  1  0.54957400  0.87953800  0.02041500  1
  O  O148  1  0.62761367  0.68198733  0.01089833  1
  O  O149  1  0.09400867  0.49331933  0.07544533  1
  O  O150  1  0.32996400  0.45042600  0.02041500  1
  O  O151  1  0.31801267  0.94562633  0.01089833  1
  O  O152  1  0.12046200  0.67003600  0.02041500  1
  O  O153  1  0.05437367  0.37238633  0.01089833  1
  O  O154  1  0.09869233  0.92657767  0.27612567  1
  O  O155  1  0.07342233  0.17211467  0.27612567  1
  O  O156  1  0.82788533  0.90130767  0.27612567  1
  O  O157  1  0.17714867  0.08561333  0.19100733  1
  O  O158  1  0.91438667  0.09153533  0.19100733  1
  O  O159  1  0.90846467  0.82285133  0.19100733  1
  O  O160  1  0.00000000  0.00000000  0.04471300  1
  O  O161  1  0.43182900  0.83819400  0.44316900  1
  O  O162  1  0.40636500  0.56817100  0.44316900  1
  O  O163  1  0.16180600  0.59363500  0.44316900  1
  O  O164  1  0.52904533  0.04275367  0.38767367  1
  O  O165  1  0.51370833  0.47095467  0.38767367  1
  O  O166  1  0.52064767  0.76487633  0.36240033  1
  O  O167  1  0.33932167  0.51757733  0.65426433  1
  O  O168  1  0.24422867  0.47935233  0.36240033  1
  O  O169  1  0.23512367  0.75577133  0.36240033  1
  O  O170  1  0.95724633  0.48629167  0.38767367  1
  O  O171  1  0.17825567  0.66067833  0.65426433  1
  O  O172  1  0.23305333  0.21317967  0.61818967  1
  O  O173  1  0.26354900  0.96503000  0.60951100  1
  O  O174  1  0.41397133  0.46598267  0.57573467  1
  O  O175  1  0.98012633  0.76694667  0.61818967  1
  O  O176  1  0.03497000  0.29851900  0.60951100  1
  O  O177  1  0.78682033  0.01987367  0.61818967  1
  O  O178  1  0.29127800  0.14163000  0.55430300  1
  O  O179  1  0.48242267  0.82174433  0.65426433  1
  O  O180  1  0.05201133  0.58602867  0.57573467  1
  O  O181  1  0.70148100  0.73645100  0.60951100  1
  O  O182  1  0.33217400  0.89395500  0.52142100  1
  O  O183  1  0.32049500  0.37857200  0.51016700  1
  O  O184  1  0.00000000  0.00000000  0.54525600  1
  O  O185  1  0.85837000  0.14964800  0.55430300  1
  O  O186  1  0.85035200  0.70872200  0.55430300  1
  O  O187  1  0.10604500  0.43821900  0.52142100  1
  O  O188  1  0.05807700  0.67950500  0.51016700  1
  O  O189  1  0.53401733  0.94798867  0.57573467  1
  O  O190  1  0.44805333  0.09613567  0.45014867  1
  O  O191  1  0.14540633  0.00217067  0.48189267  1
  O  O192  1  0.36774500  0.29657400  0.44189900  1
  O  O193  1  0.99782933  0.14323567  0.48189267  1
  O  O194  1  0.85676433  0.85459367  0.48189267  1
  O  O195  1  0.56178100  0.66782600  0.52142100  1
  O  O196  1  0.62142800  0.94192300  0.51016700  1
  O  O197  1  0.90386433  0.35191767  0.45014867  1
  O  O198  1  0.92882900  0.63225500  0.44189900  1
  O  O199  1  0.17334733  0.93402267  0.40877867  1
  O  O200  1  0.06597733  0.23932467  0.40877867  1
  O  O201  1  0.64808233  0.55194667  0.45014867  1
  O  O202  1  0.70342600  0.07117100  0.44189900  1
  O  O203  1  0.21624067  0.21287133  0.35374833  1
  O  O204  1  0.29428033  0.01532067  0.34423167  1
  O  O205  1  0.76067533  0.82665267  0.40877867  1
  O  O206  1  0.99663067  0.78375933  0.35374833  1
  O  O207  1  0.98467933  0.27895967  0.34423167  1
  O  O208  1  0.78712867  0.00336933  0.35374833  1
  O  O209  1  0.72104033  0.70571967  0.34423167  1
  O  O210  1  0.76535900  0.25991100  0.60945900  1
  O  O211  1  0.74008900  0.50544800  0.60945900  1
  O  O212  1  0.49455200  0.23464100  0.60945900  1
  O  O213  1  0.84381533  0.41894667  0.52434067  1
  O  O214  1  0.58105333  0.42486867  0.52434067  1
  O  O215  1  0.57513133  0.15618467  0.52434067  1
  O  O216  1  0.66666667  0.33333333  0.37804633  1
  O  O217  1  0.09849567  0.17152733  0.77650233  1
  O  O218  1  0.07303167  0.90150433  0.77650233  1
  O  O219  1  0.82847267  0.92696833  0.77650233  1
  O  O220  1  0.19571200  0.37608700  0.72100700  1
  O  O221  1  0.18037500  0.80428800  0.72100700  1
  O  O222  1  0.18731433  0.09820967  0.69573367  1
  O  O223  1  0.00598833  0.85091067  0.98759767  1
  O  O224  1  0.91089533  0.81268567  0.69573367  1
  O  O225  1  0.90179033  0.08910467  0.69573367  1
  O  O226  1  0.62391300  0.81962500  0.72100700  1
  O  O227  1  0.84492233  0.99401167  0.98759767  1
  O  O228  1  0.89972000  0.54651300  0.95152300  1
  O  O229  1  0.93021567  0.29836333  0.94284433  1
  O  O230  1  0.08063800  0.79931600  0.90906800  1
  O  O231  1  0.64679300  0.10028000  0.95152300  1
  O  O232  1  0.70163667  0.63185233  0.94284433  1
  O  O233  1  0.45348700  0.35320700  0.95152300  1
  O  O234  1  0.95794467  0.47496333  0.88763633  1
  O  O235  1  0.14908933  0.15507767  0.98759767  1
  O  O236  1  0.71867800  0.91936200  0.90906800  1
  O  O237  1  0.36814767  0.06978433  0.94284433  1
  O  O238  1  0.99884067  0.22728833  0.85475433  1
  O  O239  1  0.98716167  0.71190533  0.84350033  1
  O  O240  1  0.66666667  0.33333333  0.87858933  1
  O  O241  1  0.52503667  0.48298133  0.88763633  1
  O  O242  1  0.51701867  0.04205533  0.88763633  1
  O  O243  1  0.77271167  0.77155233  0.85475433  1
  O  O244  1  0.72474367  0.01283833  0.84350033  1
  O  O245  1  0.20068400  0.28132200  0.90906800  1
  O  O246  1  0.11472000  0.42946900  0.78348200  1
  O  O247  1  0.81207300  0.33550400  0.81522600  1
  O  O248  1  0.03441167  0.62990733  0.77523233  1
  O  O249  1  0.66449600  0.47656900  0.81522600  1
  O  O250  1  0.52343100  0.18792700  0.81522600  1
  O  O251  1  0.22844767  0.00115933  0.85475433  1
  O  O252  1  0.28809467  0.27525633  0.84350033  1
  O  O253  1  0.57053100  0.68525100  0.78348200  1
  O  O254  1  0.59549567  0.96558833  0.77523233  1
  O  O255  1  0.84001400  0.26735600  0.74211200  1
  O  O256  1  0.73264400  0.57265800  0.74211200  1
  O  O257  1  0.31474900  0.88528000  0.78348200  1
  O  O258  1  0.37009267  0.40450433  0.77523233  1
  O  O259  1  0.88290733  0.54620467  0.68708167  1
  O  O260  1  0.96094700  0.34865400  0.67756500  1
  O  O261  1  0.42734200  0.15998600  0.74211200  1
  O  O262  1  0.66329733  0.11709267  0.68708167  1
  O  O263  1  0.65134600  0.61229300  0.67756500  1
  O  O264  1  0.45379533  0.33670267  0.68708167  1
  O  O265  1  0.38770700  0.03905300  0.67756500  1
  O  O266  1  0.43202567  0.59324433  0.94279233  1
  O  O267  1  0.40675567  0.83878133  0.94279233  1
  O  O268  1  0.16121867  0.56797433  0.94279233  1
  O  O269  1  0.51048200  0.75228000  0.85767400  1
  O  O270  1  0.24772000  0.75820200  0.85767400  1
  O  O271  1  0.24179800  0.48951800  0.85767400  1
  O  O272  1  0.33333333  0.66666667  0.71137967  1
