# generated using pymatgen
data_Ba5B4(O5F)2
_symmetry_space_group_name_H-M   'P 1'
_cell_length_a   21.03225000
_cell_length_b   7.19900400
_cell_length_c   8.73350921
_cell_angle_alpha   90.00000000
_cell_angle_beta   95.26306940
_cell_angle_gamma   90.00000000
_symmetry_Int_Tables_number   1
_chemical_formula_structural   Ba5B4(O5F)2
_chemical_formula_sum   'Ba20 B16 O40 F8'
_cell_volume   1316.77656869
_cell_formula_units_Z   4
loop_
 _symmetry_equiv_pos_site_id
 _symmetry_equiv_pos_as_xyz
  1  'x, y, z'
loop_
 _atom_site_type_symbol
 _atom_site_label
 _atom_site_symmetry_multiplicity
 _atom_site_fract_x
 _atom_site_fract_y
 _atom_site_fract_z
 _atom_site_occupancy
  Ba  Ba0  1  0.00000000  0.55501900  0.75000000  1
  Ba  Ba1  1  0.91464950  0.88356450  0.39186400  1
  Ba  Ba2  1  0.00000000  0.44498100  0.25000000  1
  Ba  Ba3  1  0.70044800  0.11312600  0.80546800  1
  Ba  Ba4  1  0.79955200  0.38687400  0.19453200  1
  Ba  Ba5  1  0.58535050  0.38356450  0.10813600  1
  Ba  Ba6  1  0.79955200  0.61312600  0.69453200  1
  Ba  Ba7  1  0.91464950  0.11643550  0.89186400  1
  Ba  Ba8  1  0.58535050  0.61643550  0.60813600  1
  Ba  Ba9  1  0.70044800  0.88687400  0.30546800  1
  Ba  Ba10  1  0.50000000  0.05501900  0.75000000  1
  Ba  Ba11  1  0.41464950  0.38356450  0.39186400  1
  Ba  Ba12  1  0.50000000  0.94498100  0.25000000  1
  Ba  Ba13  1  0.20044800  0.61312600  0.80546800  1
  Ba  Ba14  1  0.29955200  0.88687400  0.19453200  1
  Ba  Ba15  1  0.08535050  0.88356450  0.10813600  1
  Ba  Ba16  1  0.29955200  0.11312600  0.69453200  1
  Ba  Ba17  1  0.41464950  0.61643550  0.89186400  1
  Ba  Ba18  1  0.08535050  0.11643550  0.60813600  1
  Ba  Ba19  1  0.20044800  0.38687400  0.30546800  1
  B  B20  1  0.68781950  0.36848450  0.41661300  1
  B  B21  1  0.90593800  0.31838500  0.50558000  1
  B  B22  1  0.81218050  0.86848450  0.08338700  1
  B  B23  1  0.81218050  0.13151550  0.58338700  1
  B  B24  1  0.59406200  0.81838500  0.99442000  1
  B  B25  1  0.59406200  0.18161500  0.49442000  1
  B  B26  1  0.68781950  0.63151550  0.91661300  1
  B  B27  1  0.90593800  0.68161500  0.00558000  1
  B  B28  1  0.18781950  0.86848450  0.41661300  1
  B  B29  1  0.40593800  0.81838500  0.50558000  1
  B  B30  1  0.31218050  0.36848450  0.08338700  1
  B  B31  1  0.31218050  0.63151550  0.58338700  1
  B  B32  1  0.09406200  0.31838500  0.99442000  1
  B  B33  1  0.09406200  0.68161500  0.49442000  1
  B  B34  1  0.18781950  0.13151550  0.91661300  1
  B  B35  1  0.40593800  0.18161500  0.00558000  1
  O  O36  1  0.85028800  0.79829100  0.96631600  1
  O  O37  1  0.85028800  0.20170900  0.46631600  1
  O  O38  1  0.54146100  0.26539800  0.41938600  1
  O  O39  1  0.95853900  0.76539800  0.08061400  1
  O  O40  1  0.68734150  0.73597450  0.78538100  1
  O  O41  1  0.59627700  0.00084800  0.54204100  1
  O  O42  1  0.54146100  0.73460200  0.91938600  1
  O  O43  1  0.78023000  0.96919100  0.55658900  1
  O  O44  1  0.68734150  0.26402550  0.28538100  1
  O  O45  1  0.90372300  0.49915200  0.45795900  1
  O  O46  1  0.59627700  0.99915200  0.04204100  1
  O  O47  1  0.78023000  0.03080900  0.05658900  1
  O  O48  1  0.71977000  0.46919100  0.94341100  1
  O  O49  1  0.71977000  0.53080900  0.44341100  1
  O  O50  1  0.95853900  0.23460200  0.58061400  1
  O  O51  1  0.81265850  0.23597450  0.71461900  1
  O  O52  1  0.64971200  0.70170900  0.03368400  1
  O  O53  1  0.90372300  0.50084800  0.95795900  1
  O  O54  1  0.64971200  0.29829100  0.53368400  1
  O  O55  1  0.81265850  0.76402550  0.21461900  1
  O  O56  1  0.35028800  0.29829100  0.96631600  1
  O  O57  1  0.35028800  0.70170900  0.46631600  1
  O  O58  1  0.04146100  0.76539800  0.41938600  1
  O  O59  1  0.45853900  0.26539800  0.08061400  1
  O  O60  1  0.18734150  0.23597450  0.78538100  1
  O  O61  1  0.09627700  0.50084800  0.54204100  1
  O  O62  1  0.04146100  0.23460200  0.91938600  1
  O  O63  1  0.28023000  0.46919100  0.55658900  1
  O  O64  1  0.18734150  0.76402550  0.28538100  1
  O  O65  1  0.40372300  0.99915200  0.45795900  1
  O  O66  1  0.09627700  0.49915200  0.04204100  1
  O  O67  1  0.28023000  0.53080900  0.05658900  1
  O  O68  1  0.21977000  0.96919100  0.94341100  1
  O  O69  1  0.21977000  0.03080900  0.44341100  1
  O  O70  1  0.45853900  0.73460200  0.58061400  1
  O  O71  1  0.31265850  0.73597450  0.71461900  1
  O  O72  1  0.14971200  0.20170900  0.03368400  1
  O  O73  1  0.40372300  0.00084800  0.95795900  1
  O  O74  1  0.14971200  0.79829100  0.53368400  1
  O  O75  1  0.31265850  0.26402550  0.21461900  1
  F  F76  1  0.91994850  0.82464050  0.69451700  1
  F  F77  1  0.91994850  0.17535950  0.19451700  1
  F  F78  1  0.58005150  0.67535950  0.30548300  1
  F  F79  1  0.58005150  0.32464050  0.80548300  1
  F  F80  1  0.41994850  0.32464050  0.69451700  1
  F  F81  1  0.41994850  0.67535950  0.19451700  1
  F  F82  1  0.08005150  0.17535950  0.30548300  1
  F  F83  1  0.08005150  0.82464050  0.80548300  1
