# generated using pymatgen
data_CaH2CO4
_symmetry_space_group_name_H-M   'P 1'
_cell_length_a   10.64538625
_cell_length_b   10.64538625
_cell_length_c   7.64426000
_cell_angle_alpha   90.00000000
_cell_angle_beta   90.00000000
_cell_angle_gamma   120.00000000
_symmetry_Int_Tables_number   1
_chemical_formula_structural   CaH2CO4
_chemical_formula_sum   'Ca9 H18 C9 O36'
_cell_volume   750.22050366
_cell_formula_units_Z   9
loop_
 _symmetry_equiv_pos_site_id
 _symmetry_equiv_pos_as_xyz
  1  'x, y, z'
loop_
 _atom_site_type_symbol
 _atom_site_label
 _atom_site_symmetry_multiplicity
 _atom_site_fract_x
 _atom_site_fract_y
 _atom_site_fract_z
 _atom_site_occupancy
  Ca  Ca0  1  0.18474000  0.09351200  0.33167600  1
  Ca  Ca1  1  0.51854300  0.75068900  0.35363900  1
  Ca  Ca2  1  0.85221400  0.42686700  0.34004100  1
  Ca  Ca3  1  0.23214600  0.48145700  0.02030567  1
  Ca  Ca4  1  0.24931100  0.76785400  0.68697233  1
  Ca  Ca5  1  0.57313300  0.42534700  0.67337433  1
  Ca  Ca6  1  0.90648800  0.09122800  0.66500933  1
  Ca  Ca7  1  0.57465300  0.14778600  0.00670767  1
  Ca  Ca8  1  0.90877200  0.81526000  0.99834267  1
  H  H9  1  0.33698600  0.21502500  0.92290300  1
  H  H10  1  0.21621700  0.33071700  0.57988800  1
  H  H11  1  0.21286800  0.87978000  0.09046800  1
  H  H12  1  0.33109800  0.11597700  0.76565800  1
  H  H13  1  0.46148400  0.99631000  0.42963300  1
  H  H14  1  0.87803900  0.66301400  0.58956967  1
  H  H15  1  0.12022000  0.33308800  0.42380133  1
  H  H16  1  0.78497500  0.12196100  0.25623633  1
  H  H17  1  0.00369000  0.46517400  0.76296633  1
  H  H18  1  0.78487900  0.66890200  0.43232467  1
  H  H19  1  0.66691200  0.78713200  0.75713467  1
  H  H20  1  0.56059300  0.00191200  0.58645800  1
  H  H21  1  0.11450000  0.78378300  0.24655467  1
  H  H22  1  0.66928300  0.88550000  0.91322133  1
  H  H23  1  0.88402300  0.21512100  0.09899133  1
  H  H24  1  0.99808800  0.55868100  0.91979133  1
  H  H25  1  0.44131900  0.43940700  0.25312467  1
  H  H26  1  0.53482600  0.53851600  0.09629967  1
  C  C27  1  0.76684400  0.25708000  0.71180400  1
  C  C28  1  0.74292000  0.50976400  0.04513733  1
  C  C29  1  0.42827800  0.58461700  0.72575500  1
  C  C30  1  0.08321200  0.90528700  0.63303600  1
  C  C31  1  0.15633900  0.57172200  0.39242167  1
  C  C32  1  0.41538300  0.84366100  0.05908833  1
  C  C33  1  0.49023600  0.23315600  0.37847067  1
  C  C34  1  0.09471300  0.17792500  0.96636933  1
  C  C35  1  0.82207500  0.91678800  0.29970267  1
  O  O36  1  0.05513900  0.05823400  0.88529300  1
  O  O37  1  0.47625500  0.93339400  0.51366200  1
  O  O38  1  0.06660600  0.54286100  0.84699533  1
  O  O39  1  0.54358400  0.64132100  0.62507800  1
  O  O40  1  0.02533800  0.24856800  0.93721000  1
  O  O41  1  0.00309500  0.94486100  0.55195967  1
  O  O42  1  0.20765300  0.23543400  0.06926500  1
  O  O43  1  0.88113100  0.31407300  0.61145800  1
  O  O44  1  0.02778100  0.79234700  0.73593167  1
  O  O45  1  0.13255500  0.86659500  0.17039800  1
  O  O46  1  0.68592700  0.56705800  0.94479133  1
  O  O47  1  0.61194200  0.27703000  0.45661300  1
  O  O48  1  0.73404000  0.86744500  0.83706467  1
  O  O49  1  0.76456600  0.97221900  0.40259833  1
  O  O50  1  0.13340500  0.26596000  0.50373133  1
  O  O51  1  0.94176600  0.99690500  0.21862633  1
  O  O52  1  0.66508800  0.38805800  0.12327967  1
  O  O53  1  0.08579800  0.64062000  0.42023300  1
  O  O54  1  0.55482200  0.91420200  0.08689967  1
  O  O55  1  0.22323000  0.97466200  0.60387667  1
  O  O56  1  0.72297000  0.33491200  0.78994633  1
  O  O57  1  0.09773700  0.45641600  0.29174467  1
  O  O58  1  0.35867900  0.90226300  0.95841133  1
  O  O59  1  0.39978900  0.19675600  0.84260000  1
  O  O60  1  0.43294200  0.11886900  0.27812467  1
  O  O61  1  0.41747800  0.30037400  0.40920000  1
  O  O62  1  0.45713900  0.52374500  0.18032867  1
  O  O63  1  0.79696700  0.60021100  0.50926667  1
  O  O64  1  0.38774000  0.66476100  0.80486400  1
  O  O65  1  0.80324400  0.20303300  0.17593333  1
  O  O66  1  0.88289600  0.58252200  0.07586667  1
  O  O67  1  0.27702100  0.61226000  0.47153067  1
  O  O68  1  0.33523900  0.72297900  0.13819733  1
  O  O69  1  0.75143200  0.77677000  0.27054333  1
  O  O70  1  0.69962600  0.11710400  0.74253333  1
  O  O71  1  0.35938000  0.44517800  0.75356633  1
