# generated using pymatgen
data_HgI2
_symmetry_space_group_name_H-M   'P 1'
_cell_length_a   9.16695000
_cell_length_b   9.16695000
_cell_length_c   26.43633800
_cell_angle_alpha   90.00000000
_cell_angle_beta   90.00000000
_cell_angle_gamma   90.00000000
_symmetry_Int_Tables_number   1
_chemical_formula_structural   HgI2
_chemical_formula_sum   'Hg16 I32'
_cell_volume   2221.52405893
_cell_formula_units_Z   16
loop_
 _symmetry_equiv_pos_site_id
 _symmetry_equiv_pos_as_xyz
  1  'x, y, z'
loop_
 _atom_site_type_symbol
 _atom_site_label
 _atom_site_symmetry_multiplicity
 _atom_site_fract_x
 _atom_site_fract_y
 _atom_site_fract_z
 _atom_site_occupancy
  Hg  Hg0  1  0.24544800  0.00000000  0.06111900  1
  Hg  Hg1  1  0.00000000  0.74544800  0.31111900  1
  Hg  Hg2  1  0.75455200  0.00000000  0.06111900  1
  Hg  Hg3  1  0.24544800  0.50000000  0.18888100  1
  Hg  Hg4  1  0.50000000  0.25455200  0.43888100  1
  Hg  Hg5  1  0.00000000  0.25455200  0.31111900  1
  Hg  Hg6  1  0.75455200  0.50000000  0.18888100  1
  Hg  Hg7  1  0.50000000  0.74544800  0.43888100  1
  Hg  Hg8  1  0.74544800  0.50000000  0.56111900  1
  Hg  Hg9  1  0.50000000  0.24544800  0.81111900  1
  Hg  Hg10  1  0.25455200  0.50000000  0.56111900  1
  Hg  Hg11  1  0.74544800  0.00000000  0.68888100  1
  Hg  Hg12  1  0.00000000  0.75455200  0.93888100  1
  Hg  Hg13  1  0.50000000  0.75455200  0.81111900  1
  Hg  Hg14  1  0.25455200  0.00000000  0.68888100  1
  Hg  Hg15  1  0.00000000  0.24544800  0.93888100  1
  I  I16  1  0.50000000  0.00000000  0.12568650  1
  I  I17  1  0.00000000  0.00000000  0.12773850  1
  I  I18  1  0.25788900  0.24211100  0.25000000  1
  I  I19  1  0.00000000  0.50000000  0.12226150  1
  I  I20  1  0.25788900  0.75788900  0.25000000  1
  I  I21  1  0.25788900  0.74211100  0.00000000  1
  I  I22  1  0.74211100  0.24211100  0.25000000  1
  I  I23  1  0.00000000  0.00000000  0.37568650  1
  I  I24  1  0.74211100  0.25788900  0.00000000  1
  I  I25  1  0.25788900  0.25788900  0.00000000  1
  I  I26  1  0.50000000  0.00000000  0.37431350  1
  I  I27  1  0.50000000  0.50000000  0.37226150  1
  I  I28  1  0.74211100  0.74211100  0.00000000  1
  I  I29  1  0.50000000  0.50000000  0.12431350  1
  I  I30  1  0.00000000  0.50000000  0.37773850  1
  I  I31  1  0.74211100  0.75788900  0.25000000  1
  I  I32  1  0.00000000  0.50000000  0.62568650  1
  I  I33  1  0.50000000  0.50000000  0.62773850  1
  I  I34  1  0.75788900  0.74211100  0.75000000  1
  I  I35  1  0.50000000  0.00000000  0.62226150  1
  I  I36  1  0.75788900  0.25788900  0.75000000  1
  I  I37  1  0.75788900  0.24211100  0.50000000  1
  I  I38  1  0.24211100  0.74211100  0.75000000  1
  I  I39  1  0.50000000  0.50000000  0.87568650  1
  I  I40  1  0.24211100  0.75788900  0.50000000  1
  I  I41  1  0.75788900  0.75788900  0.50000000  1
  I  I42  1  0.00000000  0.50000000  0.87431350  1
  I  I43  1  0.00000000  0.00000000  0.87226150  1
  I  I44  1  0.24211100  0.24211100  0.50000000  1
  I  I45  1  0.00000000  0.00000000  0.62431350  1
  I  I46  1  0.50000000  0.00000000  0.87773850  1
  I  I47  1  0.24211100  0.25788900  0.75000000  1
