# generated using pymatgen
data_Be3P2
_symmetry_space_group_name_H-M   'P 1'
_cell_length_a   10.19295200
_cell_length_b   10.19295200
_cell_length_c   10.19295200
_cell_angle_alpha   90.00000000
_cell_angle_beta   90.00000000
_cell_angle_gamma   90.00000000
_symmetry_Int_Tables_number   1
_chemical_formula_structural   Be3P2
_chemical_formula_sum   'Be48 P32'
_cell_volume   1059.00969792
_cell_formula_units_Z   16
loop_
 _symmetry_equiv_pos_site_id
 _symmetry_equiv_pos_as_xyz
  1  'x, y, z'
loop_
 _atom_site_type_symbol
 _atom_site_label
 _atom_site_symmetry_multiplicity
 _atom_site_fract_x
 _atom_site_fract_y
 _atom_site_fract_z
 _atom_site_occupancy
  Be  Be0  1  0.62586500  0.87885300  0.36995000  1
  Be  Be1  1  0.37413500  0.37885300  0.13005000  1
  Be  Be2  1  0.62114700  0.36995000  0.37413500  1
  Be  Be3  1  0.62586500  0.12114700  0.13005000  1
  Be  Be4  1  0.12586500  0.87885300  0.13005000  1
  Be  Be5  1  0.13005000  0.37413500  0.37885300  1
  Be  Be6  1  0.36995000  0.87413500  0.37885300  1
  Be  Be7  1  0.12114700  0.36995000  0.12586500  1
  Be  Be8  1  0.13005000  0.62586500  0.12114700  1
  Be  Be9  1  0.62114700  0.13005000  0.87413500  1
  Be  Be10  1  0.87885300  0.13005000  0.12586500  1
  Be  Be11  1  0.13005000  0.87413500  0.62114700  1
  Be  Be12  1  0.87413500  0.37885300  0.36995000  1
  Be  Be13  1  0.87885300  0.36995000  0.62586500  1
  Be  Be14  1  0.12114700  0.13005000  0.62586500  1
  Be  Be15  1  0.37885300  0.36995000  0.87413500  1
  Be  Be16  1  0.87413500  0.62114700  0.13005000  1
  Be  Be17  1  0.36995000  0.37413500  0.62114700  1
  Be  Be18  1  0.37413500  0.62114700  0.36995000  1
  Be  Be19  1  0.36995000  0.62586500  0.87885300  1
  Be  Be20  1  0.37885300  0.13005000  0.37413500  1
  Be  Be21  1  0.36995000  0.12586500  0.12114700  1
  Be  Be22  1  0.12586500  0.12114700  0.36995000  1
  Be  Be23  1  0.13005000  0.12586500  0.87885300  1
  Be  Be24  1  0.12586500  0.37885300  0.86995000  1
  Be  Be25  1  0.87413500  0.87885300  0.63005000  1
  Be  Be26  1  0.12114700  0.86995000  0.87413500  1
  Be  Be27  1  0.12586500  0.62114700  0.63005000  1
  Be  Be28  1  0.62586500  0.37885300  0.63005000  1
  Be  Be29  1  0.63005000  0.87413500  0.87885300  1
  Be  Be30  1  0.86995000  0.37413500  0.87885300  1
  Be  Be31  1  0.62114700  0.86995000  0.62586500  1
  Be  Be32  1  0.63005000  0.12586500  0.62114700  1
  Be  Be33  1  0.12114700  0.63005000  0.37413500  1
  Be  Be34  1  0.37885300  0.63005000  0.62586500  1
  Be  Be35  1  0.63005000  0.37413500  0.12114700  1
  Be  Be36  1  0.37413500  0.87885300  0.86995000  1
  Be  Be37  1  0.37885300  0.86995000  0.12586500  1
  Be  Be38  1  0.62114700  0.63005000  0.12586500  1
  Be  Be39  1  0.87885300  0.86995000  0.37413500  1
  Be  Be40  1  0.37413500  0.12114700  0.63005000  1
  Be  Be41  1  0.86995000  0.87413500  0.12114700  1
  Be  Be42  1  0.87413500  0.12114700  0.86995000  1
  Be  Be43  1  0.86995000  0.12586500  0.37885300  1
  Be  Be44  1  0.87885300  0.63005000  0.87413500  1
  Be  Be45  1  0.86995000  0.62586500  0.62114700  1
  Be  Be46  1  0.62586500  0.62114700  0.86995000  1
  Be  Be47  1  0.63005000  0.62586500  0.37885300  1
  P  P48  1  0.75000000  0.49437400  0.50000000  1
  P  P49  1  0.25000000  0.49437400  0.00000000  1
  P  P50  1  0.49437400  0.00000000  0.25000000  1
  P  P51  1  0.75000000  0.00562600  0.00000000  1
  P  P52  1  0.00000000  0.25000000  0.49437400  1
  P  P53  1  0.49437400  0.50000000  0.75000000  1
  P  P54  1  0.50000000  0.75000000  0.49437400  1
  P  P55  1  0.00562600  0.50000000  0.25000000  1
  P  P56  1  0.00000000  0.75000000  0.00562600  1
  P  P57  1  0.25000000  0.25000000  0.25000000  1
  P  P58  1  0.00562600  0.00000000  0.75000000  1
  P  P59  1  0.25000000  0.75000000  0.25000000  1
  P  P60  1  0.50000000  0.25000000  0.00562600  1
  P  P61  1  0.25000000  0.00562600  0.50000000  1
  P  P62  1  0.75000000  0.25000000  0.25000000  1
  P  P63  1  0.25000000  0.25000000  0.75000000  1
  P  P64  1  0.25000000  0.99437400  0.00000000  1
  P  P65  1  0.75000000  0.99437400  0.50000000  1
  P  P66  1  0.99437400  0.50000000  0.75000000  1
  P  P67  1  0.25000000  0.50562600  0.50000000  1
  P  P68  1  0.50000000  0.75000000  0.99437400  1
  P  P69  1  0.99437400  0.00000000  0.25000000  1
  P  P70  1  0.00000000  0.25000000  0.99437400  1
  P  P71  1  0.50562600  0.00000000  0.75000000  1
  P  P72  1  0.50000000  0.25000000  0.50562600  1
  P  P73  1  0.75000000  0.75000000  0.75000000  1
  P  P74  1  0.50562600  0.50000000  0.25000000  1
  P  P75  1  0.75000000  0.25000000  0.75000000  1
  P  P76  1  0.00000000  0.75000000  0.50562600  1
  P  P77  1  0.75000000  0.50562600  0.00000000  1
  P  P78  1  0.25000000  0.75000000  0.75000000  1
  P  P79  1  0.75000000  0.75000000  0.25000000  1
