# generated using pymatgen
data_SiO2
_symmetry_space_group_name_H-M   'P 1'
_cell_length_a   20.01557600
_cell_length_b   20.01557600
_cell_length_c   20.01557600
_cell_angle_alpha   90.00000000
_cell_angle_beta   90.00000000
_cell_angle_gamma   90.00000000
_symmetry_Int_Tables_number   1
_chemical_formula_structural   SiO2
_chemical_formula_sum   'Si136 O272'
_cell_volume   8018.70576049
_cell_formula_units_Z   136
loop_
 _symmetry_equiv_pos_site_id
 _symmetry_equiv_pos_as_xyz
  1  'x, y, z'
loop_
 _atom_site_type_symbol
 _atom_site_label
 _atom_site_symmetry_multiplicity
 _atom_site_fract_x
 _atom_site_fract_y
 _atom_site_fract_z
 _atom_site_occupancy
  Si  Si0  1  0.25421700  0.05750550  0.05750550  1
  Si  Si1  1  0.00421700  0.80750550  0.19249450  1
  Si  Si2  1  0.05750550  0.05750550  0.25421700  1
  Si  Si3  1  0.74578300  0.94249450  0.05750550  1
  Si  Si4  1  0.19249450  0.80750550  0.00421700  1
  Si  Si5  1  0.09226000  0.40774000  0.09226000  1
  Si  Si6  1  0.30750550  0.99578300  0.30750550  1
  Si  Si7  1  0.55750550  0.94249450  0.24578300  1
  Si  Si8  1  0.94249450  0.74578300  0.05750550  1
  Si  Si9  1  0.30750550  0.80750550  0.49578300  1
  Si  Si10  1  0.49578300  0.80750550  0.30750550  1
  Si  Si11  1  0.19249450  0.99578300  0.19249450  1
  Si  Si12  1  0.15774000  0.84226000  0.15774000  1
  Si  Si13  1  0.94249450  0.94249450  0.25421700  1
  Si  Si14  1  0.05750550  0.25421700  0.05750550  1
  Si  Si15  1  0.99578300  0.19249450  0.19249450  1
  Si  Si16  1  0.09226000  0.09226000  0.40774000  1
  Si  Si17  1  0.84226000  0.15774000  0.15774000  1
  Si  Si18  1  0.44249450  0.25421700  0.44249450  1
  Si  Si19  1  0.69249450  0.00421700  0.30750550  1
  Si  Si20  1  0.65774000  0.15774000  0.34226000  1
  Si  Si21  1  0.25000000  0.75000000  0.25000000  1
  Si  Si22  1  0.24578300  0.05750550  0.44249450  1
  Si  Si23  1  0.40774000  0.09226000  0.09226000  1
  Si  Si24  1  0.80750550  0.00421700  0.19249450  1
  Si  Si25  1  0.75421700  0.94249450  0.44249450  1
  Si  Si26  1  0.34226000  0.84226000  0.34226000  1
  Si  Si27  1  0.55750550  0.74578300  0.44249450  1
  Si  Si28  1  0.00000000  0.00000000  0.50000000  1
  Si  Si29  1  0.69249450  0.19249450  0.49578300  1
  Si  Si30  1  0.40774000  0.40774000  0.40774000  1
  Si  Si31  1  0.44249450  0.05750550  0.24578300  1
  Si  Si32  1  0.80750550  0.19249450  0.00421700  1
  Si  Si33  1  0.50421700  0.19249450  0.30750550  1
  Si  Si34  1  0.25421700  0.55750550  0.55750550  1
  Si  Si35  1  0.00421700  0.30750550  0.69249450  1
  Si  Si36  1  0.05750550  0.55750550  0.75421700  1
  Si  Si37  1  0.74578300  0.44249450  0.55750550  1
  Si  Si38  1  0.19249450  0.30750550  0.50421700  1
  Si  Si39  1  0.09226000  0.90774000  0.59226000  1
  Si  Si40  1  0.30750550  0.49578300  0.80750550  1
  Si  Si41  1  0.55750550  0.44249450  0.74578300  1
  Si  Si42  1  0.94249450  0.24578300  0.55750550  1
  Si  Si43  1  0.30750550  0.30750550  0.99578300  1
  Si  Si44  1  0.49578300  0.30750550  0.80750550  1
  Si  Si45  1  0.19249450  0.49578300  0.69249450  1
  Si  Si46  1  0.15774000  0.34226000  0.65774000  1
  Si  Si47  1  0.94249450  0.44249450  0.75421700  1
  Si  Si48  1  0.05750550  0.75421700  0.55750550  1
  Si  Si49  1  0.99578300  0.69249450  0.69249450  1
  Si  Si50  1  0.09226000  0.59226000  0.90774000  1
  Si  Si51  1  0.84226000  0.65774000  0.65774000  1
  Si  Si52  1  0.44249450  0.75421700  0.94249450  1
  Si  Si53  1  0.69249450  0.50421700  0.80750550  1
  Si  Si54  1  0.65774000  0.65774000  0.84226000  1
  Si  Si55  1  0.25000000  0.25000000  0.75000000  1
  Si  Si56  1  0.24578300  0.55750550  0.94249450  1
  Si  Si57  1  0.40774000  0.59226000  0.59226000  1
  Si  Si58  1  0.80750550  0.50421700  0.69249450  1
  Si  Si59  1  0.75421700  0.44249450  0.94249450  1
  Si  Si60  1  0.34226000  0.34226000  0.84226000  1
  Si  Si61  1  0.55750550  0.24578300  0.94249450  1
  Si  Si62  1  0.00000000  0.50000000  0.00000000  1
  Si  Si63  1  0.69249450  0.69249450  0.99578300  1
  Si  Si64  1  0.40774000  0.90774000  0.90774000  1
  Si  Si65  1  0.44249450  0.55750550  0.74578300  1
  Si  Si66  1  0.80750550  0.69249450  0.50421700  1
  Si  Si67  1  0.50421700  0.69249450  0.80750550  1
  Si  Si68  1  0.75421700  0.05750550  0.55750550  1
  Si  Si69  1  0.50421700  0.80750550  0.69249450  1
  Si  Si70  1  0.55750550  0.05750550  0.75421700  1
  Si  Si71  1  0.24578300  0.94249450  0.55750550  1
  Si  Si72  1  0.69249450  0.80750550  0.50421700  1
  Si  Si73  1  0.59226000  0.40774000  0.59226000  1
  Si  Si74  1  0.80750550  0.99578300  0.80750550  1
  Si  Si75  1  0.05750550  0.94249450  0.74578300  1
  Si  Si76  1  0.44249450  0.74578300  0.55750550  1
  Si  Si77  1  0.80750550  0.80750550  0.99578300  1
  Si  Si78  1  0.99578300  0.80750550  0.80750550  1
  Si  Si79  1  0.69249450  0.99578300  0.69249450  1
  Si  Si80  1  0.65774000  0.84226000  0.65774000  1
  Si  Si81  1  0.44249450  0.94249450  0.75421700  1
  Si  Si82  1  0.55750550  0.25421700  0.55750550  1
  Si  Si83  1  0.49578300  0.19249450  0.69249450  1
  Si  Si84  1  0.59226000  0.09226000  0.90774000  1
  Si  Si85  1  0.34226000  0.15774000  0.65774000  1
  Si  Si86  1  0.94249450  0.25421700  0.94249450  1
  Si  Si87  1  0.19249450  0.00421700  0.80750550  1
  Si  Si88  1  0.15774000  0.15774000  0.84226000  1
  Si  Si89  1  0.75000000  0.75000000  0.75000000  1
  Si  Si90  1  0.74578300  0.05750550  0.94249450  1
  Si  Si91  1  0.90774000  0.09226000  0.59226000  1
  Si  Si92  1  0.30750550  0.00421700  0.69249450  1
  Si  Si93  1  0.25421700  0.94249450  0.94249450  1
  Si  Si94  1  0.84226000  0.84226000  0.84226000  1
  Si  Si95  1  0.05750550  0.74578300  0.94249450  1
  Si  Si96  1  0.50000000  0.00000000  0.00000000  1
  Si  Si97  1  0.19249450  0.19249450  0.99578300  1
  Si  Si98  1  0.90774000  0.40774000  0.90774000  1
  Si  Si99  1  0.94249450  0.05750550  0.74578300  1
  Si  Si100  1  0.30750550  0.19249450  0.50421700  1
  Si  Si101  1  0.00421700  0.19249450  0.80750550  1
  Si  Si102  1  0.75421700  0.55750550  0.05750550  1
  Si  Si103  1  0.50421700  0.30750550  0.19249450  1
  Si  Si104  1  0.55750550  0.55750550  0.25421700  1
  Si  Si105  1  0.24578300  0.44249450  0.05750550  1
  Si  Si106  1  0.69249450  0.30750550  0.00421700  1
  Si  Si107  1  0.59226000  0.90774000  0.09226000  1
  Si  Si108  1  0.80750550  0.49578300  0.30750550  1
  Si  Si109  1  0.05750550  0.44249450  0.24578300  1
  Si  Si110  1  0.44249450  0.24578300  0.05750550  1
  Si  Si111  1  0.80750550  0.30750550  0.49578300  1
  Si  Si112  1  0.99578300  0.30750550  0.30750550  1
  Si  Si113  1  0.69249450  0.49578300  0.19249450  1
  Si  Si114  1  0.65774000  0.34226000  0.15774000  1
  Si  Si115  1  0.44249450  0.44249450  0.25421700  1
  Si  Si116  1  0.55750550  0.75421700  0.05750550  1
  Si  Si117  1  0.49578300  0.69249450  0.19249450  1
  Si  Si118  1  0.59226000  0.59226000  0.40774000  1
  Si  Si119  1  0.34226000  0.65774000  0.15774000  1
  Si  Si120  1  0.94249450  0.75421700  0.44249450  1
  Si  Si121  1  0.19249450  0.50421700  0.30750550  1
  Si  Si122  1  0.15774000  0.65774000  0.34226000  1
  Si  Si123  1  0.75000000  0.25000000  0.25000000  1
  Si  Si124  1  0.74578300  0.55750550  0.44249450  1
  Si  Si125  1  0.90774000  0.59226000  0.09226000  1
  Si  Si126  1  0.30750550  0.50421700  0.19249450  1
  Si  Si127  1  0.25421700  0.44249450  0.44249450  1
  Si  Si128  1  0.84226000  0.34226000  0.34226000  1
  Si  Si129  1  0.05750550  0.24578300  0.44249450  1
  Si  Si130  1  0.50000000  0.50000000  0.50000000  1
  Si  Si131  1  0.19249450  0.69249450  0.49578300  1
  Si  Si132  1  0.90774000  0.90774000  0.40774000  1
  Si  Si133  1  0.94249450  0.55750550  0.24578300  1
  Si  Si134  1  0.30750550  0.69249450  0.00421700  1
  Si  Si135  1  0.00421700  0.69249450  0.30750550  1
  O  O136  1  0.25000000  0.50098600  0.25000000  1
  O  O137  1  0.32557400  0.91925100  0.32557400  1
  O  O138  1  0.45390500  0.45390500  0.45390500  1
  O  O139  1  0.42442600  0.33074900  0.42442600  1
  O  O140  1  0.50000000  0.74901400  0.50000000  1
  O  O141  1  0.17442600  0.91925100  0.17442600  1
  O  O142  1  0.33074900  0.07557400  0.07557400  1
  O  O143  1  0.96766200  0.87500000  0.21766200  1
  O  O144  1  0.82557400  0.17442600  0.08074900  1
  O  O145  1  0.20390500  0.70390500  0.29609500  1
  O  O146  1  0.53233800  0.87500000  0.28233800  1
  O  O147  1  0.82557400  0.08074900  0.17442600  1
  O  O148  1  0.08074900  0.82557400  0.17442600  1
  O  O149  1  0.67442600  0.08074900  0.32557400  1
  O  O150  1  0.00098600  0.75000000  0.25000000  1
  O  O151  1  0.32557400  0.82557400  0.41925100  1
  O  O152  1  0.50000000  0.25098600  0.50000000  1
  O  O153  1  0.62500000  0.96766200  0.28233800  1
  O  O154  1  0.41925100  0.82557400  0.32557400  1
  O  O155  1  0.92442600  0.92442600  0.33074900  1
  O  O156  1  0.92442600  0.66925100  0.07557400  1
  O  O157  1  0.29609500  0.79609500  0.29609500  1
  O  O158  1  0.25000000  0.75000000  0.00098600  1
  O  O159  1  0.04609500  0.04609500  0.45390500  1
  O  O160  1  0.58074900  0.17442600  0.32557400  1
  O  O161  1  0.78233800  0.87500000  0.03233800  1
  O  O162  1  0.16925100  0.07557400  0.42442600  1
  O  O163  1  0.78233800  0.96766200  0.12500000  1
  O  O164  1  0.49901400  0.75000000  0.25000000  1
  O  O165  1  0.45390500  0.04609500  0.04609500  1
  O  O166  1  0.91925100  0.17442600  0.17442600  1
  O  O167  1  0.87500000  0.78233800  0.03233800  1
  O  O168  1  0.17442600  0.82557400  0.08074900  1
  O  O169  1  0.66925100  0.92442600  0.07557400  1
  O  O170  1  0.46766200  0.12500000  0.28233800  1
  O  O171  1  0.03233800  0.21766200  0.12500000  1
  O  O172  1  0.24901400  0.00000000  0.50000000  1
  O  O173  1  0.03233800  0.12500000  0.21766200  1
  O  O174  1  0.50000000  0.00000000  0.24901400  1
  O  O175  1  0.83074900  0.92442600  0.42442600  1
  O  O176  1  0.12500000  0.21766200  0.03233800  1
  O  O177  1  0.71766200  0.87500000  0.46766200  1
  O  O178  1  0.57557400  0.66925100  0.42442600  1
  O  O179  1  0.28233800  0.12500000  0.46766200  1
  O  O180  1  0.53233800  0.78233800  0.37500000  1
  O  O181  1  0.42442600  0.07557400  0.16925100  1
  O  O182  1  0.00000000  0.00000000  0.25098600  1
  O  O183  1  0.21766200  0.03233800  0.12500000  1
  O  O184  1  0.75098600  0.00000000  0.50000000  1
  O  O185  1  0.87500000  0.96766200  0.21766200  1
  O  O186  1  0.57557400  0.92442600  0.16925100  1
  O  O187  1  0.12500000  0.03233800  0.21766200  1
  O  O188  1  0.71766200  0.96766200  0.37500000  1
  O  O189  1  0.25000000  0.75000000  0.49901400  1
  O  O190  1  0.37500000  0.03233800  0.28233800  1
  O  O191  1  0.29609500  0.70390500  0.20390500  1
  O  O192  1  0.96766200  0.78233800  0.12500000  1
  O  O193  1  0.21766200  0.12500000  0.03233800  1
  O  O194  1  0.67442600  0.17442600  0.41925100  1
  O  O195  1  0.46766200  0.21766200  0.37500000  1
  O  O196  1  0.04609500  0.45390500  0.04609500  1
  O  O197  1  0.25000000  0.99901400  0.25000000  1
  O  O198  1  0.20390500  0.79609500  0.20390500  1
  O  O199  1  0.07557400  0.33074900  0.07557400  1
  O  O200  1  0.28233800  0.03233800  0.37500000  1
  O  O201  1  0.07557400  0.07557400  0.33074900  1
  O  O202  1  0.62500000  0.78233800  0.46766200  1
  O  O203  1  0.37500000  0.21766200  0.46766200  1
  O  O204  1  0.25000000  0.00098600  0.75000000  1
  O  O205  1  0.32557400  0.41925100  0.82557400  1
  O  O206  1  0.45390500  0.95390500  0.95390500  1
  O  O207  1  0.42442600  0.83074900  0.92442600  1
  O  O208  1  0.50000000  0.24901400  0.00000000  1
  O  O209  1  0.17442600  0.41925100  0.67442600  1
  O  O210  1  0.33074900  0.57557400  0.57557400  1
  O  O211  1  0.96766200  0.37500000  0.71766200  1
  O  O212  1  0.82557400  0.67442600  0.58074900  1
  O  O213  1  0.20390500  0.20390500  0.79609500  1
  O  O214  1  0.53233800  0.37500000  0.78233800  1
  O  O215  1  0.82557400  0.58074900  0.67442600  1
  O  O216  1  0.08074900  0.32557400  0.67442600  1
  O  O217  1  0.67442600  0.58074900  0.82557400  1
  O  O218  1  0.00098600  0.25000000  0.75000000  1
  O  O219  1  0.32557400  0.32557400  0.91925100  1
  O  O220  1  0.50000000  0.75098600  0.00000000  1
  O  O221  1  0.62500000  0.46766200  0.78233800  1
  O  O222  1  0.41925100  0.32557400  0.82557400  1
  O  O223  1  0.92442600  0.42442600  0.83074900  1
  O  O224  1  0.92442600  0.16925100  0.57557400  1
  O  O225  1  0.29609500  0.29609500  0.79609500  1
  O  O226  1  0.25000000  0.25000000  0.50098600  1
  O  O227  1  0.04609500  0.54609500  0.95390500  1
  O  O228  1  0.58074900  0.67442600  0.82557400  1
  O  O229  1  0.78233800  0.37500000  0.53233800  1
  O  O230  1  0.16925100  0.57557400  0.92442600  1
  O  O231  1  0.78233800  0.46766200  0.62500000  1
  O  O232  1  0.49901400  0.25000000  0.75000000  1
  O  O233  1  0.45390500  0.54609500  0.54609500  1
  O  O234  1  0.91925100  0.67442600  0.67442600  1
  O  O235  1  0.87500000  0.28233800  0.53233800  1
  O  O236  1  0.17442600  0.32557400  0.58074900  1
  O  O237  1  0.66925100  0.42442600  0.57557400  1
  O  O238  1  0.46766200  0.62500000  0.78233800  1
  O  O239  1  0.03233800  0.71766200  0.62500000  1
  O  O240  1  0.24901400  0.50000000  0.00000000  1
  O  O241  1  0.03233800  0.62500000  0.71766200  1
  O  O242  1  0.50000000  0.50000000  0.74901400  1
  O  O243  1  0.83074900  0.42442600  0.92442600  1
  O  O244  1  0.12500000  0.71766200  0.53233800  1
  O  O245  1  0.71766200  0.37500000  0.96766200  1
  O  O246  1  0.57557400  0.16925100  0.92442600  1
  O  O247  1  0.28233800  0.62500000  0.96766200  1
  O  O248  1  0.53233800  0.28233800  0.87500000  1
  O  O249  1  0.42442600  0.57557400  0.66925100  1
  O  O250  1  0.00000000  0.50000000  0.75098600  1
  O  O251  1  0.21766200  0.53233800  0.62500000  1
  O  O252  1  0.75098600  0.50000000  0.00000000  1
  O  O253  1  0.87500000  0.46766200  0.71766200  1
  O  O254  1  0.57557400  0.42442600  0.66925100  1
  O  O255  1  0.12500000  0.53233800  0.71766200  1
  O  O256  1  0.71766200  0.46766200  0.87500000  1
  O  O257  1  0.25000000  0.25000000  0.99901400  1
  O  O258  1  0.37500000  0.53233800  0.78233800  1
  O  O259  1  0.29609500  0.20390500  0.70390500  1
  O  O260  1  0.96766200  0.28233800  0.62500000  1
  O  O261  1  0.21766200  0.62500000  0.53233800  1
  O  O262  1  0.67442600  0.67442600  0.91925100  1
  O  O263  1  0.46766200  0.71766200  0.87500000  1
  O  O264  1  0.04609500  0.95390500  0.54609500  1
  O  O265  1  0.25000000  0.49901400  0.75000000  1
  O  O266  1  0.20390500  0.29609500  0.70390500  1
  O  O267  1  0.07557400  0.83074900  0.57557400  1
  O  O268  1  0.28233800  0.53233800  0.87500000  1
  O  O269  1  0.07557400  0.57557400  0.83074900  1
  O  O270  1  0.62500000  0.28233800  0.96766200  1
  O  O271  1  0.37500000  0.71766200  0.96766200  1
  O  O272  1  0.75000000  0.50098600  0.75000000  1
  O  O273  1  0.82557400  0.91925100  0.82557400  1
  O  O274  1  0.95390500  0.45390500  0.95390500  1
  O  O275  1  0.92442600  0.33074900  0.92442600  1
  O  O276  1  0.00000000  0.74901400  0.00000000  1
  O  O277  1  0.67442600  0.91925100  0.67442600  1
  O  O278  1  0.83074900  0.07557400  0.57557400  1
  O  O279  1  0.46766200  0.87500000  0.71766200  1
  O  O280  1  0.32557400  0.17442600  0.58074900  1
  O  O281  1  0.70390500  0.70390500  0.79609500  1
  O  O282  1  0.03233800  0.87500000  0.78233800  1
  O  O283  1  0.32557400  0.08074900  0.67442600  1
  O  O284  1  0.58074900  0.82557400  0.67442600  1
  O  O285  1  0.17442600  0.08074900  0.82557400  1
  O  O286  1  0.50098600  0.75000000  0.75000000  1
  O  O287  1  0.82557400  0.82557400  0.91925100  1
  O  O288  1  0.00000000  0.25098600  0.00000000  1
  O  O289  1  0.12500000  0.96766200  0.78233800  1
  O  O290  1  0.91925100  0.82557400  0.82557400  1
  O  O291  1  0.42442600  0.92442600  0.83074900  1
  O  O292  1  0.42442600  0.66925100  0.57557400  1
  O  O293  1  0.79609500  0.79609500  0.79609500  1
  O  O294  1  0.75000000  0.75000000  0.50098600  1
  O  O295  1  0.54609500  0.04609500  0.95390500  1
  O  O296  1  0.08074900  0.17442600  0.82557400  1
  O  O297  1  0.28233800  0.87500000  0.53233800  1
  O  O298  1  0.66925100  0.07557400  0.92442600  1
  O  O299  1  0.28233800  0.96766200  0.62500000  1
  O  O300  1  0.99901400  0.75000000  0.75000000  1
  O  O301  1  0.95390500  0.04609500  0.54609500  1
  O  O302  1  0.41925100  0.17442600  0.67442600  1
  O  O303  1  0.37500000  0.78233800  0.53233800  1
  O  O304  1  0.67442600  0.82557400  0.58074900  1
  O  O305  1  0.16925100  0.92442600  0.57557400  1
  O  O306  1  0.96766200  0.12500000  0.78233800  1
  O  O307  1  0.53233800  0.21766200  0.62500000  1
  O  O308  1  0.74901400  0.00000000  0.00000000  1
  O  O309  1  0.53233800  0.12500000  0.71766200  1
  O  O310  1  0.00000000  0.00000000  0.74901400  1
  O  O311  1  0.33074900  0.92442600  0.92442600  1
  O  O312  1  0.62500000  0.21766200  0.53233800  1
  O  O313  1  0.21766200  0.87500000  0.96766200  1
  O  O314  1  0.07557400  0.66925100  0.92442600  1
  O  O315  1  0.78233800  0.12500000  0.96766200  1
  O  O316  1  0.03233800  0.78233800  0.87500000  1
  O  O317  1  0.92442600  0.07557400  0.66925100  1
  O  O318  1  0.50000000  0.00000000  0.75098600  1
  O  O319  1  0.71766200  0.03233800  0.62500000  1
  O  O320  1  0.25098600  0.00000000  0.00000000  1
  O  O321  1  0.37500000  0.96766200  0.71766200  1
  O  O322  1  0.07557400  0.92442600  0.66925100  1
  O  O323  1  0.62500000  0.03233800  0.71766200  1
  O  O324  1  0.21766200  0.96766200  0.87500000  1
  O  O325  1  0.75000000  0.75000000  0.99901400  1
  O  O326  1  0.87500000  0.03233800  0.78233800  1
  O  O327  1  0.79609500  0.70390500  0.70390500  1
  O  O328  1  0.46766200  0.78233800  0.62500000  1
  O  O329  1  0.71766200  0.12500000  0.53233800  1
  O  O330  1  0.17442600  0.17442600  0.91925100  1
  O  O331  1  0.96766200  0.21766200  0.87500000  1
  O  O332  1  0.54609500  0.45390500  0.54609500  1
  O  O333  1  0.75000000  0.99901400  0.75000000  1
  O  O334  1  0.70390500  0.79609500  0.70390500  1
  O  O335  1  0.57557400  0.33074900  0.57557400  1
  O  O336  1  0.78233800  0.03233800  0.87500000  1
  O  O337  1  0.57557400  0.07557400  0.83074900  1
  O  O338  1  0.12500000  0.78233800  0.96766200  1
  O  O339  1  0.87500000  0.21766200  0.96766200  1
  O  O340  1  0.75000000  0.00098600  0.25000000  1
  O  O341  1  0.82557400  0.41925100  0.32557400  1
  O  O342  1  0.95390500  0.95390500  0.45390500  1
  O  O343  1  0.92442600  0.83074900  0.42442600  1
  O  O344  1  0.00000000  0.24901400  0.50000000  1
  O  O345  1  0.67442600  0.41925100  0.17442600  1
  O  O346  1  0.83074900  0.57557400  0.07557400  1
  O  O347  1  0.46766200  0.37500000  0.21766200  1
  O  O348  1  0.32557400  0.67442600  0.08074900  1
  O  O349  1  0.70390500  0.20390500  0.29609500  1
  O  O350  1  0.03233800  0.37500000  0.28233800  1
  O  O351  1  0.32557400  0.58074900  0.17442600  1
  O  O352  1  0.58074900  0.32557400  0.17442600  1
  O  O353  1  0.17442600  0.58074900  0.32557400  1
  O  O354  1  0.50098600  0.25000000  0.25000000  1
  O  O355  1  0.82557400  0.32557400  0.41925100  1
  O  O356  1  0.00000000  0.75098600  0.50000000  1
  O  O357  1  0.12500000  0.46766200  0.28233800  1
  O  O358  1  0.91925100  0.32557400  0.32557400  1
  O  O359  1  0.42442600  0.42442600  0.33074900  1
  O  O360  1  0.42442600  0.16925100  0.07557400  1
  O  O361  1  0.79609500  0.29609500  0.29609500  1
  O  O362  1  0.75000000  0.25000000  0.00098600  1
  O  O363  1  0.54609500  0.54609500  0.45390500  1
  O  O364  1  0.08074900  0.67442600  0.32557400  1
  O  O365  1  0.28233800  0.37500000  0.03233800  1
  O  O366  1  0.66925100  0.57557400  0.42442600  1
  O  O367  1  0.28233800  0.46766200  0.12500000  1
  O  O368  1  0.99901400  0.25000000  0.25000000  1
  O  O369  1  0.95390500  0.54609500  0.04609500  1
  O  O370  1  0.41925100  0.67442600  0.17442600  1
  O  O371  1  0.37500000  0.28233800  0.03233800  1
  O  O372  1  0.67442600  0.32557400  0.08074900  1
  O  O373  1  0.16925100  0.42442600  0.07557400  1
  O  O374  1  0.96766200  0.62500000  0.28233800  1
  O  O375  1  0.53233800  0.71766200  0.12500000  1
  O  O376  1  0.74901400  0.50000000  0.50000000  1
  O  O377  1  0.53233800  0.62500000  0.21766200  1
  O  O378  1  0.00000000  0.50000000  0.24901400  1
  O  O379  1  0.33074900  0.42442600  0.42442600  1
  O  O380  1  0.62500000  0.71766200  0.03233800  1
  O  O381  1  0.21766200  0.37500000  0.46766200  1
  O  O382  1  0.07557400  0.16925100  0.42442600  1
  O  O383  1  0.78233800  0.62500000  0.46766200  1
  O  O384  1  0.03233800  0.28233800  0.37500000  1
  O  O385  1  0.92442600  0.57557400  0.16925100  1
  O  O386  1  0.50000000  0.50000000  0.25098600  1
  O  O387  1  0.71766200  0.53233800  0.12500000  1
  O  O388  1  0.25098600  0.50000000  0.50000000  1
  O  O389  1  0.37500000  0.46766200  0.21766200  1
  O  O390  1  0.07557400  0.42442600  0.16925100  1
  O  O391  1  0.62500000  0.53233800  0.21766200  1
  O  O392  1  0.21766200  0.46766200  0.37500000  1
  O  O393  1  0.75000000  0.25000000  0.49901400  1
  O  O394  1  0.87500000  0.53233800  0.28233800  1
  O  O395  1  0.79609500  0.20390500  0.20390500  1
  O  O396  1  0.46766200  0.28233800  0.12500000  1
  O  O397  1  0.71766200  0.62500000  0.03233800  1
  O  O398  1  0.17442600  0.67442600  0.41925100  1
  O  O399  1  0.96766200  0.71766200  0.37500000  1
  O  O400  1  0.54609500  0.95390500  0.04609500  1
  O  O401  1  0.75000000  0.49901400  0.25000000  1
  O  O402  1  0.70390500  0.29609500  0.20390500  1
  O  O403  1  0.57557400  0.83074900  0.07557400  1
  O  O404  1  0.78233800  0.53233800  0.37500000  1
  O  O405  1  0.57557400  0.57557400  0.33074900  1
  O  O406  1  0.12500000  0.28233800  0.46766200  1
  O  O407  1  0.87500000  0.71766200  0.46766200  1
