# generated using pymatgen
data_Dy2TiO5
_symmetry_space_group_name_H-M   'P 1'
_cell_length_a   7.25505300
_cell_length_b   7.49984704
_cell_length_c   17.73038783
_cell_angle_alpha   91.74202209
_cell_angle_beta   89.79641496
_cell_angle_gamma   118.85743339
_symmetry_Int_Tables_number   1
_chemical_formula_structural   Dy2TiO5
_chemical_formula_sum   'Dy16 Ti8 O40'
_cell_volume   844.48501242
_cell_formula_units_Z   8
loop_
 _symmetry_equiv_pos_site_id
 _symmetry_equiv_pos_as_xyz
  1  'x, y, z'
loop_
 _atom_site_type_symbol
 _atom_site_label
 _atom_site_symmetry_multiplicity
 _atom_site_fract_x
 _atom_site_fract_y
 _atom_site_fract_z
 _atom_site_occupancy
  Dy  Dy0  1  0.98470900  0.46776300  0.00102900  1
  Dy  Dy1  1  0.33746100  0.69422200  0.65629900  1
  Dy  Dy2  1  0.15370500  0.81866800  0.82734600  1
  Dy  Dy3  1  0.53866800  0.54887400  0.00000500  1
  Dy  Dy4  1  0.30553500  0.16284000  0.66922600  1
  Dy  Dy5  1  0.61134000  0.28905700  0.84478300  1
  Dy  Dy6  1  0.48484700  0.00870000  0.49486800  1
  Dy  Dy7  1  0.67497800  0.84357500  0.84157700  1
  Dy  Dy8  1  0.48577700  0.49123900  0.47943300  1
  Dy  Dy9  1  0.84055600  0.20499100  0.68207000  1
  Dy  Dy10  1  0.00498500  0.02061500  0.49541100  1
  Dy  Dy11  1  0.81018300  0.62012000  0.17202600  1
  Dy  Dy12  1  0.00670700  0.53128600  0.49837000  1
  Dy  Dy13  1  0.31656100  0.14337500  0.14942200  1
  Dy  Dy14  1  0.14530500  0.80735400  0.32735700  1
  Dy  Dy15  1  0.30454100  0.62344900  0.17461900  1
  Ti  Ti16  1  0.98819700  0.98315500  0.99737800  1
  Ti  Ti17  1  0.48328200  0.97374500  0.00401000  1
  Ti  Ti18  1  0.16836700  0.34419100  0.83631200  1
  Ti  Ti19  1  0.82667100  0.65161700  0.66263900  1
  Ti  Ti20  1  0.65518500  0.31432000  0.33577900  1
  Ti  Ti21  1  0.83484400  0.16474900  0.16880000  1
  Ti  Ti22  1  0.66195900  0.82977700  0.32557300  1
  Ti  Ti23  1  0.14444200  0.31829600  0.33540800  1
  O  O24  1  0.46358900  0.51337300  0.87188100  1
  O  O25  1  0.09909300  0.24069900  0.95047200  1
  O  O26  1  0.27434800  0.14826300  0.80366700  1
  O  O27  1  0.69048000  0.89748300  0.97617200  1
  O  O28  1  0.45566500  0.95571300  0.88147600  1
  O  O29  1  0.69095400  0.33462300  0.45030200  1
  O  O30  1  0.67259000  0.40717900  0.71777500  1
  O  O31  1  0.51571400  0.02683300  0.63185000  1
  O  O32  1  0.11333300  0.81612100  0.70244100  1
  O  O33  1  0.64671800  0.30971700  0.96699600  1
  O  O34  1  0.66691400  0.76561100  0.71335600  1
  O  O35  1  0.67239700  0.84274400  0.43462100  1
  O  O36  1  0.06199200  0.52026500  0.87402800  1
  O  O37  1  0.84450500  0.16265800  0.80577800  1
  O  O38  1  0.98384900  0.48693900  0.61883500  1
  O  O39  1  0.77426600  0.65802200  0.56188100  1
  O  O40  1  0.97659500  0.08856300  0.09645200  1
  O  O41  1  0.99611300  0.04035200  0.34197200  1
  O  O42  1  0.77269800  0.65408900  0.30385000  1
  O  O43  1  0.92939500  0.82377600  0.89797700  1
  O  O44  1  0.20985800  0.41915100  0.73368600  1
  O  O45  1  0.12491800  0.33123400  0.45029900  1
  O  O46  1  0.99284200  0.07036700  0.61664300  1
  O  O47  1  0.97313000  0.44853500  0.12889300  1
  O  O48  1  0.16339300  0.83854800  0.20287900  1
  O  O49  1  0.96984200  0.45388100  0.33918800  1
  O  O50  1  0.34993400  0.20592100  0.54268500  1
  O  O51  1  0.41549000  0.34750500  0.35602100  1
  O  O52  1  0.15423900  0.84273100  0.45297900  1
  O  O53  1  0.12468700  0.28852200  0.22403100  1
  O  O54  1  0.32228200  0.69448200  0.03354800  1
  O  O55  1  0.35660000  0.67838000  0.53799000  1
  O  O56  1  0.52183800  0.03616800  0.34722000  1
  O  O57  1  0.59325800  0.08055400  0.09867400  1
  O  O58  1  0.36810100  0.65519600  0.30310900  1
  O  O59  1  0.25977600  0.02946900  0.02580500  1
  O  O60  1  0.69864300  0.90665700  0.21633000  1
  O  O61  1  0.47975400  0.47570100  0.12255100  1
  O  O62  1  0.86685800  0.69404100  0.04425700  1
  O  O63  1  0.65121400  0.28728900  0.22502100  1
