# generated using pymatgen
data_CaCrF6
_symmetry_space_group_name_H-M   'P 1'
_cell_length_a   5.54283364
_cell_length_b   5.54283364
_cell_length_c   14.38908288
_cell_angle_alpha   90.00000000
_cell_angle_beta   90.00000000
_cell_angle_gamma   120.00000000
_symmetry_Int_Tables_number   1
_chemical_formula_structural   CaCrF6
_chemical_formula_sum   'Ca3 Cr3 F18'
_cell_volume   382.84892675
_cell_formula_units_Z   3
loop_
 _symmetry_equiv_pos_site_id
 _symmetry_equiv_pos_as_xyz
  1  'x, y, z'
loop_
 _atom_site_type_symbol
 _atom_site_label
 _atom_site_symmetry_multiplicity
 _atom_site_fract_x
 _atom_site_fract_y
 _atom_site_fract_z
 _atom_site_occupancy
  Ca  Ca0  1  0.33333333  0.66666667  0.16666667  1
  Ca  Ca1  1  1.00000000  0.00000000  0.50000000  1
  Ca  Ca2  1  0.66666667  0.33333333  0.83333333  1
  Cr  Cr3  1  0.00000000  0.00000000  0.00000000  1
  Cr  Cr4  1  0.66666667  0.33333333  0.33333333  1
  Cr  Cr5  1  0.33333333  0.66666667  0.66666667  1
  F  F6  1  0.61554300  0.57735800  0.25830500  1
  F  F7  1  0.96181500  0.38445700  0.25830500  1
  F  F8  1  0.24402467  0.29514833  0.07502833  1
  F  F9  1  0.70485167  0.94887633  0.07502833  1
  F  F10  1  0.05112367  0.75597533  0.07502833  1
  F  F11  1  0.42264200  0.03818500  0.25830500  1
  F  F12  1  0.28220967  0.91069133  0.59163833  1
  F  F13  1  0.62848167  0.71779033  0.59163833  1
  F  F14  1  0.91069133  0.62848167  0.40836167  1
  F  F15  1  0.37151833  0.28220967  0.40836167  1
  F  F16  1  0.71779033  0.08930867  0.40836167  1
  F  F17  1  0.08930867  0.37151833  0.59163833  1
  F  F18  1  0.94887633  0.24402467  0.92497167  1
  F  F19  1  0.29514833  0.05112367  0.92497167  1
  F  F20  1  0.57735800  0.96181500  0.74169500  1
  F  F21  1  0.03818500  0.61554300  0.74169500  1
  F  F22  1  0.38445700  0.42264200  0.74169500  1
  F  F23  1  0.75597533  0.70485167  0.92497167  1
