# generated using pymatgen
data_Cs2AgF4
_symmetry_space_group_name_H-M   'P 1'
_cell_length_a   6.57663000
_cell_length_b   14.51058800
_cell_length_c   6.58087200
_cell_angle_alpha   90.00000000
_cell_angle_beta   90.00000000
_cell_angle_gamma   90.00000000
_symmetry_Int_Tables_number   1
_chemical_formula_structural   Cs2AgF4
_chemical_formula_sum   'Cs8 Ag4 F16'
_cell_volume   628.01767143
_cell_formula_units_Z   4
loop_
 _symmetry_equiv_pos_site_id
 _symmetry_equiv_pos_as_xyz
  1  'x, y, z'
loop_
 _atom_site_type_symbol
 _atom_site_label
 _atom_site_symmetry_multiplicity
 _atom_site_fract_x
 _atom_site_fract_y
 _atom_site_fract_z
 _atom_site_occupancy
  Cs  Cs0  1  0.50000000  0.85701000  0.00000000  1
  Cs  Cs1  1  0.50000000  0.64299000  0.50000000  1
  Cs  Cs2  1  0.00000000  0.64299000  0.00000000  1
  Cs  Cs3  1  0.00000000  0.85701000  0.50000000  1
  Cs  Cs4  1  0.00000000  0.35701000  0.00000000  1
  Cs  Cs5  1  0.00000000  0.14299000  0.50000000  1
  Cs  Cs6  1  0.50000000  0.14299000  0.00000000  1
  Cs  Cs7  1  0.50000000  0.35701000  0.50000000  1
  Ag  Ag8  1  0.00000000  0.00000000  0.00000000  1
  Ag  Ag9  1  0.50000000  0.00000000  0.50000000  1
  Ag  Ag10  1  0.50000000  0.50000000  0.00000000  1
  Ag  Ag11  1  0.00000000  0.50000000  0.50000000  1
  F  F12  1  0.50000000  0.65030300  0.00000000  1
  F  F13  1  0.50000000  0.84969700  0.50000000  1
  F  F14  1  0.00000000  0.84969700  0.00000000  1
  F  F15  1  0.00000000  0.65030300  0.50000000  1
  F  F16  1  0.23675100  0.00000000  0.77343200  1
  F  F17  1  0.73675100  0.00000000  0.72656800  1
  F  F18  1  0.26324900  0.00000000  0.27343200  1
  F  F19  1  0.76324900  0.00000000  0.22656800  1
  F  F20  1  0.00000000  0.15030300  0.00000000  1
  F  F21  1  0.00000000  0.34969700  0.50000000  1
  F  F22  1  0.50000000  0.34969700  0.00000000  1
  F  F23  1  0.50000000  0.15030300  0.50000000  1
  F  F24  1  0.73675100  0.50000000  0.77343200  1
  F  F25  1  0.23675100  0.50000000  0.72656800  1
  F  F26  1  0.76324900  0.50000000  0.27343200  1
  F  F27  1  0.26324900  0.50000000  0.22656800  1
