# generated using pymatgen
data_Cs2LiVO4
_symmetry_space_group_name_H-M   'P 1'
_cell_length_a   6.13198600
_cell_length_b   12.53363600
_cell_length_c   8.33379700
_cell_angle_alpha   90.00000000
_cell_angle_beta   90.00000000
_cell_angle_gamma   90.00000000
_symmetry_Int_Tables_number   1
_chemical_formula_structural   Cs2LiVO4
_chemical_formula_sum   'Cs8 Li4 V4 O16'
_cell_volume   640.50297295
_cell_formula_units_Z   4
loop_
 _symmetry_equiv_pos_site_id
 _symmetry_equiv_pos_as_xyz
  1  'x, y, z'
loop_
 _atom_site_type_symbol
 _atom_site_label
 _atom_site_symmetry_multiplicity
 _atom_site_fract_x
 _atom_site_fract_y
 _atom_site_fract_z
 _atom_site_occupancy
  Cs  Cs0  1  0.50000000  0.10689900  0.45752600  1
  Cs  Cs1  1  0.00000000  0.39310100  0.95752600  1
  Cs  Cs2  1  0.50000000  0.42782000  0.58816800  1
  Cs  Cs3  1  0.00000000  0.07218000  0.08816800  1
  Cs  Cs4  1  0.00000000  0.60689900  0.45752600  1
  Cs  Cs5  1  0.50000000  0.89310100  0.95752600  1
  Cs  Cs6  1  0.00000000  0.92782000  0.58816800  1
  Cs  Cs7  1  0.50000000  0.57218000  0.08816800  1
  Li  Li8  1  0.50000000  0.29579800  0.17673900  1
  Li  Li9  1  0.00000000  0.20420200  0.67673900  1
  Li  Li10  1  0.00000000  0.79579800  0.17673900  1
  Li  Li11  1  0.50000000  0.70420200  0.67673900  1
  V  V12  1  0.00000000  0.29988000  0.39548000  1
  V  V13  1  0.50000000  0.20012000  0.89548000  1
  V  V14  1  0.50000000  0.79988000  0.39548000  1
  V  V15  1  0.00000000  0.70012000  0.89548000  1
  O  O16  1  0.73487500  0.16409500  0.78960600  1
  O  O17  1  0.76512500  0.33590500  0.28960600  1
  O  O18  1  0.50000000  0.13952900  0.08439300  1
  O  O19  1  0.00000000  0.36047100  0.58439300  1
  O  O20  1  0.26512500  0.16409500  0.78960600  1
  O  O21  1  0.23487500  0.33590500  0.28960600  1
  O  O22  1  0.00000000  0.16295100  0.43948200  1
  O  O23  1  0.50000000  0.33704900  0.93948200  1
  O  O24  1  0.23487500  0.66409500  0.78960600  1
  O  O25  1  0.26512500  0.83590500  0.28960600  1
  O  O26  1  0.00000000  0.63952900  0.08439300  1
  O  O27  1  0.50000000  0.86047100  0.58439300  1
  O  O28  1  0.76512500  0.66409500  0.78960600  1
  O  O29  1  0.73487500  0.83590500  0.28960600  1
  O  O30  1  0.50000000  0.66295100  0.43948200  1
  O  O31  1  0.00000000  0.83704900  0.93948200  1
