# generated using pymatgen
data_ZnS
_symmetry_space_group_name_H-M   'P 1'
_cell_length_a   3.85382495
_cell_length_b   3.85382495
_cell_length_c   75.55896300
_cell_angle_alpha   90.00000000
_cell_angle_beta   90.00000000
_cell_angle_gamma   120.00000000
_symmetry_Int_Tables_number   1
_chemical_formula_structural   ZnS
_chemical_formula_sum   'Zn24 S24'
_cell_volume   971.85301799
_cell_formula_units_Z   24
loop_
 _symmetry_equiv_pos_site_id
 _symmetry_equiv_pos_as_xyz
  1  'x, y, z'
loop_
 _atom_site_type_symbol
 _atom_site_label
 _atom_site_symmetry_multiplicity
 _atom_site_fract_x
 _atom_site_fract_y
 _atom_site_fract_z
 _atom_site_occupancy
  Zn  Zn0  1  0.00000000  0.00000000  0.58333000  1
  Zn  Zn1  1  0.66666667  0.33333333  0.54167200  1
  Zn  Zn2  1  0.00000000  0.00000000  0.33333300  1
  Zn  Zn3  1  0.66666667  0.33333333  0.29167200  1
  Zn  Zn4  1  0.33333333  0.66666667  0.25000200  1
  Zn  Zn5  1  0.66666667  0.33333333  0.83333400  1
  Zn  Zn6  1  0.00000000  0.00000000  0.08333300  1
  Zn  Zn7  1  0.00000000  0.00000000  0.66668100  1
  Zn  Zn8  1  0.00000000  0.00000000  0.20833400  1
  Zn  Zn9  1  0.33333333  0.66666667  0.37500200  1
  Zn  Zn10  1  0.66666667  0.33333333  0.04168100  1
  Zn  Zn11  1  0.00000000  0.00000000  0.45833300  1
  Zn  Zn12  1  0.33333333  0.66666667  0.75000200  1
  Zn  Zn13  1  0.66666667  0.33333333  0.16667200  1
  Zn  Zn14  1  0.66666667  0.33333333  0.41667200  1
  Zn  Zn15  1  0.33333333  0.66666667  0.50000100  1
  Zn  Zn16  1  0.33333333  0.66666667  0.62499800  1
  Zn  Zn17  1  0.66666667  0.33333333  0.95833000  1
  Zn  Zn18  1  0.00000000  0.00000000  0.91667200  1
  Zn  Zn19  1  0.66666667  0.33333333  0.70833300  1
  Zn  Zn20  1  0.33333333  0.66666667  0.12500200  1
  Zn  Zn21  1  0.00000000  0.00000000  0.79167200  1
  Zn  Zn22  1  0.33333333  0.66666667  0.99999800  1
  Zn  Zn23  1  0.33333333  0.66666667  0.87500200  1
  S  S24  1  0.00000000  0.00000000  0.82291600  1
  S  S25  1  0.66666667  0.33333333  0.19791600  1
  S  S26  1  0.66666667  0.33333333  0.98955600  1
  S  S27  1  0.33333333  0.66666667  0.40624800  1
  S  S28  1  0.33333333  0.66666667  0.28124800  1
  S  S29  1  0.33333333  0.66666667  0.53124800  1
  S  S30  1  0.00000000  0.00000000  0.69791500  1
  S  S31  1  0.66666667  0.33333333  0.44791600  1
  S  S32  1  0.66666667  0.33333333  0.86457900  1
  S  S33  1  0.33333333  0.66666667  0.03127100  1
  S  S34  1  0.33333333  0.66666667  0.90624800  1
  S  S35  1  0.00000000  0.00000000  0.61455600  1
  S  S36  1  0.33333333  0.66666667  0.78124800  1
  S  S37  1  0.66666667  0.33333333  0.73957900  1
  S  S38  1  0.33333333  0.66666667  0.15624800  1
  S  S39  1  0.00000000  0.00000000  0.48957900  1
  S  S40  1  0.33333333  0.66666667  0.65627100  1
  S  S41  1  0.66666667  0.33333333  0.57291600  1
  S  S42  1  0.00000000  0.00000000  0.36457900  1
  S  S43  1  0.66666667  0.33333333  0.07291500  1
  S  S44  1  0.00000000  0.00000000  0.11457900  1
  S  S45  1  0.00000000  0.00000000  0.94791600  1
  S  S46  1  0.00000000  0.00000000  0.23957900  1
  S  S47  1  0.66666667  0.33333333  0.32291600  1
