# generated using pymatgen
data_Nd2Si2O7
_symmetry_space_group_name_H-M   'P 1'
_cell_length_a   5.43541800
_cell_length_b   8.68770000
_cell_length_c   13.08982400
_cell_angle_alpha   90.00000000
_cell_angle_beta   90.00000000
_cell_angle_gamma   90.00000000
_symmetry_Int_Tables_number   1
_chemical_formula_structural   Nd2Si2O7
_chemical_formula_sum   'Nd8 Si8 O28'
_cell_volume   618.11825680
_cell_formula_units_Z   4
loop_
 _symmetry_equiv_pos_site_id
 _symmetry_equiv_pos_as_xyz
  1  'x, y, z'
loop_
 _atom_site_type_symbol
 _atom_site_label
 _atom_site_symmetry_multiplicity
 _atom_site_fract_x
 _atom_site_fract_y
 _atom_site_fract_z
 _atom_site_occupancy
  Nd  Nd0  1  0.98665500  0.85361300  0.08906900  1
  Nd  Nd1  1  0.01334500  0.35361300  0.41093100  1
  Nd  Nd2  1  0.48665500  0.64638700  0.91093100  1
  Nd  Nd3  1  0.00715300  0.94595800  0.76828700  1
  Nd  Nd4  1  0.50715300  0.55404200  0.23171300  1
  Nd  Nd5  1  0.99284700  0.44595800  0.73171300  1
  Nd  Nd6  1  0.51334500  0.14638700  0.58906900  1
  Nd  Nd7  1  0.49284700  0.05404200  0.26828700  1
  Si  Si8  1  0.02285400  0.25086400  0.17931900  1
  Si  Si9  1  0.52399400  0.99758700  0.97542600  1
  Si  Si10  1  0.97600600  0.00241300  0.47542600  1
  Si  Si11  1  0.47714600  0.74913600  0.67931900  1
  Si  Si12  1  0.97714600  0.75086400  0.32068100  1
  Si  Si13  1  0.02399400  0.50241300  0.02457400  1
  Si  Si14  1  0.52285400  0.24913600  0.82068100  1
  Si  Si15  1  0.47600600  0.49758700  0.52457400  1
  O  O16  1  0.75223300  0.89616400  0.92494700  1
  O  O17  1  0.74776700  0.10383600  0.42494700  1
  O  O18  1  0.89875800  0.57031500  0.32516400  1
  O  O19  1  0.24769700  0.32595800  0.24725500  1
  O  O20  1  0.98696800  0.82438000  0.43594000  1
  O  O21  1  0.01303200  0.32438000  0.06406000  1
  O  O22  1  0.08413500  0.50977100  0.90319800  1
  O  O23  1  0.58413500  0.99022900  0.09680200  1
  O  O24  1  0.39875800  0.92968500  0.67483600  1
  O  O25  1  0.41586500  0.49022900  0.40319800  1
  O  O26  1  0.27071600  0.90339000  0.94258000  1
  O  O27  1  0.72928400  0.40339000  0.55742000  1
  O  O28  1  0.24776700  0.39616400  0.57505300  1
  O  O29  1  0.25223300  0.60383600  0.07505300  1
  O  O30  1  0.73600700  0.72144600  0.74099100  1
  O  O31  1  0.23600700  0.77855400  0.25900900  1
  O  O32  1  0.74769700  0.17404200  0.75274500  1
  O  O33  1  0.75230300  0.82595800  0.25274500  1
  O  O34  1  0.48696800  0.67562000  0.56406000  1
  O  O35  1  0.26399300  0.22144600  0.75900900  1
  O  O36  1  0.51303200  0.17562000  0.93594000  1
  O  O37  1  0.76399300  0.27855400  0.24099100  1
  O  O38  1  0.77071600  0.59661000  0.05742000  1
  O  O39  1  0.25230300  0.67404200  0.74725500  1
  O  O40  1  0.22928400  0.09661000  0.44258000  1
  O  O41  1  0.10124200  0.07031500  0.17483600  1
  O  O42  1  0.91586500  0.00977100  0.59680200  1
  O  O43  1  0.60124200  0.42968500  0.82516400  1
