# generated using pymatgen
data_B3H5
_symmetry_space_group_name_H-M   'P 1'
_cell_length_a   11.46633000
_cell_length_b   7.12604600
_cell_length_c   13.65018220
_cell_angle_alpha   90.00000000
_cell_angle_beta   124.42337070
_cell_angle_gamma   90.00000000
_symmetry_Int_Tables_number   1
_chemical_formula_structural   B3H5
_chemical_formula_sum   'B36 H60'
_cell_volume   920.03394326
_cell_formula_units_Z   12
loop_
 _symmetry_equiv_pos_site_id
 _symmetry_equiv_pos_as_xyz
  1  'x, y, z'
loop_
 _atom_site_type_symbol
 _atom_site_label
 _atom_site_symmetry_multiplicity
 _atom_site_fract_x
 _atom_site_fract_y
 _atom_site_fract_z
 _atom_site_occupancy
  B  B0  1  0.12723400  0.80152700  0.34137600  1
  B  B1  1  0.71206800  0.12910400  0.53101500  1
  B  B2  1  0.00987400  0.23234000  0.62993000  1
  B  B3  1  0.99012600  0.76766000  0.37007000  1
  B  B4  1  0.31950500  0.49161900  0.54528700  1
  B  B5  1  0.32433100  0.86559600  0.15245800  1
  B  B6  1  0.68049500  0.99161900  0.95471300  1
  B  B7  1  0.59721400  0.20879800  0.91849300  1
  B  B8  1  0.99012600  0.73234000  0.87007000  1
  B  B9  1  0.32433100  0.63440400  0.65245800  1
  B  B10  1  0.70388500  0.12791300  0.39929600  1
  B  B11  1  0.70388500  0.37208700  0.89929600  1
  B  B12  1  0.87276600  0.30152700  0.15862400  1
  B  B13  1  0.12723400  0.69847300  0.84137600  1
  B  B14  1  0.71206800  0.37089600  0.03101500  1
  B  B15  1  0.71033800  0.13992600  0.07293200  1
  B  B16  1  0.29611500  0.62791300  0.10070400  1
  B  B17  1  0.31950500  0.00838100  0.04528700  1
  B  B18  1  0.13093800  0.94418300  0.44967700  1
  B  B19  1  0.71033800  0.36007400  0.57293200  1
  B  B20  1  0.13093800  0.55581700  0.94967700  1
  B  B21  1  0.00987400  0.26766000  0.12993000  1
  B  B22  1  0.67566900  0.13440400  0.84754200  1
  B  B23  1  0.59721400  0.29120200  0.41849300  1
  B  B24  1  0.29611500  0.87208700  0.60070400  1
  B  B25  1  0.67566900  0.36559600  0.34754200  1
  B  B26  1  0.40278600  0.79120200  0.08150700  1
  B  B27  1  0.86906200  0.44418300  0.05032300  1
  B  B28  1  0.28966200  0.63992600  0.42706800  1
  B  B29  1  0.40278600  0.70879800  0.58150700  1
  B  B30  1  0.28793200  0.87089600  0.46898500  1
  B  B31  1  0.86906200  0.05581700  0.55032300  1
  B  B32  1  0.68049500  0.50838100  0.45471300  1
  B  B33  1  0.87276600  0.19847300  0.65862400  1
  B  B34  1  0.28793200  0.62910400  0.96898500  1
  B  B35  1  0.28966200  0.86007400  0.92706800  1
  H  H36  1  0.87758000  0.83339700  0.29589200  1
  H  H37  1  0.09675500  0.63412000  0.74892300  1
  H  H38  1  0.34370000  0.50711400  0.94946700  1
  H  H39  1  0.89878200  0.60692400  0.06797500  1
  H  H40  1  0.47237800  0.27567800  0.36749400  1
  H  H41  1  0.34370000  0.99288600  0.44946700  1
  H  H42  1  0.65339800  0.49029400  0.82452700  1
  H  H43  1  0.77662900  0.24125200  0.37487000  1
  H  H44  1  0.89878200  0.89307600  0.56797500  1
  H  H45  1  0.76790800  0.99968700  0.91833400  1
  H  H46  1  0.65630000  0.49288600  0.05053300  1
  H  H47  1  0.36833500  0.16214100  0.06654100  1
  H  H48  1  0.94434200  0.36282300  0.02123400  1
  H  H49  1  0.05565800  0.63717700  0.97876600  1
  H  H50  1  0.52762200  0.77567800  0.13250600  1
  H  H51  1  0.47237800  0.22432200  0.86749400  1
  H  H52  1  0.52762200  0.72432200  0.63250600  1
  H  H53  1  0.09675500  0.86588000  0.24892300  1
  H  H54  1  0.33587100  0.91666800  0.87344000  1
  H  H55  1  0.94434200  0.13717700  0.52123400  1
  H  H56  1  0.37659400  0.91481200  0.25222100  1
  H  H57  1  0.22337100  0.75874800  0.62513000  1
  H  H58  1  0.90324500  0.13412000  0.75107700  1
  H  H59  1  0.10121800  0.10692400  0.43202500  1
  H  H60  1  0.87758000  0.66660300  0.79589200  1
  H  H61  1  0.04755000  0.66072200  0.32082300  1
  H  H62  1  0.33587100  0.58333200  0.37344000  1
  H  H63  1  0.62340600  0.08518800  0.74777900  1
  H  H64  1  0.34660200  0.50970600  0.17547300  1
  H  H65  1  0.01364400  0.12762300  0.08105400  1
  H  H66  1  0.23209200  0.00031300  0.08166600  1
  H  H67  1  0.63166500  0.83785900  0.93345900  1
  H  H68  1  0.12242000  0.16660300  0.70410800  1
  H  H69  1  0.12242000  0.33339700  0.20410800  1
  H  H70  1  0.76790800  0.50031300  0.41833400  1
  H  H71  1  0.01364400  0.37237700  0.58105400  1
  H  H72  1  0.62340600  0.41481200  0.24777900  1
  H  H73  1  0.04755000  0.83927800  0.82082300  1
  H  H74  1  0.21449600  0.99954800  0.93036600  1
  H  H75  1  0.22337100  0.74125200  0.12513000  1
  H  H76  1  0.65339800  0.00970600  0.32452700  1
  H  H77  1  0.90324500  0.36588000  0.25107700  1
  H  H78  1  0.63166500  0.66214100  0.43345900  1
  H  H79  1  0.98635600  0.62762300  0.41894600  1
  H  H80  1  0.78550400  0.49954800  0.56963400  1
  H  H81  1  0.98635600  0.87237700  0.91894600  1
  H  H82  1  0.65630000  0.00711400  0.55053300  1
  H  H83  1  0.10121800  0.39307600  0.93202500  1
  H  H84  1  0.05565800  0.86282300  0.47876600  1
  H  H85  1  0.95245000  0.33927800  0.67917700  1
  H  H86  1  0.37659400  0.58518800  0.75222100  1
  H  H87  1  0.95245000  0.16072200  0.17917700  1
  H  H88  1  0.78550400  0.00045200  0.06963400  1
  H  H89  1  0.66412900  0.08333200  0.12656000  1
  H  H90  1  0.34660200  0.99029400  0.67547300  1
  H  H91  1  0.66412900  0.41666800  0.62656000  1
  H  H92  1  0.23209200  0.49968700  0.58166600  1
  H  H93  1  0.21449600  0.50045200  0.43036600  1
  H  H94  1  0.77662900  0.25874800  0.87487000  1
  H  H95  1  0.36833500  0.33785900  0.56654100  1
