# generated using pymatgen
data_PbI2
_symmetry_space_group_name_H-M   'P 1'
_cell_length_a   4.65421056
_cell_length_b   4.65421056
_cell_length_c   44.83567083
_cell_angle_alpha   90.00000000
_cell_angle_beta   90.00000000
_cell_angle_gamma   120.00000000
_symmetry_Int_Tables_number   1
_chemical_formula_structural   PbI2
_chemical_formula_sum   'Pb6 I12'
_cell_volume   841.09753117
_cell_formula_units_Z   6
loop_
 _symmetry_equiv_pos_site_id
 _symmetry_equiv_pos_as_xyz
  1  'x, y, z'
loop_
 _atom_site_type_symbol
 _atom_site_label
 _atom_site_symmetry_multiplicity
 _atom_site_fract_x
 _atom_site_fract_y
 _atom_site_fract_z
 _atom_site_occupancy
  Pb  Pb0  1  0.00000000  0.00000000  0.00000000  1
  Pb  Pb1  1  0.33333333  0.66666667  0.16666667  1
  Pb  Pb2  1  0.66666667  0.33333333  0.33333333  1
  Pb  Pb3  1  1.00000000  1.00000000  0.50000000  1
  Pb  Pb4  1  0.33333333  0.66666667  0.66666667  1
  Pb  Pb5  1  0.66666667  0.33333333  0.83333333  1
  I  I6  1  0.66666667  0.33333333  0.20863833  1
  I  I7  1  0.00000000  0.00000000  0.12469500  1
  I  I8  1  0.66666667  0.33333333  0.04188233  1
  I  I9  1  0.00000000  0.00000000  0.29145100  1
  I  I10  1  0.33333333  0.66666667  0.54197167  1
  I  I11  1  0.66666667  0.33333333  0.45802833  1
  I  I12  1  0.33333333  0.66666667  0.37521567  1
  I  I13  1  0.66666667  0.33333333  0.62478433  1
  I  I14  1  0.00000000  0.00000000  0.87530500  1
  I  I15  1  0.33333333  0.66666667  0.79136167  1
  I  I16  1  0.00000000  0.00000000  0.70854900  1
  I  I17  1  0.33333333  0.66666667  0.95811767  1
