# generated using pymatgen
data_InSeI
_symmetry_space_group_name_H-M   'P 1'
_cell_length_a   19.34744400
_cell_length_b   19.34744400
_cell_length_c   10.39795400
_cell_angle_alpha   90.00000000
_cell_angle_beta   90.00000000
_cell_angle_gamma   90.00000000
_symmetry_Int_Tables_number   1
_chemical_formula_structural   InSeI
_chemical_formula_sum   'In32 Se32 I32'
_cell_volume   3892.19946300
_cell_formula_units_Z   32
loop_
 _symmetry_equiv_pos_site_id
 _symmetry_equiv_pos_as_xyz
  1  'x, y, z'
loop_
 _atom_site_type_symbol
 _atom_site_label
 _atom_site_symmetry_multiplicity
 _atom_site_fract_x
 _atom_site_fract_y
 _atom_site_fract_z
 _atom_site_occupancy
  In  In0  1  0.35802550  0.21742750  0.38196050  1
  In  In1  1  0.21742750  0.14197450  0.13196050  1
  In  In2  1  0.78257250  0.85802550  0.13196050  1
  In  In3  1  0.64197450  0.78257250  0.38196050  1
  In  In4  1  0.64197450  0.28257250  0.36803950  1
  In  In5  1  0.28257250  0.85802550  0.11803950  1
  In  In6  1  0.71742750  0.14197450  0.11803950  1
  In  In7  1  0.35802550  0.71742750  0.36803950  1
  In  In8  1  0.30075350  0.15177050  0.75289050  1
  In  In9  1  0.65177050  0.69924650  0.00289050  1
  In  In10  1  0.34822950  0.30075350  0.00289050  1
  In  In11  1  0.69924650  0.84822950  0.75289050  1
  In  In12  1  0.19924650  0.84822950  0.49710950  1
  In  In13  1  0.34822950  0.80075350  0.74710950  1
  In  In14  1  0.65177050  0.19924650  0.74710950  1
  In  In15  1  0.80075350  0.15177050  0.49710950  1
  In  In16  1  0.85802550  0.71742750  0.88196050  1
  In  In17  1  0.71742750  0.64197450  0.63196050  1
  In  In18  1  0.28257250  0.35802550  0.63196050  1
  In  In19  1  0.14197450  0.28257250  0.88196050  1
  In  In20  1  0.14197450  0.78257250  0.86803950  1
  In  In21  1  0.78257250  0.35802550  0.61803950  1
  In  In22  1  0.21742750  0.64197450  0.61803950  1
  In  In23  1  0.85802550  0.21742750  0.86803950  1
  In  In24  1  0.80075350  0.65177050  0.25289050  1
  In  In25  1  0.15177050  0.19924650  0.50289050  1
  In  In26  1  0.84822950  0.80075350  0.50289050  1
  In  In27  1  0.19924650  0.34822950  0.25289050  1
  In  In28  1  0.69924650  0.34822950  0.99710950  1
  In  In29  1  0.84822950  0.30075350  0.24710950  1
  In  In30  1  0.15177050  0.69924650  0.24710950  1
  In  In31  1  0.30075350  0.65177050  0.99710950  1
  Se  Se32  1  0.36999100  0.25194400  0.62916100  1
  Se  Se33  1  0.25194400  0.13000900  0.37916100  1
  Se  Se34  1  0.74805600  0.86999100  0.37916100  1
  Se  Se35  1  0.63000900  0.74805600  0.62916100  1
  Se  Se36  1  0.63000900  0.24805600  0.12083900  1
  Se  Se37  1  0.24805600  0.86999100  0.87083900  1
  Se  Se38  1  0.75194400  0.13000900  0.87083900  1
  Se  Se39  1  0.36999100  0.75194400  0.12083900  1
  Se  Se40  1  0.83578050  0.83580150  0.75070650  1
  Se  Se41  1  0.33580150  0.16421950  0.00070650  1
  Se  Se42  1  0.66419850  0.83578050  0.00070650  1
  Se  Se43  1  0.16421950  0.16419850  0.75070650  1
  Se  Se44  1  0.66421950  0.16419850  0.49929350  1
  Se  Se45  1  0.66419850  0.33578050  0.74929350  1
  Se  Se46  1  0.33580150  0.66421950  0.74929350  1
  Se  Se47  1  0.33578050  0.83580150  0.49929350  1
  Se  Se48  1  0.86999100  0.75194400  0.12916100  1
  Se  Se49  1  0.75194400  0.63000900  0.87916100  1
  Se  Se50  1  0.24805600  0.36999100  0.87916100  1
  Se  Se51  1  0.13000900  0.24805600  0.12916100  1
  Se  Se52  1  0.13000900  0.74805600  0.62083900  1
  Se  Se53  1  0.74805600  0.36999100  0.37083900  1
  Se  Se54  1  0.25194400  0.63000900  0.37083900  1
  Se  Se55  1  0.86999100  0.25194400  0.62083900  1
  Se  Se56  1  0.33578050  0.33580150  0.25070650  1
  Se  Se57  1  0.83580150  0.66421950  0.50070650  1
  Se  Se58  1  0.16419850  0.33578050  0.50070650  1
  Se  Se59  1  0.66421950  0.66419850  0.25070650  1
  Se  Se60  1  0.16421950  0.66419850  0.99929350  1
  Se  Se61  1  0.16419850  0.83578050  0.24929350  1
  Se  Se62  1  0.83580150  0.16421950  0.24929350  1
  Se  Se63  1  0.83578050  0.33580150  0.99929350  1
  I  I64  1  0.47090350  0.14570650  0.30249550  1
  I  I65  1  0.14570650  0.02909650  0.05249550  1
  I  I66  1  0.85429350  0.97090350  0.05249550  1
  I  I67  1  0.52909650  0.85429350  0.30249550  1
  I  I68  1  0.52909650  0.35429350  0.44750450  1
  I  I69  1  0.35429350  0.97090350  0.19750450  1
  I  I70  1  0.64570650  0.02909650  0.19750450  1
  I  I71  1  0.47090350  0.64570650  0.44750450  1
  I  I72  1  0.35598950  0.03059450  0.67219150  1
  I  I73  1  0.53059450  0.64401050  0.92219150  1
  I  I74  1  0.46940550  0.35598950  0.92219150  1
  I  I75  1  0.64401050  0.96940550  0.67219150  1
  I  I76  1  0.14401050  0.96940550  0.57780850  1
  I  I77  1  0.46940550  0.85598950  0.82780850  1
  I  I78  1  0.53059450  0.14401050  0.82780850  1
  I  I79  1  0.85598950  0.03059450  0.57780850  1
  I  I80  1  0.97090350  0.64570650  0.80249550  1
  I  I81  1  0.64570650  0.52909650  0.55249550  1
  I  I82  1  0.35429350  0.47090350  0.55249550  1
  I  I83  1  0.02909650  0.35429350  0.80249550  1
  I  I84  1  0.02909650  0.85429350  0.94750450  1
  I  I85  1  0.85429350  0.47090350  0.69750450  1
  I  I86  1  0.14570650  0.52909650  0.69750450  1
  I  I87  1  0.97090350  0.14570650  0.94750450  1
  I  I88  1  0.85598950  0.53059450  0.17219150  1
  I  I89  1  0.03059450  0.14401050  0.42219150  1
  I  I90  1  0.96940550  0.85598950  0.42219150  1
  I  I91  1  0.14401050  0.46940550  0.17219150  1
  I  I92  1  0.64401050  0.46940550  0.07780850  1
  I  I93  1  0.96940550  0.35598950  0.32780850  1
  I  I94  1  0.03059450  0.64401050  0.32780850  1
  I  I95  1  0.35598950  0.53059450  0.07780850  1
