# generated using pymatgen
data_Ag3N5O6
_symmetry_space_group_name_H-M   'P 1'
_cell_length_a   6.16659600
_cell_length_b   13.42657600
_cell_length_c   9.32769600
_cell_angle_alpha   90.00000000
_cell_angle_beta   90.00000000
_cell_angle_gamma   90.00000000
_symmetry_Int_Tables_number   1
_chemical_formula_structural   Ag3N5O6
_chemical_formula_sum   'Ag12 N20 O24'
_cell_volume   772.29843514
_cell_formula_units_Z   4
loop_
 _symmetry_equiv_pos_site_id
 _symmetry_equiv_pos_as_xyz
  1  'x, y, z'
loop_
 _atom_site_type_symbol
 _atom_site_label
 _atom_site_symmetry_multiplicity
 _atom_site_fract_x
 _atom_site_fract_y
 _atom_site_fract_z
 _atom_site_occupancy
  Ag  Ag0  1  0.42351000  0.00000000  0.04418100  1
  Ag  Ag1  1  0.08824100  0.13621400  0.60632400  1
  Ag  Ag2  1  0.57649000  0.00000000  0.54418100  1
  Ag  Ag3  1  0.41175900  0.36378600  0.10632400  1
  Ag  Ag4  1  0.58824100  0.36378600  0.60632400  1
  Ag  Ag5  1  0.91175900  0.13621400  0.10632400  1
  Ag  Ag6  1  0.92351000  0.50000000  0.04418100  1
  Ag  Ag7  1  0.58824100  0.63621400  0.60632400  1
  Ag  Ag8  1  0.07649000  0.50000000  0.54418100  1
  Ag  Ag9  1  0.91175900  0.86378600  0.10632400  1
  Ag  Ag10  1  0.08824100  0.86378600  0.60632400  1
  Ag  Ag11  1  0.41175900  0.63621400  0.10632400  1
  N  N12  1  0.81821700  0.00000000  0.83346000  1
  N  N13  1  0.36746900  0.19816000  0.87615800  1
  N  N14  1  0.13253100  0.30184000  0.37615800  1
  N  N15  1  0.18178300  0.00000000  0.33346000  1
  N  N16  1  0.14771700  0.00000000  0.20808300  1
  N  N17  1  0.21208800  0.00000000  0.45949600  1
  N  N18  1  0.78791200  0.00000000  0.95949600  1
  N  N19  1  0.63253100  0.19816000  0.37615800  1
  N  N20  1  0.85228300  0.00000000  0.70808300  1
  N  N21  1  0.86746900  0.30184000  0.87615800  1
  N  N22  1  0.31821700  0.50000000  0.83346000  1
  N  N23  1  0.86746900  0.69816000  0.87615800  1
  N  N24  1  0.63253100  0.80184000  0.37615800  1
  N  N25  1  0.68178300  0.50000000  0.33346000  1
  N  N26  1  0.64771700  0.50000000  0.20808300  1
  N  N27  1  0.71208800  0.50000000  0.45949600  1
  N  N28  1  0.28791200  0.50000000  0.95949600  1
  N  N29  1  0.13253100  0.69816000  0.37615800  1
  N  N30  1  0.35228300  0.50000000  0.70808300  1
  N  N31  1  0.36746900  0.80184000  0.87615800  1
  O  O32  1  0.42654750  0.19999350  0.00822100  1
  O  O33  1  0.17073400  0.38648900  0.31934100  1
  O  O34  1  0.65516500  0.27742500  0.30694000  1
  O  O35  1  0.67073400  0.11351100  0.31934100  1
  O  O36  1  0.07345250  0.30000650  0.50822100  1
  O  O37  1  0.82926600  0.38648900  0.81934100  1
  O  O38  1  0.84483500  0.22257500  0.80694000  1
  O  O39  1  0.92654750  0.30000650  0.00822100  1
  O  O40  1  0.34483500  0.27742500  0.80694000  1
  O  O41  1  0.32926600  0.11351100  0.81934100  1
  O  O42  1  0.57345250  0.19999350  0.50822100  1
  O  O43  1  0.15516500  0.22257500  0.30694000  1
  O  O44  1  0.92654750  0.69999350  0.00822100  1
  O  O45  1  0.67073400  0.88648900  0.31934100  1
  O  O46  1  0.15516500  0.77742500  0.30694000  1
  O  O47  1  0.17073400  0.61351100  0.31934100  1
  O  O48  1  0.57345250  0.80000650  0.50822100  1
  O  O49  1  0.32926600  0.88648900  0.81934100  1
  O  O50  1  0.34483500  0.72257500  0.80694000  1
  O  O51  1  0.42654750  0.80000650  0.00822100  1
  O  O52  1  0.84483500  0.77742500  0.80694000  1
  O  O53  1  0.82926600  0.61351100  0.81934100  1
  O  O54  1  0.07345250  0.69999350  0.50822100  1
  O  O55  1  0.65516500  0.72257500  0.30694000  1
