# generated using pymatgen
data_K3Ho(SiO3)3
_symmetry_space_group_name_H-M   'P 1'
_cell_length_a   5.88572000
_cell_length_b   12.98806800
_cell_length_c   14.07468500
_cell_angle_alpha   90.00000000
_cell_angle_beta   90.00000000
_cell_angle_gamma   90.00000000
_symmetry_Int_Tables_number   1
_chemical_formula_structural   K3Ho(SiO3)3
_chemical_formula_sum   'K12 Ho4 Si12 O36'
_cell_volume   1075.92707221
_cell_formula_units_Z   4
loop_
 _symmetry_equiv_pos_site_id
 _symmetry_equiv_pos_as_xyz
  1  'x, y, z'
loop_
 _atom_site_type_symbol
 _atom_site_label
 _atom_site_symmetry_multiplicity
 _atom_site_fract_x
 _atom_site_fract_y
 _atom_site_fract_z
 _atom_site_occupancy
  K  K0  1  0.18554000  0.06406700  0.00000000  1
  K  K1  1  0.17767200  0.81186100  0.00000000  1
  K  K2  1  0.16924700  0.84958800  0.50000000  1
  K  K3  1  0.65837200  0.12410100  0.78066400  1
  K  K4  1  0.34162800  0.62410100  0.28066400  1
  K  K5  1  0.83075300  0.34958800  0.00000000  1
  K  K6  1  0.82232800  0.31186100  0.50000000  1
  K  K7  1  0.34162800  0.62410100  0.71933600  1
  K  K8  1  0.81446000  0.56406700  0.50000000  1
  K  K9  1  0.65837200  0.12410100  0.21933600  1
  K  K10  1  0.75214400  0.60538600  0.00000000  1
  K  K11  1  0.24785600  0.10538600  0.50000000  1
  Ho  Ho12  1  0.83573600  0.46025000  0.26027300  1
  Ho  Ho13  1  0.16426400  0.96025000  0.76027300  1
  Ho  Ho14  1  0.83573600  0.46025000  0.73972700  1
  Ho  Ho15  1  0.16426400  0.96025000  0.23972700  1
  Si  Si16  1  0.32171900  0.37038500  0.60988800  1
  Si  Si17  1  0.67828100  0.87038500  0.10988800  1
  Si  Si18  1  0.67828100  0.87038500  0.89011200  1
  Si  Si19  1  0.33122200  0.43794600  0.11629900  1
  Si  Si20  1  0.66877800  0.93794600  0.38370100  1
  Si  Si21  1  0.16308900  0.24713800  0.78059000  1
  Si  Si22  1  0.66877800  0.93794600  0.61629900  1
  Si  Si23  1  0.16308900  0.24713800  0.21941000  1
  Si  Si24  1  0.33122200  0.43794600  0.88370100  1
  Si  Si25  1  0.83691100  0.74713800  0.71941000  1
  Si  Si26  1  0.83691100  0.74713800  0.28059000  1
  Si  Si27  1  0.32171900  0.37038500  0.39011200  1
  O  O28  1  0.32385400  0.31215600  0.14173300  1
  O  O29  1  0.09125300  0.79538000  0.28102000  1
  O  O30  1  0.17784800  0.12669600  0.19109000  1
  O  O31  1  0.57379800  0.48631200  0.85203700  1
  O  O32  1  0.71095100  0.76276300  0.82566200  1
  O  O33  1  0.32341300  0.31763900  0.50000000  1
  O  O34  1  0.67614600  0.81215600  0.35826700  1
  O  O35  1  0.67614600  0.81215600  0.64173300  1
  O  O36  1  0.56615600  0.42439500  0.62816000  1
  O  O37  1  0.42620200  0.98631200  0.35203700  1
  O  O38  1  0.57379800  0.48631200  0.14796300  1
  O  O39  1  0.10888700  0.49884600  0.15422800  1
  O  O40  1  0.17784800  0.12669600  0.80891000  1
  O  O41  1  0.10121300  0.44385600  0.37821800  1
  O  O42  1  0.09125300  0.79538000  0.71898000  1
  O  O43  1  0.32385400  0.31215600  0.85826700  1
  O  O44  1  0.56615600  0.42439500  0.37184000  1
  O  O45  1  0.89878700  0.94385600  0.12178200  1
  O  O46  1  0.82215200  0.62669600  0.69109000  1
  O  O47  1  0.67658700  0.81763900  0.00000000  1
  O  O48  1  0.10121300  0.44385600  0.62178200  1
  O  O49  1  0.67456000  0.93891500  0.50000000  1
  O  O50  1  0.43384400  0.92439500  0.12816000  1
  O  O51  1  0.10888700  0.49884600  0.84577200  1
  O  O52  1  0.89111300  0.99884600  0.34577200  1
  O  O53  1  0.71095100  0.76276300  0.17433800  1
  O  O54  1  0.89878700  0.94385600  0.87821800  1
  O  O55  1  0.82215200  0.62669600  0.30891000  1
  O  O56  1  0.43384400  0.92439500  0.87184000  1
  O  O57  1  0.28904900  0.26276300  0.67433800  1
  O  O58  1  0.89111300  0.99884600  0.65422800  1
  O  O59  1  0.28904900  0.26276300  0.32566200  1
  O  O60  1  0.32544000  0.43891500  0.00000000  1
  O  O61  1  0.42620200  0.98631200  0.64796300  1
  O  O62  1  0.90874700  0.29538000  0.78102000  1
  O  O63  1  0.90874700  0.29538000  0.21898000  1
