# generated using pymatgen
data_K2AgSbS4
_symmetry_space_group_name_H-M   'P 1'
_cell_length_a   8.09565200
_cell_length_b   10.46500800
_cell_length_c   10.69716500
_cell_angle_alpha   90.00000000
_cell_angle_beta   90.00000000
_cell_angle_gamma   90.00000000
_symmetry_Int_Tables_number   1
_chemical_formula_structural   K2AgSbS4
_chemical_formula_sum   'K8 Ag4 Sb4 S16'
_cell_volume   906.27518930
_cell_formula_units_Z   4
loop_
 _symmetry_equiv_pos_site_id
 _symmetry_equiv_pos_as_xyz
  1  'x, y, z'
loop_
 _atom_site_type_symbol
 _atom_site_label
 _atom_site_symmetry_multiplicity
 _atom_site_fract_x
 _atom_site_fract_y
 _atom_site_fract_z
 _atom_site_occupancy
  K  K0  1  0.44857000  0.74750300  0.26913500  1
  K  K1  1  0.94857000  0.75249700  0.76913500  1
  K  K2  1  0.75978000  0.00000000  0.50000000  1
  K  K3  1  0.25978000  0.50000000  0.00000000  1
  K  K4  1  0.94857000  0.24750300  0.23086500  1
  K  K5  1  0.94772500  0.50000000  0.50000000  1
  K  K6  1  0.44772500  0.00000000  0.00000000  1
  K  K7  1  0.44857000  0.25249700  0.73086500  1
  Ag  Ag8  1  0.45190500  0.50000000  0.50000000  1
  Ag  Ag9  1  0.72540500  0.50000000  0.00000000  1
  Ag  Ag10  1  0.22540500  0.00000000  0.50000000  1
  Ag  Ag11  1  0.95190500  0.00000000  0.00000000  1
  Sb  Sb12  1  0.44914100  0.72685900  0.72410400  1
  Sb  Sb13  1  0.94914100  0.22685900  0.77589600  1
  Sb  Sb14  1  0.94914100  0.77314100  0.22410400  1
  Sb  Sb15  1  0.44914100  0.27314100  0.27589600  1
  S  S16  1  0.80039200  0.42273800  0.78246600  1
  S  S17  1  0.30039200  0.92273800  0.71753400  1
  S  S18  1  0.58618900  0.71555800  0.91988400  1
  S  S19  1  0.30039200  0.07726200  0.28246600  1
  S  S20  1  0.80039200  0.57726200  0.21753400  1
  S  S21  1  0.76858000  0.95144400  0.20199800  1
  S  S22  1  0.13292100  0.20891100  0.94843700  1
  S  S23  1  0.63292100  0.70891100  0.55156300  1
  S  S24  1  0.26858000  0.54855600  0.70199800  1
  S  S25  1  0.08618900  0.21555800  0.58011600  1
  S  S26  1  0.76858000  0.04855600  0.79800200  1
  S  S27  1  0.63292100  0.29108900  0.44843700  1
  S  S28  1  0.13292100  0.79108900  0.05156300  1
  S  S29  1  0.08618900  0.78444200  0.41988400  1
  S  S30  1  0.58618900  0.28444200  0.08011600  1
  S  S31  1  0.26858000  0.45144400  0.29800200  1
