# generated using pymatgen
data_Li2Ga2GeS6
_symmetry_space_group_name_H-M   'P 1'
_cell_length_a   6.88845800
_cell_length_b   12.33290600
_cell_length_c   23.03809400
_cell_angle_alpha   90.00000000
_cell_angle_beta   90.00000000
_cell_angle_gamma   90.00000000
_symmetry_Int_Tables_number   1
_chemical_formula_structural   Li2Ga2GeS6
_chemical_formula_sum   'Li16 Ga16 Ge8 S48'
_cell_volume   1957.19447951
_cell_formula_units_Z   8
loop_
 _symmetry_equiv_pos_site_id
 _symmetry_equiv_pos_as_xyz
  1  'x, y, z'
loop_
 _atom_site_type_symbol
 _atom_site_label
 _atom_site_symmetry_multiplicity
 _atom_site_fract_x
 _atom_site_fract_y
 _atom_site_fract_z
 _atom_site_occupancy
  Li  Li0  1  0.60620800  0.33362150  0.95193550  1
  Li  Li1  1  0.60620800  0.16637850  0.54806450  1
  Li  Li2  1  0.85620800  0.08362150  0.79806450  1
  Li  Li3  1  0.85620800  0.41637850  0.70193550  1
  Li  Li4  1  0.10620800  0.33362150  0.45193550  1
  Li  Li5  1  0.10620800  0.16637850  0.04806450  1
  Li  Li6  1  0.35620800  0.08362150  0.29806450  1
  Li  Li7  1  0.35620800  0.41637850  0.20193550  1
  Li  Li8  1  0.10620800  0.83362150  0.95193550  1
  Li  Li9  1  0.10620800  0.66637850  0.54806450  1
  Li  Li10  1  0.35620800  0.58362150  0.79806450  1
  Li  Li11  1  0.35620800  0.91637850  0.70193550  1
  Li  Li12  1  0.60620800  0.83362150  0.45193550  1
  Li  Li13  1  0.60620800  0.66637850  0.04806450  1
  Li  Li14  1  0.85620800  0.58362150  0.29806450  1
  Li  Li15  1  0.85620800  0.91637850  0.20193550  1
  Ga  Ga16  1  0.05038100  0.36535600  0.86515500  1
  Ga  Ga17  1  0.05038100  0.13464400  0.63484500  1
  Ga  Ga18  1  0.30038100  0.11535600  0.88484500  1
  Ga  Ga19  1  0.30038100  0.38464400  0.61515500  1
  Ga  Ga20  1  0.55038100  0.36535600  0.36515500  1
  Ga  Ga21  1  0.55038100  0.13464400  0.13484500  1
  Ga  Ga22  1  0.80038100  0.11535600  0.38484500  1
  Ga  Ga23  1  0.80038100  0.38464400  0.11515500  1
  Ga  Ga24  1  0.55038100  0.86535600  0.86515500  1
  Ga  Ga25  1  0.55038100  0.63464400  0.63484500  1
  Ga  Ga26  1  0.80038100  0.61535600  0.88484500  1
  Ga  Ga27  1  0.80038100  0.88464400  0.61515500  1
  Ga  Ga28  1  0.05038100  0.86535600  0.36515500  1
  Ga  Ga29  1  0.05038100  0.63464400  0.13484500  1
  Ga  Ga30  1  0.30038100  0.61535600  0.38484500  1
  Ga  Ga31  1  0.30038100  0.88464400  0.11515500  1
  Ge  Ge32  1  0.34067900  0.25000000  0.75000000  1
  Ge  Ge33  1  0.09067900  0.00000000  0.50000000  1
  Ge  Ge34  1  0.84067900  0.25000000  0.25000000  1
  Ge  Ge35  1  0.59067900  0.00000000  0.00000000  1
  Ge  Ge36  1  0.84067900  0.75000000  0.75000000  1
  Ge  Ge37  1  0.59067900  0.50000000  0.50000000  1
  Ge  Ge38  1  0.34067900  0.75000000  0.25000000  1
  Ge  Ge39  1  0.09067900  0.50000000  0.00000000  1
  S  S40  1  0.52820650  0.19739500  0.82392250  1
  S  S41  1  0.16372450  0.40004600  0.77195950  1
  S  S42  1  0.27820650  0.05260500  0.57392250  1
  S  S43  1  0.41372450  0.15004600  0.97804050  1
  S  S44  1  0.52820650  0.30260500  0.67607750  1
  S  S45  1  0.74920100  0.43760100  0.86858600  1
  S  S46  1  0.16372450  0.09995400  0.72804050  1
  S  S47  1  0.27820650  0.44739500  0.92607750  1
  S  S48  1  0.41372450  0.34995400  0.52195950  1
  S  S49  1  0.99920100  0.18760100  0.88141400  1
  S  S50  1  0.74920100  0.06239900  0.63141400  1
  S  S51  1  0.99920100  0.31239900  0.61858600  1
  S  S52  1  0.02820650  0.19739500  0.32392250  1
  S  S53  1  0.66372450  0.40004600  0.27195950  1
  S  S54  1  0.77820650  0.05260500  0.07392250  1
  S  S55  1  0.91372450  0.15004600  0.47804050  1
  S  S56  1  0.02820650  0.30260500  0.17607750  1
  S  S57  1  0.24920100  0.43760100  0.36858600  1
  S  S58  1  0.66372450  0.09995400  0.22804050  1
  S  S59  1  0.77820650  0.44739500  0.42607750  1
  S  S60  1  0.91372450  0.34995400  0.02195950  1
  S  S61  1  0.49920100  0.18760100  0.38141400  1
  S  S62  1  0.24920100  0.06239900  0.13141400  1
  S  S63  1  0.49920100  0.31239900  0.11858600  1
  S  S64  1  0.02820650  0.69739500  0.82392250  1
  S  S65  1  0.66372450  0.90004600  0.77195950  1
  S  S66  1  0.77820650  0.55260500  0.57392250  1
  S  S67  1  0.91372450  0.65004600  0.97804050  1
  S  S68  1  0.02820650  0.80260500  0.67607750  1
  S  S69  1  0.24920100  0.93760100  0.86858600  1
  S  S70  1  0.66372450  0.59995400  0.72804050  1
  S  S71  1  0.77820650  0.94739500  0.92607750  1
  S  S72  1  0.91372450  0.84995400  0.52195950  1
  S  S73  1  0.49920100  0.68760100  0.88141400  1
  S  S74  1  0.24920100  0.56239900  0.63141400  1
  S  S75  1  0.49920100  0.81239900  0.61858600  1
  S  S76  1  0.52820650  0.69739500  0.32392250  1
  S  S77  1  0.16372450  0.90004600  0.27195950  1
  S  S78  1  0.27820650  0.55260500  0.07392250  1
  S  S79  1  0.41372450  0.65004600  0.47804050  1
  S  S80  1  0.52820650  0.80260500  0.17607750  1
  S  S81  1  0.74920100  0.93760100  0.36858600  1
  S  S82  1  0.16372450  0.59995400  0.22804050  1
  S  S83  1  0.27820650  0.94739500  0.42607750  1
  S  S84  1  0.41372450  0.84995400  0.02195950  1
  S  S85  1  0.99920100  0.68760100  0.38141400  1
  S  S86  1  0.74920100  0.56239900  0.13141400  1
  S  S87  1  0.99920100  0.81239900  0.11858600  1
