# generated using pymatgen
data_KCa2Nb3O10
_symmetry_space_group_name_H-M   'P 1'
_cell_length_a   7.85488100
_cell_length_b   7.80844300
_cell_length_c   15.19056011
_cell_angle_alpha   90.00000000
_cell_angle_beta   97.00606281
_cell_angle_gamma   90.00000000
_symmetry_Int_Tables_number   1
_chemical_formula_structural   KCa2Nb3O10
_chemical_formula_sum   'K4 Ca8 Nb12 O40'
_cell_volume   924.74694795
_cell_formula_units_Z   4
loop_
 _symmetry_equiv_pos_site_id
 _symmetry_equiv_pos_as_xyz
  1  'x, y, z'
loop_
 _atom_site_type_symbol
 _atom_site_label
 _atom_site_symmetry_multiplicity
 _atom_site_fract_x
 _atom_site_fract_y
 _atom_site_fract_z
 _atom_site_occupancy
  K  K0  1  0.36414100  0.25000000  0.47718200  1
  K  K1  1  0.86939300  0.25000000  0.49043100  1
  K  K2  1  0.13060700  0.75000000  0.50956900  1
  K  K3  1  0.63585900  0.75000000  0.52281800  1
  Ca  Ca4  1  0.20169800  0.25000000  0.85082800  1
  Ca  Ca5  1  0.70740900  0.25000000  0.84200700  1
  Ca  Ca6  1  0.21604500  0.75000000  0.85090100  1
  Ca  Ca7  1  0.79830200  0.75000000  0.14917200  1
  Ca  Ca8  1  0.29259100  0.75000000  0.15799300  1
  Ca  Ca9  1  0.28814000  0.25000000  0.13808200  1
  Ca  Ca10  1  0.78395500  0.25000000  0.14909900  1
  Ca  Ca11  1  0.71186000  0.75000000  0.86191800  1
  Nb  Nb12  1  0.93233100  0.99478400  0.71411900  1
  Nb  Nb13  1  0.06766900  0.49478400  0.28588100  1
  Nb  Nb14  1  0.06766900  0.00521600  0.28588100  1
  Nb  Nb15  1  0.57144300  0.49668200  0.28669200  1
  Nb  Nb16  1  0.42855700  0.99668200  0.71330800  1
  Nb  Nb17  1  0.93233100  0.50521600  0.71411900  1
  Nb  Nb18  1  0.42855700  0.50331800  0.71330800  1
  Nb  Nb19  1  0.50000000  0.00000000  0.00000000  1
  Nb  Nb20  1  0.57144300  0.00331800  0.28669200  1
  Nb  Nb21  1  0.00000000  0.50000000  0.00000000  1
  Nb  Nb22  1  0.50000000  0.50000000  0.00000000  1
  Nb  Nb23  1  0.00000000  0.00000000  0.00000000  1
  O  O24  1  0.31499700  0.98922600  0.26892700  1
  O  O25  1  0.08312700  0.45507300  0.40294700  1
  O  O26  1  0.19063300  0.98771200  0.75484000  1
  O  O27  1  0.49996700  0.46427600  0.87212800  1
  O  O28  1  0.68500300  0.01077400  0.73107300  1
  O  O29  1  0.54725700  0.25000000  0.24192700  1
  O  O30  1  0.19063300  0.51228800  0.75484000  1
  O  O31  1  0.95179500  0.25000000  0.71865300  1
  O  O32  1  0.75283600  0.93319900  0.01103500  1
  O  O33  1  0.24716400  0.43319900  0.98896500  1
  O  O34  1  0.93018300  0.75000000  0.76317500  1
  O  O35  1  0.61161500  0.03313200  0.40482000  1
  O  O36  1  0.31499700  0.51077400  0.26892700  1
  O  O37  1  0.45274300  0.75000000  0.75807300  1
  O  O38  1  0.95612200  0.25000000  0.03147000  1
  O  O39  1  0.58443600  0.75000000  0.27391900  1
  O  O40  1  0.38838500  0.96686800  0.59518000  1
  O  O41  1  0.43648100  0.75000000  0.97457100  1
  O  O42  1  0.61161500  0.46686800  0.40482000  1
  O  O43  1  0.94222000  0.44899000  0.87285200  1
  O  O44  1  0.41556400  0.25000000  0.72608100  1
  O  O45  1  0.49996700  0.03572400  0.87212800  1
  O  O46  1  0.91687300  0.54492700  0.59705300  1
  O  O47  1  0.91687300  0.95507300  0.59705300  1
  O  O48  1  0.80936700  0.48771200  0.24516000  1
  O  O49  1  0.05778000  0.55101000  0.12714800  1
  O  O50  1  0.80936700  0.01228800  0.24516000  1
  O  O51  1  0.04820500  0.75000000  0.28134700  1
  O  O52  1  0.68500300  0.48922600  0.73107300  1
  O  O53  1  0.56351900  0.25000000  0.02542900  1
  O  O54  1  0.50003300  0.53572400  0.12787200  1
  O  O55  1  0.38838500  0.53313200  0.59518000  1
  O  O56  1  0.04387800  0.75000000  0.96853000  1
  O  O57  1  0.24716400  0.06680100  0.98896500  1
  O  O58  1  0.94222000  0.05101000  0.87285200  1
  O  O59  1  0.50003300  0.96427600  0.12787200  1
  O  O60  1  0.05778000  0.94899000  0.12714800  1
  O  O61  1  0.08312700  0.04492700  0.40294700  1
  O  O62  1  0.75283600  0.56680100  0.01103500  1
  O  O63  1  0.06981700  0.25000000  0.23682500  1
