# generated using pymatgen
data_P2O2F3
_symmetry_space_group_name_H-M   'P 1'
_cell_length_a   13.23493618
_cell_length_b   13.23493618
_cell_length_c   9.54030000
_cell_angle_alpha   90.00000000
_cell_angle_beta   90.00000000
_cell_angle_gamma   120.00000000
_symmetry_Int_Tables_number   1
_chemical_formula_structural   P2O2F3
_chemical_formula_sum   'P24 O24 F36'
_cell_volume   1447.22603281
_cell_formula_units_Z   12
loop_
 _symmetry_equiv_pos_site_id
 _symmetry_equiv_pos_as_xyz
  1  'x, y, z'
loop_
 _atom_site_type_symbol
 _atom_site_label
 _atom_site_symmetry_multiplicity
 _atom_site_fract_x
 _atom_site_fract_y
 _atom_site_fract_z
 _atom_site_occupancy
  P  P0  1  0.33333333  0.66666667  0.96695200  1
  P  P1  1  0.88339333  0.43549267  0.35232600  1
  P  P2  1  0.00000000  0.00000000  0.42145900  1
  P  P3  1  0.55120933  0.76305267  0.78574400  1
  P  P4  1  0.93908433  0.78806367  0.09954300  1
  P  P5  1  0.21184333  0.76305267  0.28574400  1
  P  P6  1  0.21184333  0.44879067  0.78574400  1
  P  P7  1  0.88339333  0.44790067  0.85232600  1
  P  P8  1  0.66666667  0.33333333  0.53227200  1
  P  P9  1  0.66666667  0.33333333  0.03227200  1
  P  P10  1  0.93908433  0.15102067  0.59954300  1
  P  P11  1  0.55209933  0.11660667  0.35232600  1
  P  P12  1  0.84897933  0.78806367  0.59954300  1
  P  P13  1  0.55209933  0.43549267  0.85232600  1
  P  P14  1  0.56450733  0.11660667  0.85232600  1
  P  P15  1  0.21193633  0.06091567  0.59954300  1
  P  P16  1  0.21193633  0.15102067  0.09954300  1
  P  P17  1  0.84897933  0.06091567  0.09954300  1
  P  P18  1  0.33333333  0.66666667  0.46695200  1
  P  P19  1  0.55120933  0.78815667  0.28574400  1
  P  P20  1  0.23694733  0.44879067  0.28574400  1
  P  P21  1  0.56450733  0.44790067  0.35232600  1
  P  P22  1  0.00000000  0.00000000  0.92145900  1
  P  P23  1  0.23694733  0.78815667  0.78574400  1
  O  O24  1  0.64407333  0.21318267  0.46902600  1
  O  O25  1  0.56910933  0.35592667  0.46902600  1
  O  O26  1  0.92132033  0.04772267  0.48499300  1
  O  O27  1  0.30243333  0.54393767  0.90410600  1
  O  O28  1  0.78681733  0.35592667  0.96902600  1
  O  O29  1  0.12640233  0.04772267  0.98499300  1
  O  O30  1  0.30243333  0.75849567  0.40410600  1
  O  O31  1  0.24150433  0.54393767  0.40410600  1
  O  O32  1  0.64407333  0.43089067  0.96902600  1
  O  O33  1  0.45606233  0.69756667  0.40410600  1
  O  O34  1  0.92132033  0.87359767  0.98499300  1
  O  O35  1  0.78681733  0.43089067  0.46902600  1
  O  O36  1  0.33333333  0.66666667  0.12173200  1
  O  O37  1  0.45606233  0.75849567  0.90410600  1
  O  O38  1  0.12640233  0.07867967  0.48499300  1
  O  O39  1  0.95227733  0.07867967  0.98499300  1
  O  O40  1  0.00000000  0.00000000  0.76677500  1
  O  O41  1  0.66666667  0.33333333  0.18703900  1
  O  O42  1  0.24150433  0.69756667  0.90410600  1
  O  O43  1  0.33333333  0.66666667  0.62173200  1
  O  O44  1  0.00000000  0.00000000  0.26677500  1
  O  O45  1  0.56910933  0.21318267  0.96902600  1
  O  O46  1  0.66666667  0.33333333  0.68703900  1
  O  O47  1  0.95227733  0.87359767  0.48499300  1
  F  F48  1  0.45122333  0.09956867  0.77039800  1
  F  F49  1  0.82022333  0.74709567  0.18225300  1
  F  F50  1  0.51010533  0.00568667  0.45366500  1
  F  F51  1  0.99431333  0.50441867  0.45366500  1
  F  F52  1  0.92687233  0.17977667  0.18225300  1
  F  F53  1  0.16964233  0.83267167  0.88615400  1
  F  F54  1  0.12394533  0.43218367  0.20479800  1
  F  F55  1  0.66302933  0.83035767  0.88615400  1
  F  F56  1  0.66302933  0.83267167  0.38615400  1
  F  F57  1  0.51010533  0.50441867  0.95366500  1
  F  F58  1  0.32311433  0.10987667  0.49768600  1
  F  F59  1  0.45122333  0.35165467  0.27039800  1
  F  F60  1  0.64834533  0.09956867  0.27039800  1
  F  F61  1  0.89012333  0.21323767  0.49768600  1
  F  F62  1  0.32311433  0.21323767  0.99768600  1
  F  F63  1  0.49558133  0.00568667  0.95366500  1
  F  F64  1  0.49558133  0.48989467  0.45366500  1
  F  F65  1  0.99431333  0.48989467  0.95366500  1
  F  F66  1  0.56781633  0.69176167  0.20479800  1
  F  F67  1  0.89012333  0.67688567  0.99768600  1
  F  F68  1  0.25290433  0.17977667  0.68225300  1
  F  F69  1  0.78676233  0.10987667  0.99768600  1
  F  F70  1  0.16732833  0.33697067  0.88615400  1
  F  F71  1  0.16964233  0.33697067  0.38615400  1
  F  F72  1  0.25290433  0.07312767  0.18225300  1
  F  F73  1  0.92687233  0.74709567  0.68225300  1
  F  F74  1  0.90043133  0.35165467  0.77039800  1
  F  F75  1  0.12394533  0.69176167  0.70479800  1
  F  F76  1  0.16732833  0.83035767  0.38615400  1
  F  F77  1  0.56781633  0.87605467  0.70479800  1
  F  F78  1  0.30823833  0.87605467  0.20479800  1
  F  F79  1  0.64834533  0.54877667  0.77039800  1
  F  F80  1  0.78676233  0.67688567  0.49768600  1
  F  F81  1  0.82022333  0.07312767  0.68225300  1
  F  F82  1  0.90043133  0.54877667  0.27039800  1
  F  F83  1  0.30823833  0.43218367  0.70479800  1
