# generated using pymatgen
data_Cs2Li3GaO4
_symmetry_space_group_name_H-M   'P 1'
_cell_length_a   5.09120600
_cell_length_b   10.12835400
_cell_length_c   12.01804200
_cell_angle_alpha   90.00000000
_cell_angle_beta   90.00000000
_cell_angle_gamma   90.00000000
_symmetry_Int_Tables_number   1
_chemical_formula_structural   Cs2Li3GaO4
_chemical_formula_sum   'Cs8 Li12 Ga4 O16'
_cell_volume   619.71678527
_cell_formula_units_Z   4
loop_
 _symmetry_equiv_pos_site_id
 _symmetry_equiv_pos_as_xyz
  1  'x, y, z'
loop_
 _atom_site_type_symbol
 _atom_site_label
 _atom_site_symmetry_multiplicity
 _atom_site_fract_x
 _atom_site_fract_y
 _atom_site_fract_z
 _atom_site_occupancy
  Cs  Cs0  1  0.23858100  0.37245600  0.00000000  1
  Cs  Cs1  1  0.76141900  0.62754400  0.00000000  1
  Cs  Cs2  1  0.26141900  0.87245600  0.00000000  1
  Cs  Cs3  1  0.73858100  0.12754400  0.00000000  1
  Cs  Cs4  1  0.73858100  0.87245600  0.50000000  1
  Cs  Cs5  1  0.26141900  0.12754400  0.50000000  1
  Cs  Cs6  1  0.76141900  0.37245600  0.50000000  1
  Cs  Cs7  1  0.23858100  0.62754400  0.50000000  1
  Li  Li8  1  0.00000000  0.74026800  0.75000000  1
  Li  Li9  1  0.00000000  0.74026800  0.25000000  1
  Li  Li10  1  0.00000000  0.25973200  0.75000000  1
  Li  Li11  1  0.00000000  0.50000000  0.75000000  1
  Li  Li12  1  0.00000000  0.25973200  0.25000000  1
  Li  Li13  1  0.00000000  0.50000000  0.25000000  1
  Li  Li14  1  0.50000000  0.24026800  0.25000000  1
  Li  Li15  1  0.50000000  0.24026800  0.75000000  1
  Li  Li16  1  0.50000000  0.75973200  0.25000000  1
  Li  Li17  1  0.50000000  0.00000000  0.25000000  1
  Li  Li18  1  0.50000000  0.75973200  0.75000000  1
  Li  Li19  1  0.50000000  0.00000000  0.75000000  1
  Ga  Ga20  1  0.50000000  0.50000000  0.25000000  1
  Ga  Ga21  1  0.50000000  0.50000000  0.75000000  1
  Ga  Ga22  1  0.00000000  0.00000000  0.75000000  1
  Ga  Ga23  1  0.00000000  0.00000000  0.25000000  1
  O  O24  1  0.26783650  0.38251150  0.67580550  1
  O  O25  1  0.73216350  0.38251150  0.82419450  1
  O  O26  1  0.26783650  0.61748850  0.17580550  1
  O  O27  1  0.73216350  0.38251150  0.17580550  1
  O  O28  1  0.73216350  0.61748850  0.32419450  1
  O  O29  1  0.26783650  0.38251150  0.32419450  1
  O  O30  1  0.26783650  0.61748850  0.82419450  1
  O  O31  1  0.73216350  0.61748850  0.67580550  1
  O  O32  1  0.76783650  0.88251150  0.17580550  1
  O  O33  1  0.23216350  0.88251150  0.32419450  1
  O  O34  1  0.76783650  0.11748850  0.67580550  1
  O  O35  1  0.23216350  0.88251150  0.67580550  1
  O  O36  1  0.23216350  0.11748850  0.82419450  1
  O  O37  1  0.76783650  0.88251150  0.82419450  1
  O  O38  1  0.76783650  0.11748850  0.32419450  1
  O  O39  1  0.23216350  0.11748850  0.17580550  1
