# generated using pymatgen
data_LiScO2
_symmetry_space_group_name_H-M   'P 1'
_cell_length_a   4.21514800
_cell_length_b   4.21514800
_cell_length_c   9.39657600
_cell_angle_alpha   90.00000000
_cell_angle_beta   90.00000000
_cell_angle_gamma   90.00000000
_symmetry_Int_Tables_number   1
_chemical_formula_structural   LiScO2
_chemical_formula_sum   'Li4 Sc4 O8'
_cell_volume   166.95340720
_cell_formula_units_Z   4
loop_
 _symmetry_equiv_pos_site_id
 _symmetry_equiv_pos_as_xyz
  1  'x, y, z'
loop_
 _atom_site_type_symbol
 _atom_site_label
 _atom_site_symmetry_multiplicity
 _atom_site_fract_x
 _atom_site_fract_y
 _atom_site_fract_z
 _atom_site_occupancy
  Li  Li0  1  0.00000000  0.00000000  0.00000000  1
  Li  Li1  1  0.00000000  0.50000000  0.25000000  1
  Li  Li2  1  0.50000000  0.50000000  0.50000000  1
  Li  Li3  1  0.50000000  0.00000000  0.75000000  1
  Sc  Sc4  1  0.50000000  0.00000000  0.25000000  1
  Sc  Sc5  1  0.50000000  0.50000000  0.00000000  1
  Sc  Sc6  1  0.00000000  0.50000000  0.75000000  1
  Sc  Sc7  1  0.00000000  0.00000000  0.50000000  1
  O  O8  1  0.00000000  0.00000000  0.27214900  1
  O  O9  1  0.50000000  0.00000000  0.02214900  1
  O  O10  1  0.50000000  0.50000000  0.22785100  1
  O  O11  1  0.50000000  0.00000000  0.47785100  1
  O  O12  1  0.50000000  0.50000000  0.77214900  1
  O  O13  1  0.00000000  0.50000000  0.52214900  1
  O  O14  1  0.00000000  0.00000000  0.72785100  1
  O  O15  1  0.00000000  0.50000000  0.97785100  1
