# generated using pymatgen
data_Ba3Zr2S7
_symmetry_space_group_name_H-M   'P 1'
_cell_length_a   7.14977200
_cell_length_b   25.82738200
_cell_length_c   7.12167000
_cell_angle_alpha   90.00000000
_cell_angle_beta   90.00000000
_cell_angle_gamma   90.00000000
_symmetry_Int_Tables_number   1
_chemical_formula_structural   Ba3Zr2S7
_chemical_formula_sum   'Ba12 Zr8 S28'
_cell_volume   1315.08681774
_cell_formula_units_Z   4
loop_
 _symmetry_equiv_pos_site_id
 _symmetry_equiv_pos_as_xyz
  1  'x, y, z'
loop_
 _atom_site_type_symbol
 _atom_site_label
 _atom_site_symmetry_multiplicity
 _atom_site_fract_x
 _atom_site_fract_y
 _atom_site_fract_z
 _atom_site_occupancy
  Ba  Ba0  1  0.26288000  0.43071400  0.50000000  1
  Ba  Ba1  1  0.23712000  0.06928600  0.50000000  1
  Ba  Ba2  1  0.73712000  0.43071400  0.00000000  1
  Ba  Ba3  1  0.76288000  0.06928600  0.00000000  1
  Ba  Ba4  1  0.75000000  0.25000000  0.00000000  1
  Ba  Ba5  1  0.25000000  0.25000000  0.50000000  1
  Ba  Ba6  1  0.76288000  0.93071400  0.50000000  1
  Ba  Ba7  1  0.73712000  0.56928600  0.50000000  1
  Ba  Ba8  1  0.23712000  0.93071400  0.00000000  1
  Ba  Ba9  1  0.26288000  0.56928600  0.00000000  1
  Ba  Ba10  1  0.25000000  0.75000000  0.00000000  1
  Ba  Ba11  1  0.75000000  0.75000000  0.50000000  1
  Zr  Zr12  1  0.74987700  0.14956700  0.50000000  1
  Zr  Zr13  1  0.24987700  0.35043300  0.00000000  1
  Zr  Zr14  1  0.75012300  0.35043300  0.50000000  1
  Zr  Zr15  1  0.25012300  0.14956700  0.00000000  1
  Zr  Zr16  1  0.24987700  0.64956700  0.50000000  1
  Zr  Zr17  1  0.74987700  0.85043300  0.00000000  1
  Zr  Zr18  1  0.25012300  0.85043300  0.50000000  1
  Zr  Zr19  1  0.75012300  0.64956700  0.00000000  1
  S  S20  1  0.00000000  0.34858400  0.25000000  1
  S  S21  1  0.00000000  0.34858400  0.75000000  1
  S  S22  1  0.75000000  0.25000000  0.50000000  1
  S  S23  1  0.50000000  0.34424100  0.25000000  1
  S  S24  1  0.76629300  0.05174600  0.50000000  1
  S  S25  1  0.50000000  0.15141600  0.75000000  1
  S  S26  1  0.00000000  0.15575900  0.75000000  1
  S  S27  1  0.23370700  0.05174600  0.00000000  1
  S  S28  1  0.25000000  0.25000000  0.00000000  1
  S  S29  1  0.50000000  0.15141600  0.25000000  1
  S  S30  1  0.73370700  0.44825400  0.50000000  1
  S  S31  1  0.50000000  0.34424100  0.75000000  1
  S  S32  1  0.00000000  0.15575900  0.25000000  1
  S  S33  1  0.26629300  0.44825400  0.00000000  1
  S  S34  1  0.50000000  0.84858400  0.25000000  1
  S  S35  1  0.50000000  0.84858400  0.75000000  1
  S  S36  1  0.25000000  0.75000000  0.50000000  1
  S  S37  1  0.00000000  0.84424100  0.25000000  1
  S  S38  1  0.26629300  0.55174600  0.50000000  1
  S  S39  1  0.00000000  0.65141600  0.75000000  1
  S  S40  1  0.50000000  0.65575900  0.75000000  1
  S  S41  1  0.73370700  0.55174600  0.00000000  1
  S  S42  1  0.75000000  0.75000000  0.00000000  1
  S  S43  1  0.00000000  0.65141600  0.25000000  1
  S  S44  1  0.23370700  0.94825400  0.50000000  1
  S  S45  1  0.00000000  0.84424100  0.75000000  1
  S  S46  1  0.50000000  0.65575900  0.25000000  1
  S  S47  1  0.76629300  0.94825400  0.00000000  1
