# generated using pymatgen
data_Rb2AgC3(SN)3
_symmetry_space_group_name_H-M   'P 1'
_cell_length_a   7.97564300
_cell_length_b   16.35561500
_cell_length_c   9.51346744
_cell_angle_alpha   90.00000000
_cell_angle_beta   107.79125010
_cell_angle_gamma   90.00000000
_symmetry_Int_Tables_number   1
_chemical_formula_structural   Rb2AgC3(SN)3
_chemical_formula_sum   'Rb8 Ag4 C12 S12 N12'
_cell_volume   1181.64951774
_cell_formula_units_Z   4
loop_
 _symmetry_equiv_pos_site_id
 _symmetry_equiv_pos_as_xyz
  1  'x, y, z'
loop_
 _atom_site_type_symbol
 _atom_site_label
 _atom_site_symmetry_multiplicity
 _atom_site_fract_x
 _atom_site_fract_y
 _atom_site_fract_z
 _atom_site_occupancy
  Rb  Rb0  1  0.32247200  0.99242000  0.64130600  1
  Rb  Rb1  1  0.95973700  0.84369200  0.80996000  1
  Rb  Rb2  1  0.54026300  0.34369200  0.19004000  1
  Rb  Rb3  1  0.45973700  0.65630800  0.80996000  1
  Rb  Rb4  1  0.67752800  0.00758000  0.35869400  1
  Rb  Rb5  1  0.04026300  0.15630800  0.19004000  1
  Rb  Rb6  1  0.82247200  0.50758000  0.64130600  1
  Rb  Rb7  1  0.17752800  0.49242000  0.35869400  1
  Ag  Ag8  1  0.22878800  0.75891700  0.24541100  1
  Ag  Ag9  1  0.72878800  0.74108300  0.24541100  1
  Ag  Ag10  1  0.77121200  0.24108300  0.75458900  1
  Ag  Ag11  1  0.27121200  0.25891700  0.75458900  1
  C  C12  1  0.49420400  0.84768200  0.94575200  1
  C  C13  1  0.38103300  0.45191000  0.74599200  1
  C  C14  1  0.57271200  0.81291500  0.51587400  1
  C  C15  1  0.88103300  0.04809000  0.74599200  1
  C  C16  1  0.92728800  0.31291500  0.48412600  1
  C  C17  1  0.00579600  0.34768200  0.05424800  1
  C  C18  1  0.42728800  0.18708500  0.48412600  1
  C  C19  1  0.11896700  0.95191000  0.25400800  1
  C  C20  1  0.99420400  0.65231800  0.94575200  1
  C  C21  1  0.61896700  0.54809000  0.25400800  1
  C  C22  1  0.50579600  0.15231800  0.05424800  1
  C  C23  1  0.07271200  0.68708500  0.51587400  1
  S  S24  1  0.95800200  0.22224000  0.56358900  1
  S  S25  1  0.76380900  0.09194300  0.84013100  1
  S  S26  1  0.69012300  0.86058800  0.06636200  1
  S  S27  1  0.04199800  0.77776000  0.43641100  1
  S  S28  1  0.19012300  0.63941200  0.06636200  1
  S  S29  1  0.54199800  0.72224000  0.43641100  1
  S  S30  1  0.73619100  0.59194300  0.15986900  1
  S  S31  1  0.23619100  0.90805700  0.15986900  1
  S  S32  1  0.26380900  0.40805700  0.84013100  1
  S  S33  1  0.80987700  0.36058800  0.93363800  1
  S  S34  1  0.45800200  0.27776000  0.56358900  1
  S  S35  1  0.30987700  0.13941200  0.93363800  1
  N  N36  1  0.14568000  0.33948900  0.14408900  1
  N  N37  1  0.53569500  0.51435400  0.32094900  1
  N  N38  1  0.85432000  0.66051100  0.85591100  1
  N  N39  1  0.35432000  0.83948900  0.85591100  1
  N  N40  1  0.59592600  0.87760500  0.57505600  1
  N  N41  1  0.03569500  0.98564600  0.32094900  1
  N  N42  1  0.96430500  0.01435400  0.67905100  1
  N  N43  1  0.09592600  0.62239500  0.57505600  1
  N  N44  1  0.64568000  0.16051100  0.14408900  1
  N  N45  1  0.90407400  0.37760500  0.42494400  1
  N  N46  1  0.46430500  0.48564600  0.67905100  1
  N  N47  1  0.40407400  0.12239500  0.42494400  1
