# generated using pymatgen
data_BaBiIO2
_symmetry_space_group_name_H-M   'P 1'
_cell_length_a   6.17190400
_cell_length_b   14.53235200
_cell_length_c   5.92634600
_cell_angle_alpha   90.00000000
_cell_angle_beta   90.00000000
_cell_angle_gamma   90.00000000
_symmetry_Int_Tables_number   1
_chemical_formula_structural   BaBiIO2
_chemical_formula_sum   'Ba4 Bi4 I4 O8'
_cell_volume   531.54749333
_cell_formula_units_Z   4
loop_
 _symmetry_equiv_pos_site_id
 _symmetry_equiv_pos_as_xyz
  1  'x, y, z'
loop_
 _atom_site_type_symbol
 _atom_site_label
 _atom_site_symmetry_multiplicity
 _atom_site_fract_x
 _atom_site_fract_y
 _atom_site_fract_z
 _atom_site_occupancy
  Ba  Ba0  1  0.00000000  0.39867800  0.25000000  1
  Ba  Ba1  1  0.50000000  0.10132200  0.75000000  1
  Ba  Ba2  1  0.50000000  0.89867800  0.25000000  1
  Ba  Ba3  1  0.00000000  0.60132200  0.75000000  1
  Bi  Bi4  1  0.50000000  0.43274300  0.75000000  1
  Bi  Bi5  1  0.00000000  0.06725700  0.25000000  1
  Bi  Bi6  1  0.00000000  0.93274300  0.75000000  1
  Bi  Bi7  1  0.50000000  0.56725700  0.25000000  1
  I  I8  1  0.50000000  0.24801000  0.25000000  1
  I  I9  1  0.00000000  0.25199000  0.75000000  1
  I  I10  1  0.00000000  0.74801000  0.25000000  1
  I  I11  1  0.50000000  0.75199000  0.75000000  1
  O  O12  1  0.77643200  0.00000000  0.00000000  1
  O  O13  1  0.22356800  0.00000000  0.00000000  1
  O  O14  1  0.22356800  0.00000000  0.50000000  1
  O  O15  1  0.77643200  0.00000000  0.50000000  1
  O  O16  1  0.27643200  0.50000000  0.00000000  1
  O  O17  1  0.72356800  0.50000000  0.00000000  1
  O  O18  1  0.72356800  0.50000000  0.50000000  1
  O  O19  1  0.27643200  0.50000000  0.50000000  1
