# generated using pymatgen
data_AlS2NCl4
_symmetry_space_group_name_H-M   'P 1'
_cell_length_a   7.58803000
_cell_length_b   10.93618200
_cell_length_c   11.47805700
_cell_angle_alpha   90.00000000
_cell_angle_beta   90.00000000
_cell_angle_gamma   90.00000000
_symmetry_Int_Tables_number   1
_chemical_formula_structural   AlS2NCl4
_chemical_formula_sum   'Al4 S8 N4 Cl16'
_cell_volume   952.49596706
_cell_formula_units_Z   4
loop_
 _symmetry_equiv_pos_site_id
 _symmetry_equiv_pos_as_xyz
  1  'x, y, z'
loop_
 _atom_site_type_symbol
 _atom_site_label
 _atom_site_symmetry_multiplicity
 _atom_site_fract_x
 _atom_site_fract_y
 _atom_site_fract_z
 _atom_site_occupancy
  Al  Al0  1  0.75000000  0.79927100  0.39280900  1
  Al  Al1  1  0.25000000  0.29927100  0.10719100  1
  Al  Al2  1  0.25000000  0.20072900  0.60719100  1
  Al  Al3  1  0.75000000  0.70072900  0.89280900  1
  S  S4  1  0.25000000  0.83895700  0.62716800  1
  S  S5  1  0.25000000  0.56726300  0.66298900  1
  S  S6  1  0.75000000  0.43273700  0.33701100  1
  S  S7  1  0.75000000  0.06726300  0.83701100  1
  S  S8  1  0.25000000  0.66104300  0.12716800  1
  S  S9  1  0.75000000  0.33895700  0.87283200  1
  S  S10  1  0.25000000  0.93273700  0.16298900  1
  S  S11  1  0.75000000  0.16104300  0.37283200  1
  N  N12  1  0.75000000  0.20341400  0.85400300  1
  N  N13  1  0.25000000  0.70341400  0.64599700  1
  N  N14  1  0.25000000  0.79658600  0.14599700  1
  N  N15  1  0.75000000  0.29658600  0.35400300  1
  Cl  Cl16  1  0.02016300  0.31703200  0.60738800  1
  Cl  Cl17  1  0.25000000  0.41931900  0.95768700  1
  Cl  Cl18  1  0.25000000  0.08824300  0.76216000  1
  Cl  Cl19  1  0.52016300  0.81703200  0.89261200  1
  Cl  Cl20  1  0.75000000  0.91175700  0.23784000  1
  Cl  Cl21  1  0.52016300  0.68296800  0.39261200  1
  Cl  Cl22  1  0.25000000  0.41175700  0.26216000  1
  Cl  Cl23  1  0.25000000  0.08068100  0.45768700  1
  Cl  Cl24  1  0.75000000  0.58068100  0.04231300  1
  Cl  Cl25  1  0.02016300  0.18296800  0.10738800  1
  Cl  Cl26  1  0.47983700  0.18296800  0.10738800  1
  Cl  Cl27  1  0.75000000  0.91931900  0.54231300  1
  Cl  Cl28  1  0.97983700  0.68296800  0.39261200  1
  Cl  Cl29  1  0.75000000  0.58824300  0.73784000  1
  Cl  Cl30  1  0.47983700  0.31703200  0.60738800  1
  Cl  Cl31  1  0.97983700  0.81703200  0.89261200  1
