# generated using pymatgen
data_Na2Ti6O13
_symmetry_space_group_name_H-M   'P 1'
_cell_length_a   15.27570800
_cell_length_b   3.76050000
_cell_length_c   9.29199192
_cell_angle_alpha   90.00000000
_cell_angle_beta   99.05643006
_cell_angle_gamma   90.00000000
_symmetry_Int_Tables_number   1
_chemical_formula_structural   Na2Ti6O13
_chemical_formula_sum   'Na4 Ti12 O26'
_cell_volume   527.11785751
_cell_formula_units_Z   2
loop_
 _symmetry_equiv_pos_site_id
 _symmetry_equiv_pos_as_xyz
  1  'x, y, z'
loop_
 _atom_site_type_symbol
 _atom_site_label
 _atom_site_symmetry_multiplicity
 _atom_site_fract_x
 _atom_site_fract_y
 _atom_site_fract_z
 _atom_site_occupancy
  Na  Na0  1  0.53744600  0.00000000  0.73030400  1
  Na  Na1  1  0.96255400  0.50000000  0.26969600  1
  Na  Na2  1  0.03744600  0.50000000  0.73030400  1
  Na  Na3  1  0.46255400  0.00000000  0.26969600  1
  Ti  Ti4  1  0.66581300  0.50000000  0.43530400  1
  Ti  Ti5  1  0.83418700  0.00000000  0.56469600  1
  Ti  Ti6  1  0.61479700  0.50000000  0.09518100  1
  Ti  Ti7  1  0.88520300  0.00000000  0.90481900  1
  Ti  Ti8  1  0.77313600  0.00000000  0.23045400  1
  Ti  Ti9  1  0.72686400  0.50000000  0.76954600  1
  Ti  Ti10  1  0.16581300  0.00000000  0.43530400  1
  Ti  Ti11  1  0.33418700  0.50000000  0.56469600  1
  Ti  Ti12  1  0.11479700  0.00000000  0.09518100  1
  Ti  Ti13  1  0.38520300  0.50000000  0.90481900  1
  Ti  Ti14  1  0.27313600  0.50000000  0.23045400  1
  Ti  Ti15  1  0.22686400  0.00000000  0.76954600  1
  O  O16  1  0.66238300  0.50000000  0.91219100  1
  O  O17  1  0.83761700  0.00000000  0.08780900  1
  O  O18  1  0.85589200  0.50000000  0.88249300  1
  O  O19  1  0.64410800  0.00000000  0.11750700  1
  O  O20  1  0.62644700  0.50000000  0.61376900  1
  O  O21  1  0.87355300  0.00000000  0.38623100  1
  O  O22  1  0.79759800  0.50000000  0.57095400  1
  O  O23  1  0.70240200  0.00000000  0.42904600  1
  O  O24  1  0.00000000  0.00000000  0.00000000  1
  O  O25  1  0.75931400  0.00000000  0.75410200  1
  O  O26  1  0.74068600  0.50000000  0.24589800  1
  O  O27  1  0.92992200  0.00000000  0.70803400  1
  O  O28  1  0.57007800  0.50000000  0.29196600  1
  O  O29  1  0.16238300  0.00000000  0.91219100  1
  O  O30  1  0.33761700  0.50000000  0.08780900  1
  O  O31  1  0.35589200  0.00000000  0.88249300  1
  O  O32  1  0.14410800  0.50000000  0.11750700  1
  O  O33  1  0.12644700  0.00000000  0.61376900  1
  O  O34  1  0.37355300  0.50000000  0.38623100  1
  O  O35  1  0.29759800  0.00000000  0.57095400  1
  O  O36  1  0.20240200  0.50000000  0.42904600  1
  O  O37  1  0.50000000  0.50000000  0.00000000  1
  O  O38  1  0.25931400  0.50000000  0.75410200  1
  O  O39  1  0.24068600  0.00000000  0.24589800  1
  O  O40  1  0.42992200  0.50000000  0.70803400  1
  O  O41  1  0.07007800  0.00000000  0.29196600  1
