# generated using pymatgen
data_Na2SrAl4(SiO4)4
_symmetry_space_group_name_H-M   'P 1'
_cell_length_a   8.55653400
_cell_length_b   9.96797600
_cell_length_c   16.92609600
_cell_angle_alpha   90.00000000
_cell_angle_beta   90.00000000
_cell_angle_gamma   90.00000000
_symmetry_Int_Tables_number   1
_chemical_formula_structural   Na2SrAl4(SiO4)4
_chemical_formula_sum   'Na8 Sr4 Al16 Si16 O64'
_cell_volume   1443.64916431
_cell_formula_units_Z   4
loop_
 _symmetry_equiv_pos_site_id
 _symmetry_equiv_pos_as_xyz
  1  'x, y, z'
loop_
 _atom_site_type_symbol
 _atom_site_label
 _atom_site_symmetry_multiplicity
 _atom_site_fract_x
 _atom_site_fract_y
 _atom_site_fract_z
 _atom_site_occupancy
  Na  Na0  1  0.54188700  0.67574700  0.09534100  1
  Na  Na1  1  0.04188700  0.82425300  0.09534100  1
  Na  Na2  1  0.95811300  0.17574700  0.09534100  1
  Na  Na3  1  0.45811300  0.32425300  0.09534100  1
  Na  Na4  1  0.04188700  0.17574700  0.59534100  1
  Na  Na5  1  0.54188700  0.32425300  0.59534100  1
  Na  Na6  1  0.45811300  0.67574700  0.59534100  1
  Na  Na7  1  0.95811300  0.82425300  0.59534100  1
  Sr  Sr8  1  0.00000000  0.00000000  0.34596900  1
  Sr  Sr9  1  0.50000000  0.50000000  0.34596900  1
  Sr  Sr10  1  0.50000000  0.50000000  0.84596900  1
  Sr  Sr11  1  0.00000000  0.00000000  0.84596900  1
  Al  Al12  1  0.56930450  0.80900750  0.43660550  1
  Al  Al13  1  0.72258900  0.94982900  0.18937000  1
  Al  Al14  1  0.06930450  0.69099250  0.43660550  1
  Al  Al15  1  0.22258900  0.55017100  0.18937000  1
  Al  Al16  1  0.77741100  0.44982900  0.18937000  1
  Al  Al17  1  0.27741100  0.05017100  0.18937000  1
  Al  Al18  1  0.43069550  0.19099250  0.43660550  1
  Al  Al19  1  0.93069550  0.30900750  0.43660550  1
  Al  Al20  1  0.06930450  0.30900750  0.93660550  1
  Al  Al21  1  0.22258900  0.44982900  0.68937000  1
  Al  Al22  1  0.56930450  0.19099250  0.93660550  1
  Al  Al23  1  0.72258900  0.05017100  0.68937000  1
  Al  Al24  1  0.27741100  0.94982900  0.68937000  1
  Al  Al25  1  0.77741100  0.55017100  0.68937000  1
  Al  Al26  1  0.93069550  0.69099250  0.93660550  1
  Al  Al27  1  0.43069550  0.80900750  0.93660550  1
  Si  Si28  1  0.23642050  0.55478250  0.00172550  1
  Si  Si29  1  0.26357950  0.05478250  0.00172550  1
  Si  Si30  1  0.73642050  0.94521750  0.00172550  1
  Si  Si31  1  0.76357950  0.44521750  0.00172550  1
  Si  Si32  1  0.92418900  0.69888500  0.25424900  1
  Si  Si33  1  0.07581100  0.30111500  0.25424900  1
  Si  Si34  1  0.42418900  0.80111500  0.25424900  1
  Si  Si35  1  0.57581100  0.19888500  0.25424900  1
  Si  Si36  1  0.73642050  0.05478250  0.50172550  1
  Si  Si37  1  0.76357950  0.55478250  0.50172550  1
  Si  Si38  1  0.23642050  0.44521750  0.50172550  1
  Si  Si39  1  0.26357950  0.94521750  0.50172550  1
  Si  Si40  1  0.42418900  0.19888500  0.75424900  1
  Si  Si41  1  0.57581100  0.80111500  0.75424900  1
  Si  Si42  1  0.92418900  0.30111500  0.75424900  1
  Si  Si43  1  0.07581100  0.69888500  0.75424900  1
  O  O44  1  0.37844200  0.64666700  0.22807900  1
  O  O45  1  0.62155800  0.35333300  0.22807900  1
  O  O46  1  0.28435950  0.50910150  0.09217350  1
  O  O47  1  0.77667700  0.59331800  0.25116100  1
  O  O48  1  0.87844200  0.85333300  0.22807900  1
  O  O49  1  0.72332300  0.09331800  0.25116100  1
  O  O50  1  0.05280750  0.64755650  0.18925950  1
  O  O51  1  0.00249400  0.28279200  0.34195000  1
  O  O52  1  0.50249400  0.21720800  0.34195000  1
  O  O53  1  0.99750600  0.71720800  0.34195000  1
  O  O54  1  0.94719250  0.35244350  0.18925950  1
  O  O55  1  0.11590700  0.85641200  0.46739400  1
  O  O56  1  0.78435950  0.99089850  0.09217350  1
  O  O57  1  0.92206000  0.35561900  0.00367300  1
  O  O58  1  0.27425050  0.07599050  0.44298350  1
  O  O59  1  0.38409300  0.35641200  0.46739400  1
  O  O60  1  0.27667700  0.90668200  0.25116100  1
  O  O61  1  0.88409300  0.14358800  0.46739400  1
  O  O62  1  0.77425050  0.42400950  0.44298350  1
  O  O63  1  0.55280750  0.85244350  0.18925950  1
  O  O64  1  0.44719250  0.14755650  0.18925950  1
  O  O65  1  0.57794000  0.85561900  0.00367300  1
  O  O66  1  0.42206000  0.14438100  0.00367300  1
  O  O67  1  0.12155800  0.14666700  0.22807900  1
  O  O68  1  0.49750600  0.78279200  0.34195000  1
  O  O69  1  0.22332300  0.40668200  0.25116100  1
  O  O70  1  0.61590700  0.64358800  0.46739400  1
  O  O71  1  0.21564050  0.00910150  0.09217350  1
  O  O72  1  0.71564050  0.49089850  0.09217350  1
  O  O73  1  0.07794000  0.64438100  0.00367300  1
  O  O74  1  0.22574950  0.57599050  0.44298350  1
  O  O75  1  0.72574950  0.92400950  0.44298350  1
  O  O76  1  0.87844200  0.14666700  0.72807900  1
  O  O77  1  0.12155800  0.85333300  0.72807900  1
  O  O78  1  0.78435950  0.00910150  0.59217350  1
  O  O79  1  0.27667700  0.09331800  0.75116100  1
  O  O80  1  0.37844200  0.35333300  0.72807900  1
  O  O81  1  0.22332300  0.59331800  0.75116100  1
  O  O82  1  0.55280750  0.14755650  0.68925950  1
  O  O83  1  0.50249400  0.78279200  0.84195000  1
  O  O84  1  0.00249400  0.71720800  0.84195000  1
  O  O85  1  0.49750600  0.21720800  0.84195000  1
  O  O86  1  0.44719250  0.85244350  0.68925950  1
  O  O87  1  0.61590700  0.35641200  0.96739400  1
  O  O88  1  0.28435950  0.49089850  0.59217350  1
  O  O89  1  0.42206000  0.85561900  0.50367300  1
  O  O90  1  0.77425050  0.57599050  0.94298350  1
  O  O91  1  0.88409300  0.85641200  0.96739400  1
  O  O92  1  0.77667700  0.40668200  0.75116100  1
  O  O93  1  0.38409300  0.64358800  0.96739400  1
  O  O94  1  0.27425050  0.92400950  0.94298350  1
  O  O95  1  0.05280750  0.35244350  0.68925950  1
  O  O96  1  0.94719250  0.64755650  0.68925950  1
  O  O97  1  0.07794000  0.35561900  0.50367300  1
  O  O98  1  0.92206000  0.64438100  0.50367300  1
  O  O99  1  0.62155800  0.64666700  0.72807900  1
  O  O100  1  0.99750600  0.28279200  0.84195000  1
  O  O101  1  0.72332300  0.90668200  0.75116100  1
  O  O102  1  0.11590700  0.14358800  0.96739400  1
  O  O103  1  0.71564050  0.50910150  0.59217350  1
  O  O104  1  0.21564050  0.99089850  0.59217350  1
  O  O105  1  0.57794000  0.14438100  0.50367300  1
  O  O106  1  0.72574950  0.07599050  0.94298350  1
  O  O107  1  0.22574950  0.42400950  0.94298350  1
