# generated using pymatgen
data_K2NaCo(CN)6
_symmetry_space_group_name_H-M   'P 1'
_cell_length_a   7.10452200
_cell_length_b   7.60428300
_cell_length_c   12.52555586
_cell_angle_alpha   90.00000000
_cell_angle_beta   123.82697277
_cell_angle_gamma   90.00000000
_symmetry_Int_Tables_number   1
_chemical_formula_structural   K2NaCo(CN)6
_chemical_formula_sum   'K4 Na2 Co2 C12 N12'
_cell_volume   562.14210148
_cell_formula_units_Z   2
loop_
 _symmetry_equiv_pos_site_id
 _symmetry_equiv_pos_as_xyz
  1  'x, y, z'
loop_
 _atom_site_type_symbol
 _atom_site_label
 _atom_site_symmetry_multiplicity
 _atom_site_fract_x
 _atom_site_fract_y
 _atom_site_fract_z
 _atom_site_occupancy
  K  K0  1  0.77767600  0.57736600  0.25213100  1
  K  K1  1  0.22232400  0.42263400  0.74786900  1
  K  K2  1  0.22232400  0.07736600  0.24786900  1
  K  K3  1  0.77767600  0.92263400  0.75213100  1
  Na  Na4  1  0.00000000  0.00000000  0.50000000  1
  Na  Na5  1  0.00000000  0.50000000  0.00000000  1
  Co  Co6  1  0.50000000  0.00000000  0.00000000  1
  Co  Co7  1  0.50000000  0.50000000  0.50000000  1
  C  C8  1  0.58591400  0.97265200  0.17019900  1
  C  C9  1  0.24542000  0.37054600  0.46266900  1
  C  C10  1  0.67219100  0.29276400  0.54705800  1
  C  C11  1  0.32780900  0.70723600  0.45294200  1
  C  C12  1  0.67219100  0.20723600  0.04705800  1
  C  C13  1  0.24542000  0.12945400  0.96266900  1
  C  C14  1  0.41408600  0.47265200  0.32980100  1
  C  C15  1  0.41408600  0.02734800  0.82980100  1
  C  C16  1  0.32780900  0.79276400  0.95294200  1
  C  C17  1  0.75458000  0.87054600  0.03733100  1
  C  C18  1  0.75458000  0.62945400  0.53733100  1
  C  C19  1  0.58591400  0.52734800  0.67019900  1
  N  N20  1  0.35822400  0.04705700  0.72285400  1
  N  N21  1  0.35822400  0.45294300  0.22285400  1
  N  N22  1  0.08392100  0.20960100  0.93724600  1
  N  N23  1  0.64177600  0.95294300  0.27714600  1
  N  N24  1  0.08392100  0.29039900  0.43724600  1
  N  N25  1  0.78358000  0.33514200  0.07732500  1
  N  N26  1  0.91607900  0.70960100  0.56275400  1
  N  N27  1  0.91607900  0.79039900  0.06275400  1
  N  N28  1  0.21642000  0.66485800  0.92267500  1
  N  N29  1  0.64177600  0.54705700  0.77714600  1
  N  N30  1  0.78358000  0.16485800  0.57732500  1
  N  N31  1  0.21642000  0.83514200  0.42267500  1
