# generated using pymatgen
data_Na4TiAs2O9
_symmetry_space_group_name_H-M   'P 1'
_cell_length_a   16.11779600
_cell_length_b   7.26574800
_cell_length_c   7.85794001
_cell_angle_alpha   90.00000000
_cell_angle_beta   90.25693699
_cell_angle_gamma   90.00000000
_symmetry_Int_Tables_number   1
_chemical_formula_structural   Na4TiAs2O9
_chemical_formula_sum   'Na16 Ti4 As8 O36'
_cell_volume   920.21716057
_cell_formula_units_Z   4
loop_
 _symmetry_equiv_pos_site_id
 _symmetry_equiv_pos_as_xyz
  1  'x, y, z'
loop_
 _atom_site_type_symbol
 _atom_site_label
 _atom_site_symmetry_multiplicity
 _atom_site_fract_x
 _atom_site_fract_y
 _atom_site_fract_z
 _atom_site_occupancy
  Na  Na0  1  0.00000000  0.25495400  0.00000000  1
  Na  Na1  1  0.87422300  0.50000000  0.27869600  1
  Na  Na2  1  0.60714600  0.50000000  0.23838500  1
  Na  Na3  1  0.89285400  0.00000000  0.76161500  1
  Na  Na4  1  0.75000000  0.75000000  0.50000000  1
  Na  Na5  1  0.00000000  0.74504600  0.00000000  1
  Na  Na6  1  0.62577700  0.00000000  0.72130400  1
  Na  Na7  1  0.75000000  0.25000000  0.50000000  1
  Na  Na8  1  0.50000000  0.75495400  0.00000000  1
  Na  Na9  1  0.37422300  0.00000000  0.27869600  1
  Na  Na10  1  0.10714600  0.00000000  0.23838500  1
  Na  Na11  1  0.39285400  0.50000000  0.76161500  1
  Na  Na12  1  0.25000000  0.25000000  0.50000000  1
  Na  Na13  1  0.50000000  0.24504600  0.00000000  1
  Na  Na14  1  0.12577700  0.50000000  0.72130400  1
  Na  Na15  1  0.25000000  0.75000000  0.50000000  1
  Ti  Ti16  1  0.75000000  0.25000000  0.00000000  1
  Ti  Ti17  1  0.75000000  0.75000000  0.00000000  1
  Ti  Ti18  1  0.25000000  0.75000000  0.00000000  1
  Ti  Ti19  1  0.25000000  0.25000000  0.00000000  1
  As  As20  1  0.87051400  0.00000000  0.27646800  1
  As  As21  1  0.61230500  0.00000000  0.24013900  1
  As  As22  1  0.62948600  0.50000000  0.72353200  1
  As  As23  1  0.88769500  0.50000000  0.75986100  1
  As  As24  1  0.37051400  0.50000000  0.27646800  1
  As  As25  1  0.11230500  0.50000000  0.24013900  1
  As  As26  1  0.12948600  0.00000000  0.72353200  1
  As  As27  1  0.38769500  0.00000000  0.75986100  1
  O  O28  1  0.64359350  0.80211750  0.12915500  1
  O  O29  1  0.99232500  0.50000000  0.78399300  1
  O  O30  1  0.85640650  0.69788250  0.87084500  1
  O  O31  1  0.85914200  0.00000000  0.49040600  1
  O  O32  1  0.81773850  0.80022450  0.21091300  1
  O  O33  1  0.81773850  0.19977550  0.21091300  1
  O  O34  1  0.85640650  0.30211750  0.87084500  1
  O  O35  1  0.53457600  0.50000000  0.81693400  1
  O  O36  1  0.64359350  0.19788250  0.12915500  1
  O  O37  1  0.75816400  0.00000000  0.92980200  1
  O  O38  1  0.68226150  0.30022450  0.78908700  1
  O  O39  1  0.74183600  0.50000000  0.07019800  1
  O  O40  1  0.64085800  0.50000000  0.50959400  1
  O  O41  1  0.50767500  0.00000000  0.21600700  1
  O  O42  1  0.68226150  0.69977550  0.78908700  1
  O  O43  1  0.84396300  0.50000000  0.56313100  1
  O  O44  1  0.96542400  0.00000000  0.18306600  1
  O  O45  1  0.65603700  0.00000000  0.43686900  1
  O  O46  1  0.14359350  0.30211750  0.12915500  1
  O  O47  1  0.49232500  0.00000000  0.78399300  1
  O  O48  1  0.35640650  0.19788250  0.87084500  1
  O  O49  1  0.35914200  0.50000000  0.49040600  1
  O  O50  1  0.31773850  0.30022450  0.21091300  1
  O  O51  1  0.31773850  0.69977550  0.21091300  1
  O  O52  1  0.35640650  0.80211750  0.87084500  1
  O  O53  1  0.03457600  0.00000000  0.81693400  1
  O  O54  1  0.14359350  0.69788250  0.12915500  1
  O  O55  1  0.25816400  0.50000000  0.92980200  1
  O  O56  1  0.18226150  0.80022450  0.78908700  1
  O  O57  1  0.24183600  0.00000000  0.07019800  1
  O  O58  1  0.14085800  0.00000000  0.50959400  1
  O  O59  1  0.00767500  0.50000000  0.21600700  1
  O  O60  1  0.18226150  0.19977550  0.78908700  1
  O  O61  1  0.34396300  0.00000000  0.56313100  1
  O  O62  1  0.46542400  0.50000000  0.18306600  1
  O  O63  1  0.15603700  0.50000000  0.43686900  1
