# generated using pymatgen
data_Cs3Y2Br9
_symmetry_space_group_name_H-M   'P 1'
_cell_length_a   13.99977453
_cell_length_b   13.99977453
_cell_length_c   20.10090592
_cell_angle_alpha   90.00000000
_cell_angle_beta   90.00000000
_cell_angle_gamma   120.00000000
_symmetry_Int_Tables_number   1
_chemical_formula_structural   Cs3Y2Br9
_chemical_formula_sum   'Cs18 Y12 Br54'
_cell_volume   3411.83755485
_cell_formula_units_Z   6
loop_
 _symmetry_equiv_pos_site_id
 _symmetry_equiv_pos_as_xyz
  1  'x, y, z'
loop_
 _atom_site_type_symbol
 _atom_site_label
 _atom_site_symmetry_multiplicity
 _atom_site_fract_x
 _atom_site_fract_y
 _atom_site_fract_z
 _atom_site_occupancy
  Cs  Cs0  1  0.66666667  0.99365433  0.08333333  1
  Cs  Cs1  1  0.32698767  0.33333333  0.08333333  1
  Cs  Cs2  1  0.33967900  0.00000000  0.25000000  1
  Cs  Cs3  1  0.00634567  0.67301233  0.08333333  1
  Cs  Cs4  1  0.00000000  0.33967900  0.25000000  1
  Cs  Cs5  1  0.66032100  0.66032100  0.25000000  1
  Cs  Cs6  1  0.33333333  0.32698767  0.41666667  1
  Cs  Cs7  1  0.99365433  0.66666667  0.41666667  1
  Cs  Cs8  1  0.00634567  0.33333333  0.58333333  1
  Cs  Cs9  1  0.67301233  0.00634567  0.41666667  1
  Cs  Cs10  1  0.66666667  0.67301233  0.58333333  1
  Cs  Cs11  1  0.32698767  0.99365433  0.58333333  1
  Cs  Cs12  1  0.00000000  0.66032100  0.75000000  1
  Cs  Cs13  1  0.66032100  0.00000000  0.75000000  1
  Cs  Cs14  1  0.67301233  0.66666667  0.91666667  1
  Cs  Cs15  1  0.33967900  0.33967900  0.75000000  1
  Cs  Cs16  1  0.33333333  0.00634567  0.91666667  1
  Cs  Cs17  1  0.99365433  0.32698767  0.91666667  1
  Y  Y18  1  0.33333333  0.66666667  0.01479767  1
  Y  Y19  1  0.33333333  0.66666667  0.31853567  1
  Y  Y20  1  0.33333333  0.66666667  0.51479767  1
  Y  Y21  1  0.33333333  0.66666667  0.81853567  1
  Y  Y22  1  0.00000000  0.00000000  0.34813100  1
  Y  Y23  1  0.00000000  0.00000000  0.65186900  1
  Y  Y24  1  0.00000000  0.00000000  0.84813100  1
  Y  Y25  1  1.00000000  0.00000000  0.15186900  1
  Y  Y26  1  0.66666667  0.33333333  0.68146433  1
  Y  Y27  1  0.66666667  0.33333333  0.98520233  1
  Y  Y28  1  0.66666667  0.33333333  0.18146433  1
  Y  Y29  1  0.66666667  0.33333333  0.48520233  1
  Br  Br30  1  0.83128333  0.82406767  0.08872267  1
  Br  Br31  1  0.83538333  0.50926567  0.24461067  1
  Br  Br32  1  0.17949633  0.51282967  0.41666667  1
  Br  Br33  1  0.67388233  0.16461667  0.24461067  1
  Br  Br34  1  0.33333333  0.82050367  0.41666667  1
  Br  Br35  1  0.50205000  0.65945100  0.07794400  1
  Br  Br36  1  0.17949633  0.66666667  0.91666667  1
  Br  Br37  1  0.99278433  0.16871667  0.08872267  1
  Br  Br38  1  0.16461667  0.67388233  0.25538933  1
  Br  Br39  1  0.17593233  0.00721567  0.08872267  1
  Br  Br40  1  0.49073433  0.32611767  0.24461067  1
  Br  Br41  1  0.50926567  0.83538333  0.25538933  1
  Br  Br42  1  0.34054900  0.84259900  0.07794400  1
  Br  Br43  1  0.48717033  0.66666667  0.41666667  1
  Br  Br44  1  0.48717033  0.82050367  0.91666667  1
  Br  Br45  1  0.32611767  0.49073433  0.25538933  1
  Br  Br46  1  0.33333333  0.51282967  0.91666667  1
  Br  Br47  1  0.15740100  0.49795000  0.07794400  1
  Br  Br48  1  0.49795000  0.15740100  0.42205600  1
  Br  Br49  1  0.50205000  0.84259900  0.57794400  1
  Br  Br50  1  0.84616300  0.84616300  0.75000000  1
  Br  Br51  1  0.34054900  0.49795000  0.57794400  1
  Br  Br52  1  0.00000000  0.15383700  0.75000000  1
  Br  Br53  1  0.16871667  0.99278433  0.41127733  1
  Br  Br54  1  0.84616300  0.00000000  0.25000000  1
  Br  Br55  1  0.65945100  0.50205000  0.42205600  1
  Br  Br56  1  0.83128333  0.00721567  0.58872267  1
  Br  Br57  1  0.84259900  0.34054900  0.42205600  1
  Br  Br58  1  0.15740100  0.65945100  0.57794400  1
  Br  Br59  1  0.17593233  0.16871667  0.58872267  1
  Br  Br60  1  0.00721567  0.17593233  0.41127733  1
  Br  Br61  1  0.15383700  0.00000000  0.75000000  1
  Br  Br62  1  0.15383700  0.15383700  0.25000000  1
  Br  Br63  1  0.99278433  0.82406767  0.58872267  1
  Br  Br64  1  0.00000000  0.84616300  0.25000000  1
  Br  Br65  1  0.82406767  0.83128333  0.41127733  1
  Br  Br66  1  0.16461667  0.49073433  0.75538933  1
  Br  Br67  1  0.16871667  0.17593233  0.91127733  1
  Br  Br68  1  0.51282967  0.17949633  0.08333333  1
  Br  Br69  1  0.00721567  0.83128333  0.91127733  1
  Br  Br70  1  0.66666667  0.48717033  0.08333333  1
  Br  Br71  1  0.83538333  0.32611767  0.74461067  1
  Br  Br72  1  0.51282967  0.33333333  0.58333333  1
  Br  Br73  1  0.32611767  0.83538333  0.75538933  1
  Br  Br74  1  0.49795000  0.34054900  0.92205600  1
  Br  Br75  1  0.50926567  0.67388233  0.75538933  1
  Br  Br76  1  0.82406767  0.99278433  0.91127733  1
  Br  Br77  1  0.84259900  0.50205000  0.92205600  1
  Br  Br78  1  0.67388233  0.50926567  0.74461067  1
  Br  Br79  1  0.82050367  0.33333333  0.08333333  1
  Br  Br80  1  0.82050367  0.48717033  0.58333333  1
  Br  Br81  1  0.65945100  0.15740100  0.92205600  1
  Br  Br82  1  0.66666667  0.17949633  0.58333333  1
  Br  Br83  1  0.49073433  0.16461667  0.74461067  1
