# generated using pymatgen
data_Na26In4O19
_symmetry_space_group_name_H-M   'P 1'
_cell_length_a   14.50768600
_cell_length_b   20.32906000
_cell_length_c   12.48168558
_cell_angle_alpha   90.00000000
_cell_angle_beta   125.21580986
_cell_angle_gamma   90.00000000
_symmetry_Int_Tables_number   1
_chemical_formula_structural   Na26In4O19
_chemical_formula_sum   'Na104 In16 O76'
_cell_volume   3007.48310647
_cell_formula_units_Z   4
loop_
 _symmetry_equiv_pos_site_id
 _symmetry_equiv_pos_as_xyz
  1  'x, y, z'
loop_
 _atom_site_type_symbol
 _atom_site_label
 _atom_site_symmetry_multiplicity
 _atom_site_fract_x
 _atom_site_fract_y
 _atom_site_fract_z
 _atom_site_occupancy
  Na  Na0  1  0.62872100  0.18564500  0.85782900  1
  Na  Na1  1  0.43884450  0.12051650  0.64869000  1
  Na  Na2  1  0.63117050  0.22156750  0.17403400  1
  Na  Na3  1  0.51859250  0.16032350  0.41103700  1
  Na  Na4  1  0.35537150  0.90973150  0.59194900  1
  Na  Na5  1  0.25695650  0.87417150  0.75716700  1
  Na  Na6  1  0.36754900  0.22201700  0.45815900  1
  Na  Na7  1  0.55082550  0.09339450  0.08634600  1
  Na  Na8  1  0.33921050  0.02254950  0.44596400  1
  Na  Na9  1  0.14098150  0.96338150  0.51841100  1
  Na  Na10  1  0.63193100  0.28296100  0.53907800  1
  Na  Na11  1  0.22363000  0.82654400  0.36931600  1
  Na  Na12  1  0.35537150  0.09026850  0.09194900  1
  Na  Na13  1  0.25125800  0.93265600  0.22871700  1
  Na  Na14  1  0.53511550  0.29414150  0.68473100  1
  Na  Na15  1  0.43230550  0.18739250  0.87498200  1
  Na  Na16  1  0.25695650  0.12582850  0.25716700  1
  Na  Na17  1  0.33921050  0.97745050  0.94596400  1
  Na  Na18  1  0.10286800  0.04992000  0.30138300  1
  Na  Na19  1  0.14098150  0.03661850  0.01841100  1
  Na  Na20  1  0.22363000  0.17345600  0.86931600  1
  Na  Na21  1  0.63193100  0.71703900  0.03907800  1
  Na  Na22  1  0.53511550  0.70585850  0.18473100  1
  Na  Na23  1  0.25125800  0.06734400  0.72871700  1
  Na  Na24  1  0.52714300  0.42792800  0.16368100  1
  Na  Na25  1  0.90182550  0.04218350  0.31635500  1
  Na  Na26  1  0.10286800  0.95008000  0.80138300  1
  Na  Na27  1  0.76335050  0.82088050  0.25603200  1
  Na  Na28  1  0.42432250  0.33687350  0.93845100  1
  Na  Na29  1  0.82003450  0.93362050  0.13465200  1
  Na  Na30  1  0.52714300  0.57207200  0.66368100  1
  Na  Na31  1  0.90182550  0.95781650  0.81635500  1
  Na  Na32  1  0.73155000  0.08200600  0.05622900  1
  Na  Na33  1  0.33243600  0.29333700  0.68238100  1
  Na  Na34  1  0.61537350  0.92797950  0.12999800  1
  Na  Na35  1  0.71481600  0.84466000  0.91051000  1
  Na  Na36  1  0.76335050  0.17911950  0.75603200  1
  Na  Na37  1  0.42432250  0.66312650  0.43845100  1
  Na  Na38  1  0.71320850  0.97186050  0.83229700  1
  Na  Na39  1  0.82003450  0.06637950  0.63465200  1
  Na  Na40  1  0.73155000  0.91799400  0.55622900  1
  Na  Na41  1  0.51859250  0.83967650  0.91103700  1
  Na  Na42  1  0.63117050  0.77843250  0.67403400  1
  Na  Na43  1  0.33243600  0.70666300  0.18238100  1
  Na  Na44  1  0.61537350  0.07202050  0.62999800  1
  Na  Na45  1  0.71481600  0.15534000  0.41051000  1
  Na  Na46  1  0.71320850  0.02813950  0.33229700  1
  Na  Na47  1  0.36754900  0.77798300  0.95815900  1
  Na  Na48  1  0.55082550  0.90660550  0.58634600  1
  Na  Na49  1  0.62872100  0.81435500  0.35782900  1
  Na  Na50  1  0.43230550  0.81260750  0.37498200  1
  Na  Na51  1  0.43884450  0.87948350  0.14869000  1
  Na  Na52  1  0.12872100  0.68564500  0.85782900  1
  Na  Na53  1  0.93884450  0.62051650  0.64869000  1
  Na  Na54  1  0.13117050  0.72156750  0.17403400  1
  Na  Na55  1  0.01859250  0.66032350  0.41103700  1
  Na  Na56  1  0.85537150  0.40973150  0.59194900  1
  Na  Na57  1  0.75695650  0.37417150  0.75716700  1
  Na  Na58  1  0.86754900  0.72201700  0.45815900  1
  Na  Na59  1  0.05082550  0.59339450  0.08634600  1
  Na  Na60  1  0.83921050  0.52254950  0.44596400  1
  Na  Na61  1  0.64098150  0.46338150  0.51841100  1
  Na  Na62  1  0.13193100  0.78296100  0.53907800  1
  Na  Na63  1  0.72363000  0.32654400  0.36931600  1
  Na  Na64  1  0.85537150  0.59026850  0.09194900  1
  Na  Na65  1  0.75125800  0.43265600  0.22871700  1
  Na  Na66  1  0.03511550  0.79414150  0.68473100  1
  Na  Na67  1  0.93230550  0.68739250  0.87498200  1
  Na  Na68  1  0.75695650  0.62582850  0.25716700  1
  Na  Na69  1  0.83921050  0.47745050  0.94596400  1
  Na  Na70  1  0.60286800  0.54992000  0.30138300  1
  Na  Na71  1  0.64098150  0.53661850  0.01841100  1
  Na  Na72  1  0.72363000  0.67345600  0.86931600  1
  Na  Na73  1  0.13193100  0.21703900  0.03907800  1
  Na  Na74  1  0.03511550  0.20585850  0.18473100  1
  Na  Na75  1  0.75125800  0.56734400  0.72871700  1
  Na  Na76  1  0.02714300  0.92792800  0.16368100  1
  Na  Na77  1  0.40182550  0.54218350  0.31635500  1
  Na  Na78  1  0.60286800  0.45008000  0.80138300  1
  Na  Na79  1  0.26335050  0.32088050  0.25603200  1
  Na  Na80  1  0.92432250  0.83687350  0.93845100  1
  Na  Na81  1  0.32003450  0.43362050  0.13465200  1
  Na  Na82  1  0.02714300  0.07207200  0.66368100  1
  Na  Na83  1  0.40182550  0.45781650  0.81635500  1
  Na  Na84  1  0.23155000  0.58200600  0.05622900  1
  Na  Na85  1  0.83243600  0.79333700  0.68238100  1
  Na  Na86  1  0.11537350  0.42797950  0.12999800  1
  Na  Na87  1  0.21481600  0.34466000  0.91051000  1
  Na  Na88  1  0.26335050  0.67911950  0.75603200  1
  Na  Na89  1  0.92432250  0.16312650  0.43845100  1
  Na  Na90  1  0.21320850  0.47186050  0.83229700  1
  Na  Na91  1  0.32003450  0.56637950  0.63465200  1
  Na  Na92  1  0.23155000  0.41799400  0.55622900  1
  Na  Na93  1  0.01859250  0.33967650  0.91103700  1
  Na  Na94  1  0.13117050  0.27843250  0.67403400  1
  Na  Na95  1  0.83243600  0.20666300  0.18238100  1
  Na  Na96  1  0.11537350  0.57202050  0.62999800  1
  Na  Na97  1  0.21481600  0.65534000  0.41051000  1
  Na  Na98  1  0.21320850  0.52813950  0.33229700  1
  Na  Na99  1  0.86754900  0.27798300  0.95815900  1
  Na  Na100  1  0.05082550  0.40660550  0.58634600  1
  Na  Na101  1  0.12872100  0.31435500  0.35782900  1
  Na  Na102  1  0.93230550  0.31260750  0.37498200  1
  Na  Na103  1  0.93884450  0.37948350  0.14869000  1
  In  In104  1  0.50256300  0.00000100  0.82057000  1
  In  In105  1  0.50256300  0.99999900  0.32057000  1
  In  In106  1  0.90857000  0.90974600  0.50146100  1
  In  In107  1  0.65775600  0.34150700  0.00026500  1
  In  In108  1  0.43281300  0.25294300  0.18243900  1
  In  In109  1  0.65775600  0.65849300  0.50026500  1
  In  In110  1  0.90857000  0.09025400  0.00146100  1
  In  In111  1  0.43281300  0.74705700  0.68243900  1
  In  In112  1  0.00256300  0.50000100  0.82057000  1
  In  In113  1  0.00256300  0.49999900  0.32057000  1
  In  In114  1  0.40857000  0.40974600  0.50146100  1
  In  In115  1  0.15775600  0.84150700  0.00026500  1
  In  In116  1  0.93281300  0.75294300  0.18243900  1
  In  In117  1  0.15775600  0.15849300  0.50026500  1
  In  In118  1  0.40857000  0.59025400  0.00146100  1
  In  In119  1  0.93281300  0.24705700  0.68243900  1
  O  O120  1  0.53562250  0.09805750  0.88479900  1
  O  O121  1  0.56112400  0.18781300  0.62340200  1
  O  O122  1  0.50295750  0.00037650  0.65033500  1
  O  O123  1  0.34172900  0.96681300  0.75465200  1
  O  O124  1  0.50295750  0.99962350  0.15033500  1
  O  O125  1  0.26309900  0.12782900  0.44519200  1
  O  O126  1  0.34172900  0.03318700  0.25465200  1
  O  O127  1  0.42976850  0.18251650  0.05471000  1
  O  O128  1  0.33419900  0.21973100  0.24608400  1
  O  O129  1  0.19923600  0.94337300  0.37632700  1
  O  O130  1  0.57536300  0.38090600  0.59171300  1
  O  O131  1  0.25051050  0.80717250  0.19407300  1
  O  O132  1  0.60231300  0.24428900  0.34791100  1
  O  O133  1  0.26309900  0.87217100  0.94519200  1
  O  O134  1  0.19923600  0.05662700  0.87632700  1
  O  O135  1  0.25051050  0.19282750  0.69407300  1
  O  O136  1  0.57536300  0.61909400  0.09171300  1
  O  O137  1  0.82259450  0.82367450  0.49795200  1
  O  O138  1  0.07413900  0.92674200  0.00292300  1
  O  O139  1  0.90950250  0.02535350  0.13397600  1
  O  O140  1  0.80678050  0.94276150  0.30756100  1
  O  O141  1  0.52740150  0.27695250  0.86624000  1
  O  O142  1  0.39350250  0.34548950  0.09775500  1
  O  O143  1  0.82259450  0.17632550  0.99795200  1
  O  O144  1  0.07413900  0.07325800  0.50292300  1
  O  O145  1  0.90950250  0.97464650  0.63397600  1
  O  O146  1  0.52740150  0.72304750  0.36624000  1
  O  O147  1  0.80678050  0.05723850  0.80756100  1
  O  O148  1  0.39350250  0.65451050  0.59775500  1
  O  O149  1  0.56112400  0.81218700  0.12340200  1
  O  O150  1  0.74885150  0.87624050  0.74588100  1
  O  O151  1  0.63271250  0.93559850  0.95180100  1
  O  O152  1  0.60231300  0.75571100  0.84791100  1
  O  O153  1  0.74885150  0.12375950  0.24588100  1
  O  O154  1  0.63271250  0.06440150  0.45180100  1
  O  O155  1  0.53562250  0.90194250  0.38479900  1
  O  O156  1  0.42976850  0.81748350  0.55471000  1
  O  O157  1  0.33419900  0.78026900  0.74608400  1
  O  O158  1  0.03562250  0.59805750  0.88479900  1
  O  O159  1  0.06112400  0.68781300  0.62340200  1
  O  O160  1  0.00295750  0.50037650  0.65033500  1
  O  O161  1  0.84172900  0.46681300  0.75465200  1
  O  O162  1  0.00295750  0.49962350  0.15033500  1
  O  O163  1  0.76309900  0.62782900  0.44519200  1
  O  O164  1  0.84172900  0.53318700  0.25465200  1
  O  O165  1  0.92976850  0.68251650  0.05471000  1
  O  O166  1  0.83419900  0.71973100  0.24608400  1
  O  O167  1  0.69923600  0.44337300  0.37632700  1
  O  O168  1  0.07536300  0.88090600  0.59171300  1
  O  O169  1  0.75051050  0.30717250  0.19407300  1
  O  O170  1  0.10231300  0.74428900  0.34791100  1
  O  O171  1  0.76309900  0.37217100  0.94519200  1
  O  O172  1  0.69923600  0.55662700  0.87632700  1
  O  O173  1  0.75051050  0.69282750  0.69407300  1
  O  O174  1  0.07536300  0.11909400  0.09171300  1
  O  O175  1  0.32259450  0.32367450  0.49795200  1
  O  O176  1  0.57413900  0.42674200  0.00292300  1
  O  O177  1  0.40950250  0.52535350  0.13397600  1
  O  O178  1  0.30678050  0.44276150  0.30756100  1
  O  O179  1  0.02740150  0.77695250  0.86624000  1
  O  O180  1  0.89350250  0.84548950  0.09775500  1
  O  O181  1  0.32259450  0.67632550  0.99795200  1
  O  O182  1  0.57413900  0.57325800  0.50292300  1
  O  O183  1  0.40950250  0.47464650  0.63397600  1
  O  O184  1  0.02740150  0.22304750  0.36624000  1
  O  O185  1  0.30678050  0.55723850  0.80756100  1
  O  O186  1  0.89350250  0.15451050  0.59775500  1
  O  O187  1  0.06112400  0.31218700  0.12340200  1
  O  O188  1  0.24885150  0.37624050  0.74588100  1
  O  O189  1  0.13271250  0.43559850  0.95180100  1
  O  O190  1  0.10231300  0.25571100  0.84791100  1
  O  O191  1  0.24885150  0.62375950  0.24588100  1
  O  O192  1  0.13271250  0.56440150  0.45180100  1
  O  O193  1  0.03562250  0.40194250  0.38479900  1
  O  O194  1  0.92976850  0.31748350  0.55471000  1
  O  O195  1  0.83419900  0.28026900  0.74608400  1
