# generated using pymatgen
data_Ag3BO3
_symmetry_space_group_name_H-M   'P 1'
_cell_length_a   9.97906208
_cell_length_b   9.97906208
_cell_length_c   14.01317784
_cell_angle_alpha   90.00000000
_cell_angle_beta   90.00000000
_cell_angle_gamma   120.00000000
_symmetry_Int_Tables_number   1
_chemical_formula_structural   Ag3BO3
_chemical_formula_sum   'Ag36 B12 O36'
_cell_volume   1208.50016445
_cell_formula_units_Z   12
loop_
 _symmetry_equiv_pos_site_id
 _symmetry_equiv_pos_as_xyz
  1  'x, y, z'
loop_
 _atom_site_type_symbol
 _atom_site_label
 _atom_site_symmetry_multiplicity
 _atom_site_fract_x
 _atom_site_fract_y
 _atom_site_fract_z
 _atom_site_occupancy
  Ag  Ag0  1  0.16303600  0.33461000  0.20898000  1
  Ag  Ag1  1  0.50490733  0.00127667  0.37564667  1
  Ag  Ag2  1  0.49636933  0.49509267  0.37564667  1
  Ag  Ag3  1  0.49509267  0.49636933  0.12435333  1
  Ag  Ag4  1  0.66794333  0.82970267  0.95768667  1
  Ag  Ag5  1  0.66539000  0.82842600  0.20898000  1
  Ag  Ag6  1  0.00127667  0.50490733  0.12435333  1
  Ag  Ag7  1  0.50363067  0.99872333  0.12435333  1
  Ag  Ag8  1  0.16175933  0.33205667  0.95768667  1
  Ag  Ag9  1  0.99872333  0.50363067  0.37564667  1
  Ag  Ag10  1  0.17029733  0.83824067  0.95768667  1
  Ag  Ag11  1  0.17157400  0.83696400  0.20898000  1
  Ag  Ag12  1  0.82970267  0.66794333  0.54231333  1
  Ag  Ag13  1  0.17157400  0.33461000  0.70898000  1
  Ag  Ag14  1  0.16303600  0.82842600  0.70898000  1
  Ag  Ag15  1  0.16175933  0.82970267  0.45768667  1
  Ag  Ag16  1  0.33461000  0.16303600  0.29102000  1
  Ag  Ag17  1  0.33205667  0.16175933  0.54231333  1
  Ag  Ag18  1  0.66794333  0.83824067  0.45768667  1
  Ag  Ag19  1  0.17029733  0.33205667  0.45768667  1
  Ag  Ag20  1  0.82842600  0.66539000  0.29102000  1
  Ag  Ag21  1  0.66539000  0.83696400  0.70898000  1
  Ag  Ag22  1  0.83696400  0.17157400  0.29102000  1
  Ag  Ag23  1  0.83824067  0.17029733  0.54231333  1
  Ag  Ag24  1  0.49636933  0.00127667  0.87564667  1
  Ag  Ag25  1  0.83824067  0.66794333  0.04231333  1
  Ag  Ag26  1  0.82970267  0.16175933  0.04231333  1
  Ag  Ag27  1  0.82842600  0.16303600  0.79102000  1
  Ag  Ag28  1  0.00127667  0.49636933  0.62435333  1
  Ag  Ag29  1  0.99872333  0.49509267  0.87564667  1
  Ag  Ag30  1  0.33461000  0.17157400  0.79102000  1
  Ag  Ag31  1  0.83696400  0.66539000  0.79102000  1
  Ag  Ag32  1  0.49509267  0.99872333  0.62435333  1
  Ag  Ag33  1  0.33205667  0.17029733  0.04231333  1
  Ag  Ag34  1  0.50363067  0.50490733  0.62435333  1
  Ag  Ag35  1  0.50490733  0.50363067  0.87564667  1
  B  B36  1  0.33333333  0.66666667  0.29095867  1
  B  B37  1  0.33333333  0.66666667  0.04237467  1
  B  B38  1  0.33333333  0.66666667  0.79095867  1
  B  B39  1  0.33333333  0.66666667  0.54237467  1
  B  B40  1  0.00000000  0.00000000  0.62429200  1
  B  B41  1  0.00000000  0.00000000  0.37570800  1
  B  B42  1  0.00000000  0.00000000  0.12429200  1
  B  B43  1  1.00000000  0.00000000  0.87570800  1
  B  B44  1  0.66666667  0.33333333  0.95762533  1
  B  B45  1  0.66666667  0.33333333  0.70904133  1
  B  B46  1  0.66666667  0.33333333  0.45762533  1
  B  B47  1  0.66666667  0.33333333  0.20904133  1
  O  O48  1  0.85787267  0.99378333  0.12393633  1
  O  O49  1  0.13591067  0.14212733  0.12393633  1
  O  O50  1  0.46924400  0.66045000  0.29060300  1
  O  O51  1  0.19742267  0.67288333  0.04273033  1
  O  O52  1  0.53075600  0.19120600  0.20939700  1
  O  O53  1  0.47546067  0.80257733  0.04273033  1
  O  O54  1  0.19120600  0.53075600  0.29060300  1
  O  O55  1  0.66045000  0.46924400  0.20939700  1
  O  O56  1  0.32711667  0.52453933  0.04273033  1
  O  O57  1  0.80879400  0.33955000  0.20939700  1
  O  O58  1  0.33955000  0.80879400  0.29060300  1
  O  O59  1  0.00621667  0.86408933  0.12393633  1
  O  O60  1  0.52453933  0.32711667  0.45726967  1
  O  O61  1  0.80257733  0.47546067  0.45726967  1
  O  O62  1  0.13591067  0.99378333  0.62393633  1
  O  O63  1  0.86408933  0.00621667  0.37606367  1
  O  O64  1  0.19742267  0.52453933  0.54273033  1
  O  O65  1  0.14212733  0.13591067  0.37606367  1
  O  O66  1  0.85787267  0.86408933  0.62393633  1
  O  O67  1  0.32711667  0.80257733  0.54273033  1
  O  O68  1  0.99378333  0.85787267  0.37606367  1
  O  O69  1  0.47546067  0.67288333  0.54273033  1
  O  O70  1  0.00621667  0.14212733  0.62393633  1
  O  O71  1  0.67288333  0.19742267  0.45726967  1
  O  O72  1  0.19120600  0.66045000  0.79060300  1
  O  O73  1  0.46924400  0.80879400  0.79060300  1
  O  O74  1  0.80257733  0.32711667  0.95726967  1
  O  O75  1  0.53075600  0.33955000  0.70939700  1
  O  O76  1  0.86408933  0.85787267  0.87606367  1
  O  O77  1  0.80879400  0.46924400  0.70939700  1
  O  O78  1  0.52453933  0.19742267  0.95726967  1
  O  O79  1  0.99378333  0.13591067  0.87606367  1
  O  O80  1  0.66045000  0.19120600  0.70939700  1
  O  O81  1  0.14212733  0.00621667  0.87606367  1
  O  O82  1  0.67288333  0.47546067  0.95726967  1
  O  O83  1  0.33955000  0.53075600  0.79060300  1
