# generated using pymatgen
data_NaCa4(BO3)3
_symmetry_space_group_name_H-M   'P 1'
_cell_length_a   6.53951200
_cell_length_b   11.37411400
_cell_length_c   10.77738000
_cell_angle_alpha   90.00000000
_cell_angle_beta   90.00000000
_cell_angle_gamma   90.00000000
_symmetry_Int_Tables_number   1
_chemical_formula_structural   NaCa4(BO3)3
_chemical_formula_sum   'Na4 Ca16 B12 O36'
_cell_volume   801.63397219
_cell_formula_units_Z   4
loop_
 _symmetry_equiv_pos_site_id
 _symmetry_equiv_pos_as_xyz
  1  'x, y, z'
loop_
 _atom_site_type_symbol
 _atom_site_label
 _atom_site_symmetry_multiplicity
 _atom_site_fract_x
 _atom_site_fract_y
 _atom_site_fract_z
 _atom_site_occupancy
  Na  Na0  1  0.03867200  0.42513700  0.25000000  1
  Na  Na1  1  0.53867200  0.07486300  0.75000000  1
  Na  Na2  1  0.53867200  0.92513700  0.25000000  1
  Na  Na3  1  0.03867200  0.57486300  0.75000000  1
  Ca  Ca4  1  0.60862550  0.21406550  0.47209700  1
  Ca  Ca5  1  0.10862550  0.28593450  0.52790300  1
  Ca  Ca6  1  0.60862550  0.21406550  0.02790300  1
  Ca  Ca7  1  0.10862550  0.28593450  0.97209700  1
  Ca  Ca8  1  0.96726200  0.00000000  0.50000000  1
  Ca  Ca9  1  0.96726200  0.00000000  0.00000000  1
  Ca  Ca10  1  0.24193650  0.14962550  0.25000000  1
  Ca  Ca11  1  0.74193650  0.35037450  0.75000000  1
  Ca  Ca12  1  0.10862550  0.71406550  0.47209700  1
  Ca  Ca13  1  0.60862550  0.78593450  0.52790300  1
  Ca  Ca14  1  0.10862550  0.71406550  0.02790300  1
  Ca  Ca15  1  0.60862550  0.78593450  0.97209700  1
  Ca  Ca16  1  0.46726200  0.50000000  0.50000000  1
  Ca  Ca17  1  0.46726200  0.50000000  0.00000000  1
  Ca  Ca18  1  0.74193650  0.64962550  0.25000000  1
  Ca  Ca19  1  0.24193650  0.85037450  0.75000000  1
  B  B20  1  0.45374900  0.37820200  0.25000000  1
  B  B21  1  0.95374900  0.12179800  0.75000000  1
  B  B22  1  0.81603800  0.17218600  0.25000000  1
  B  B23  1  0.31603800  0.32781400  0.75000000  1
  B  B24  1  0.39232000  0.00000000  0.50000000  1
  B  B25  1  0.39232000  0.00000000  0.00000000  1
  B  B26  1  0.95374900  0.87820200  0.25000000  1
  B  B27  1  0.45374900  0.62179800  0.75000000  1
  B  B28  1  0.31603800  0.67218600  0.25000000  1
  B  B29  1  0.81603800  0.82781400  0.75000000  1
  B  B30  1  0.89232000  0.50000000  0.50000000  1
  B  B31  1  0.89232000  0.50000000  0.00000000  1
  O  O32  1  0.61231800  0.14141900  0.25000000  1
  O  O33  1  0.11231800  0.35858100  0.75000000  1
  O  O34  1  0.60299200  0.00000000  0.50000000  1
  O  O35  1  0.60299200  0.00000000  0.00000000  1
  O  O36  1  0.28729550  0.10275850  0.47129600  1
  O  O37  1  0.78729550  0.39724150  0.52870400  1
  O  O38  1  0.28729550  0.10275850  0.02870400  1
  O  O39  1  0.78729550  0.39724150  0.97129600  1
  O  O40  1  0.36216700  0.33833100  0.36100700  1
  O  O41  1  0.86216700  0.16166900  0.63899300  1
  O  O42  1  0.36216700  0.33833100  0.13899300  1
  O  O43  1  0.86216700  0.16166900  0.86100700  1
  O  O44  1  0.92169900  0.19044200  0.36114000  1
  O  O45  1  0.42169900  0.30955800  0.63886000  1
  O  O46  1  0.92169900  0.19044200  0.13886000  1
  O  O47  1  0.42169900  0.30955800  0.86114000  1
  O  O48  1  0.61306800  0.45576500  0.25000000  1
  O  O49  1  0.11306800  0.04423500  0.75000000  1
  O  O50  1  0.11231800  0.64141900  0.25000000  1
  O  O51  1  0.61231800  0.85858100  0.75000000  1
  O  O52  1  0.10299200  0.50000000  0.50000000  1
  O  O53  1  0.10299200  0.50000000  0.00000000  1
  O  O54  1  0.78729550  0.60275850  0.47129600  1
  O  O55  1  0.28729550  0.89724150  0.52870400  1
  O  O56  1  0.78729550  0.60275850  0.02870400  1
  O  O57  1  0.28729550  0.89724150  0.97129600  1
  O  O58  1  0.86216700  0.83833100  0.36100700  1
  O  O59  1  0.36216700  0.66166900  0.63899300  1
  O  O60  1  0.86216700  0.83833100  0.13899300  1
  O  O61  1  0.36216700  0.66166900  0.86100700  1
  O  O62  1  0.42169900  0.69044200  0.36114000  1
  O  O63  1  0.92169900  0.80955800  0.63886000  1
  O  O64  1  0.42169900  0.69044200  0.13886000  1
  O  O65  1  0.92169900  0.80955800  0.86114000  1
  O  O66  1  0.11306800  0.95576500  0.25000000  1
  O  O67  1  0.61306800  0.54423500  0.75000000  1
