# generated using pymatgen
data_LaPb6BrO7
_symmetry_space_group_name_H-M   'P 1'
_cell_length_a   9.87693600
_cell_length_b   16.70617800
_cell_length_c   8.27108200
_cell_angle_alpha   90.00000000
_cell_angle_beta   90.00000000
_cell_angle_gamma   90.00000000
_symmetry_Int_Tables_number   1
_chemical_formula_structural   LaPb6BrO7
_chemical_formula_sum   'La4 Pb24 Br4 O28'
_cell_volume   1364.77692336
_cell_formula_units_Z   4
loop_
 _symmetry_equiv_pos_site_id
 _symmetry_equiv_pos_as_xyz
  1  'x, y, z'
loop_
 _atom_site_type_symbol
 _atom_site_label
 _atom_site_symmetry_multiplicity
 _atom_site_fract_x
 _atom_site_fract_y
 _atom_site_fract_z
 _atom_site_occupancy
  La  La0  1  0.00000000  0.00000000  0.50000000  1
  La  La1  1  0.00000000  0.00000000  0.00000000  1
  La  La2  1  0.50000000  0.50000000  0.50000000  1
  La  La3  1  0.50000000  0.50000000  0.00000000  1
  Pb  Pb4  1  0.71350850  0.09916450  0.75000000  1
  Pb  Pb5  1  0.71350850  0.90083550  0.25000000  1
  Pb  Pb6  1  0.28649150  0.90083550  0.25000000  1
  Pb  Pb7  1  0.28649150  0.09916450  0.75000000  1
  Pb  Pb8  1  0.23545100  0.86917700  0.75000000  1
  Pb  Pb9  1  0.50000000  0.27233000  0.01426300  1
  Pb  Pb10  1  0.50000000  0.27233000  0.48573700  1
  Pb  Pb11  1  0.76454900  0.86917700  0.75000000  1
  Pb  Pb12  1  0.50000000  0.72767000  0.51426300  1
  Pb  Pb13  1  0.76454900  0.13082300  0.25000000  1
  Pb  Pb14  1  0.50000000  0.72767000  0.98573700  1
  Pb  Pb15  1  0.23545100  0.13082300  0.25000000  1
  Pb  Pb16  1  0.21350850  0.59916450  0.75000000  1
  Pb  Pb17  1  0.21350850  0.40083550  0.25000000  1
  Pb  Pb18  1  0.78649150  0.40083550  0.25000000  1
  Pb  Pb19  1  0.78649150  0.59916450  0.75000000  1
  Pb  Pb20  1  0.73545100  0.36917700  0.75000000  1
  Pb  Pb21  1  0.00000000  0.77233000  0.01426300  1
  Pb  Pb22  1  0.00000000  0.77233000  0.48573700  1
  Pb  Pb23  1  0.26454900  0.36917700  0.75000000  1
  Pb  Pb24  1  0.00000000  0.22767000  0.51426300  1
  Pb  Pb25  1  0.26454900  0.63082300  0.25000000  1
  Pb  Pb26  1  0.00000000  0.22767000  0.98573700  1
  Pb  Pb27  1  0.73545100  0.63082300  0.25000000  1
  Br  Br28  1  0.50000000  0.00000000  0.50000000  1
  Br  Br29  1  0.50000000  0.00000000  0.00000000  1
  Br  Br30  1  0.00000000  0.50000000  0.50000000  1
  Br  Br31  1  0.00000000  0.50000000  0.00000000  1
  O  O32  1  0.85123700  0.99080700  0.75000000  1
  O  O33  1  0.14990700  0.12917200  0.52881700  1
  O  O34  1  0.14990700  0.12917200  0.97118300  1
  O  O35  1  0.14876300  0.00919300  0.25000000  1
  O  O36  1  0.85009300  0.12917200  0.52881700  1
  O  O37  1  0.50000000  0.30706500  0.75000000  1
  O  O38  1  0.85009300  0.87082800  0.47118300  1
  O  O39  1  0.85123700  0.00919300  0.25000000  1
  O  O40  1  0.14876300  0.99080700  0.75000000  1
  O  O41  1  0.85009300  0.12917200  0.97118300  1
  O  O42  1  0.85009300  0.87082800  0.02881700  1
  O  O43  1  0.14990700  0.87082800  0.02881700  1
  O  O44  1  0.50000000  0.69293500  0.25000000  1
  O  O45  1  0.14990700  0.87082800  0.47118300  1
  O  O46  1  0.35123700  0.49080700  0.75000000  1
  O  O47  1  0.64990700  0.62917200  0.52881700  1
  O  O48  1  0.64990700  0.62917200  0.97118300  1
  O  O49  1  0.64876300  0.50919300  0.25000000  1
  O  O50  1  0.35009300  0.62917200  0.52881700  1
  O  O51  1  0.00000000  0.80706500  0.75000000  1
  O  O52  1  0.35009300  0.37082800  0.47118300  1
  O  O53  1  0.35123700  0.50919300  0.25000000  1
  O  O54  1  0.64876300  0.49080700  0.75000000  1
  O  O55  1  0.35009300  0.62917200  0.97118300  1
  O  O56  1  0.35009300  0.37082800  0.02881700  1
  O  O57  1  0.64990700  0.37082800  0.02881700  1
  O  O58  1  0.00000000  0.19293500  0.25000000  1
  O  O59  1  0.64990700  0.37082800  0.47118300  1
