# generated using pymatgen
data_ScF3
_symmetry_space_group_name_H-M   'P 1'
_cell_length_a   5.74546117
_cell_length_b   5.74546117
_cell_length_c   7.06834547
_cell_angle_alpha   90.00000000
_cell_angle_beta   90.00000000
_cell_angle_gamma   120.00000000
_symmetry_Int_Tables_number   1
_chemical_formula_structural   ScF3
_chemical_formula_sum   'Sc3 F9'
_cell_volume   202.06829933
_cell_formula_units_Z   3
loop_
 _symmetry_equiv_pos_site_id
 _symmetry_equiv_pos_as_xyz
  1  'x, y, z'
loop_
 _atom_site_type_symbol
 _atom_site_label
 _atom_site_symmetry_multiplicity
 _atom_site_fract_x
 _atom_site_fract_y
 _atom_site_fract_z
 _atom_site_occupancy
  Sc  Sc0  1  0.00000000  0.00000000  0.00000000  1
  Sc  Sc1  1  0.66666667  0.33333333  0.33333333  1
  Sc  Sc2  1  0.33333333  0.66666667  0.66666667  1
  F  F3  1  0.00000000  0.48843400  0.50000000  1
  F  F4  1  0.51156600  0.51156600  0.50000000  1
  F  F5  1  0.48843400  0.00000000  0.50000000  1
  F  F6  1  0.66666667  0.82176733  0.83333333  1
  F  F7  1  0.17823267  0.84489933  0.83333333  1
  F  F8  1  0.15510067  0.33333333  0.83333333  1
  F  F9  1  0.33333333  0.15510067  0.16666667  1
  F  F10  1  0.84489933  0.17823267  0.16666667  1
  F  F11  1  0.82176733  0.66666667  0.16666667  1
