# generated using pymatgen
data_SrBNO
_symmetry_space_group_name_H-M   'P 1'
_cell_length_a   6.67153700
_cell_length_b   7.91509900
_cell_length_c   13.52278045
_cell_angle_alpha   90.00000000
_cell_angle_beta   117.84352355
_cell_angle_gamma   90.00000000
_symmetry_Int_Tables_number   1
_chemical_formula_structural   SrBNO
_chemical_formula_sum   'Sr12 B12 N12 O12'
_cell_volume   631.41041856
_cell_formula_units_Z   12
loop_
 _symmetry_equiv_pos_site_id
 _symmetry_equiv_pos_as_xyz
  1  'x, y, z'
loop_
 _atom_site_type_symbol
 _atom_site_label
 _atom_site_symmetry_multiplicity
 _atom_site_fract_x
 _atom_site_fract_y
 _atom_site_fract_z
 _atom_site_occupancy
  Sr  Sr0  1  0.04004500  0.13550400  0.39400200  1
  Sr  Sr1  1  0.56587000  0.37785800  0.17620600  1
  Sr  Sr2  1  0.56587000  0.12214200  0.67620600  1
  Sr  Sr3  1  0.43413000  0.87785800  0.32379400  1
  Sr  Sr4  1  0.43413000  0.62214200  0.82379400  1
  Sr  Sr5  1  0.95995500  0.63550400  0.10599800  1
  Sr  Sr6  1  0.03115600  0.61209600  0.38707400  1
  Sr  Sr7  1  0.95995500  0.86449600  0.60599800  1
  Sr  Sr8  1  0.96884400  0.38790400  0.61292600  1
  Sr  Sr9  1  0.04004500  0.36449600  0.89400200  1
  Sr  Sr10  1  0.03115600  0.88790400  0.88707400  1
  Sr  Sr11  1  0.96884400  0.11209600  0.11292600  1
  B  B12  1  0.60195600  0.27728800  0.89464100  1
  B  B13  1  0.59780700  0.53207100  0.38782900  1
  B  B14  1  0.24191500  0.12597900  0.79435600  1
  B  B15  1  0.60195600  0.22271200  0.39464100  1
  B  B16  1  0.59780700  0.96792900  0.88782900  1
  B  B17  1  0.39804400  0.77728800  0.60535900  1
  B  B18  1  0.40219300  0.03207100  0.11217100  1
  B  B19  1  0.40219300  0.46792900  0.61217100  1
  B  B20  1  0.75808500  0.62597900  0.70564400  1
  B  B21  1  0.39804400  0.72271200  0.10535900  1
  B  B22  1  0.24191500  0.37402100  0.29435600  1
  B  B23  1  0.75808500  0.87402100  0.20564400  1
  N  N24  1  0.72893000  0.37696100  0.39927700  1
  N  N25  1  0.35590400  0.21047800  0.32614800  1
  N  N26  1  0.72893000  0.12303900  0.89927700  1
  N  N27  1  0.35131800  0.96058300  0.81979300  1
  N  N28  1  0.64409600  0.71047800  0.17385200  1
  N  N29  1  0.64868200  0.03941700  0.18020700  1
  N  N30  1  0.27107000  0.62303900  0.60072300  1
  N  N31  1  0.64868200  0.46058300  0.68020700  1
  N  N32  1  0.27107000  0.87696100  0.10072300  1
  N  N33  1  0.35131800  0.53941700  0.31979300  1
  N  N34  1  0.64409600  0.78952200  0.67385200  1
  N  N35  1  0.35590400  0.28952200  0.82614800  1
  O  O36  1  0.73141700  0.08473100  0.46011100  1
  O  O37  1  0.26858300  0.91526900  0.53988900  1
  O  O38  1  0.27564100  0.32446900  0.55594300  1
  O  O39  1  0.72435900  0.82446900  0.94405700  1
  O  O40  1  0.00123800  0.62741100  0.75990300  1
  O  O41  1  0.27564100  0.17553100  0.05594300  1
  O  O42  1  0.26858300  0.58473100  0.03988900  1
  O  O43  1  0.72435900  0.67553100  0.44405700  1
  O  O44  1  0.99876200  0.37258900  0.24009700  1
  O  O45  1  0.00123800  0.87258900  0.25990300  1
  O  O46  1  0.99876200  0.12741100  0.74009700  1
  O  O47  1  0.73141700  0.41526900  0.96011100  1
