# generated using pymatgen
data_Dy2Ti2O7
_symmetry_space_group_name_H-M   'P 1'
_cell_length_a   12.56918000
_cell_length_b   7.19929000
_cell_length_c   23.77533748
_cell_angle_alpha   90.00000000
_cell_angle_beta   100.64801964
_cell_angle_gamma   90.00000000
_symmetry_Int_Tables_number   1
_chemical_formula_structural   Dy2Ti2O7
_chemical_formula_sum   'Dy32 Ti32 O112'
_cell_volume   2114.36510378
_cell_formula_units_Z   16
loop_
 _symmetry_equiv_pos_site_id
 _symmetry_equiv_pos_as_xyz
  1  'x, y, z'
loop_
 _atom_site_type_symbol
 _atom_site_label
 _atom_site_symmetry_multiplicity
 _atom_site_fract_x
 _atom_site_fract_y
 _atom_site_fract_z
 _atom_site_occupancy
  Dy  Dy0  1  0.11340650  0.24719350  0.12936400  1
  Dy  Dy1  1  0.00000000  0.50000000  0.00000000  1
  Dy  Dy2  1  0.11340650  0.75280650  0.12936400  1
  Dy  Dy3  1  0.88659350  0.75280650  0.87063600  1
  Dy  Dy4  1  0.35947700  0.50000000  0.11307300  1
  Dy  Dy5  1  0.88659350  0.24719350  0.87063600  1
  Dy  Dy6  1  0.37419000  0.50000000  0.62442100  1
  Dy  Dy7  1  0.50000000  0.50000000  0.50000000  1
  Dy  Dy8  1  0.62519500  0.24976800  0.62428000  1
  Dy  Dy9  1  0.74331400  0.00000000  0.74982300  1
  Dy  Dy10  1  0.64052300  0.50000000  0.88692700  1
  Dy  Dy11  1  0.62519500  0.75023200  0.62428000  1
  Dy  Dy12  1  0.37480500  0.75023200  0.37572000  1
  Dy  Dy13  1  0.25668600  0.00000000  0.25017700  1
  Dy  Dy14  1  0.62581000  0.50000000  0.37557900  1
  Dy  Dy15  1  0.37480500  0.24976800  0.37572000  1
  Dy  Dy16  1  0.61340650  0.74719350  0.12936400  1
  Dy  Dy17  1  0.50000000  0.00000000  0.00000000  1
  Dy  Dy18  1  0.61340650  0.25280650  0.12936400  1
  Dy  Dy19  1  0.38659350  0.25280650  0.87063600  1
  Dy  Dy20  1  0.85947700  0.00000000  0.11307300  1
  Dy  Dy21  1  0.38659350  0.74719350  0.87063600  1
  Dy  Dy22  1  0.87419000  0.00000000  0.62442100  1
  Dy  Dy23  1  0.00000000  0.00000000  0.50000000  1
  Dy  Dy24  1  0.12519500  0.74976800  0.62428000  1
  Dy  Dy25  1  0.24331400  0.50000000  0.74982300  1
  Dy  Dy26  1  0.14052300  0.00000000  0.88692700  1
  Dy  Dy27  1  0.12519500  0.25023200  0.62428000  1
  Dy  Dy28  1  0.87480500  0.25023200  0.37572000  1
  Dy  Dy29  1  0.75668600  0.50000000  0.25017700  1
  Dy  Dy30  1  0.12581000  0.00000000  0.37557900  1
  Dy  Dy31  1  0.87480500  0.74976800  0.37572000  1
  Ti  Ti32  1  0.37200300  0.00000000  0.13109800  1
  Ti  Ti33  1  0.62799700  0.00000000  0.86890200  1
  Ti  Ti34  1  0.25000000  0.25000000  0.00000000  1
  Ti  Ti35  1  0.25000000  0.75000000  0.00000000  1
  Ti  Ti36  1  0.00000000  0.00000000  0.00000000  1
  Ti  Ti37  1  0.50670000  0.25716200  0.75153300  1
  Ti  Ti38  1  0.76013400  0.50000000  0.75115000  1
  Ti  Ti39  1  0.25000000  0.75000000  0.50000000  1
  Ti  Ti40  1  0.25000000  0.25000000  0.50000000  1
  Ti  Ti41  1  0.50670000  0.74283800  0.75153300  1
  Ti  Ti42  1  0.37791300  0.00000000  0.62652600  1
  Ti  Ti43  1  0.50000000  0.00000000  0.50000000  1
  Ti  Ti44  1  0.49330000  0.74283800  0.24846700  1
  Ti  Ti45  1  0.49330000  0.25716200  0.24846700  1
  Ti  Ti46  1  0.62208700  0.00000000  0.37347400  1
  Ti  Ti47  1  0.23986600  0.50000000  0.24885000  1
  Ti  Ti48  1  0.87200300  0.50000000  0.13109800  1
  Ti  Ti49  1  0.12799700  0.50000000  0.86890200  1
  Ti  Ti50  1  0.75000000  0.75000000  0.00000000  1
  Ti  Ti51  1  0.75000000  0.25000000  0.00000000  1
  Ti  Ti52  1  0.50000000  0.50000000  0.00000000  1
  Ti  Ti53  1  0.00670000  0.75716200  0.75153300  1
  Ti  Ti54  1  0.26013400  0.00000000  0.75115000  1
  Ti  Ti55  1  0.75000000  0.25000000  0.50000000  1
  Ti  Ti56  1  0.75000000  0.75000000  0.50000000  1
  Ti  Ti57  1  0.00670000  0.24283800  0.75153300  1
  Ti  Ti58  1  0.87791300  0.50000000  0.62652600  1
  Ti  Ti59  1  0.00000000  0.50000000  0.50000000  1
  Ti  Ti60  1  0.99330000  0.24283800  0.24846700  1
  Ti  Ti61  1  0.99330000  0.75716200  0.24846700  1
  Ti  Ti62  1  0.12208700  0.50000000  0.37347400  1
  Ti  Ti63  1  0.73986600  0.00000000  0.24885000  1
  O  O64  1  0.50600900  0.00000000  0.09583600  1
  O  O65  1  0.24072100  0.50000000  0.02602300  1
  O  O66  1  0.30702600  0.19181500  0.08268500  1
  O  O67  1  0.89711750  0.78008450  0.98433300  1
  O  O68  1  0.30702600  0.80818500  0.08268500  1
  O  O69  1  0.77738400  0.00000000  0.84193400  1
  O  O70  1  0.89711750  0.21991550  0.98433300  1
  O  O71  1  0.51539400  0.50000000  0.08178100  1
  O  O72  1  0.44574200  0.50000000  0.72992300  1
  O  O73  1  0.53836600  0.28873900  0.83198300  1
  O  O74  1  0.10288250  0.78008450  0.01566700  1
  O  O75  1  0.48460600  0.50000000  0.91821900  1
  O  O76  1  0.10288250  0.21991550  0.01566700  1
  O  O77  1  0.53836600  0.71126100  0.83198300  1
  O  O78  1  0.69297400  0.19181500  0.91731500  1
  O  O79  1  0.64583000  0.29715400  0.73128100  1
  O  O80  1  0.53053600  0.50000000  0.59420700  1
  O  O81  1  0.75927900  0.50000000  0.97397700  1
  O  O82  1  0.77381200  0.50000000  0.83946300  1
  O  O83  1  0.69297400  0.80818500  0.91731500  1
  O  O84  1  0.64583000  0.70284600  0.73128100  1
  O  O85  1  0.29316400  0.79394300  0.58282200  1
  O  O86  1  0.75419100  0.50000000  0.66838000  1
  O  O87  1  0.85426900  0.29055700  0.76760400  1
  O  O88  1  0.68989000  0.50000000  0.48003300  1
  O  O89  1  0.85426900  0.70944300  0.76760400  1
  O  O90  1  0.28104600  0.00000000  0.34464700  1
  O  O91  1  0.45981200  0.79897500  0.66816100  1
  O  O92  1  0.39488800  0.79417700  0.47977300  1
  O  O93  1  0.49399100  0.00000000  0.90416400  1
  O  O94  1  0.29316400  0.20605700  0.58282200  1
  O  O95  1  0.45981200  0.20102500  0.66816100  1
  O  O96  1  0.49796100  0.00000000  0.58238200  1
  O  O97  1  0.57013300  0.00000000  0.77668300  1
  O  O98  1  0.39488800  0.20582300  0.47977300  1
  O  O99  1  0.42986700  0.00000000  0.22331700  1
  O  O100  1  0.60511200  0.79417700  0.52022700  1
  O  O101  1  0.50203900  0.00000000  0.41761800  1
  O  O102  1  0.54018800  0.79897500  0.33183900  1
  O  O103  1  0.14573100  0.29055700  0.23239600  1
  O  O104  1  0.60511200  0.20582300  0.52022700  1
  O  O105  1  0.70683600  0.79394300  0.41717800  1
  O  O106  1  0.54018800  0.20102500  0.33183900  1
  O  O107  1  0.71895400  0.00000000  0.65535300  1
  O  O108  1  0.70683600  0.20605700  0.41717800  1
  O  O109  1  0.14573100  0.70944300  0.23239600  1
  O  O110  1  0.31011000  0.50000000  0.51996700  1
  O  O111  1  0.24580900  0.50000000  0.33162000  1
  O  O112  1  0.22618800  0.50000000  0.16053700  1
  O  O113  1  0.35417000  0.29715400  0.26871900  1
  O  O114  1  0.46946400  0.50000000  0.40579300  1
  O  O115  1  0.46163400  0.28873900  0.16801700  1
  O  O116  1  0.35417000  0.70284600  0.26871900  1
  O  O117  1  0.46163400  0.71126100  0.16801700  1
  O  O118  1  0.55425800  0.50000000  0.27007700  1
  O  O119  1  0.22261600  0.00000000  0.15806600  1
  O  O120  1  0.00600900  0.50000000  0.09583600  1
  O  O121  1  0.74072100  0.00000000  0.02602300  1
  O  O122  1  0.80702600  0.69181500  0.08268500  1
  O  O123  1  0.39711750  0.28008450  0.98433300  1
  O  O124  1  0.80702600  0.30818500  0.08268500  1
  O  O125  1  0.27738400  0.50000000  0.84193400  1
  O  O126  1  0.39711750  0.71991550  0.98433300  1
  O  O127  1  0.01539400  0.00000000  0.08178100  1
  O  O128  1  0.94574200  0.00000000  0.72992300  1
  O  O129  1  0.03836600  0.78873900  0.83198300  1
  O  O130  1  0.60288250  0.28008450  0.01566700  1
  O  O131  1  0.98460600  0.00000000  0.91821900  1
  O  O132  1  0.60288250  0.71991550  0.01566700  1
  O  O133  1  0.03836600  0.21126100  0.83198300  1
  O  O134  1  0.19297400  0.69181500  0.91731500  1
  O  O135  1  0.14583000  0.79715400  0.73128100  1
  O  O136  1  0.03053600  0.00000000  0.59420700  1
  O  O137  1  0.25927900  0.00000000  0.97397700  1
  O  O138  1  0.27381200  0.00000000  0.83946300  1
  O  O139  1  0.19297400  0.30818500  0.91731500  1
  O  O140  1  0.14583000  0.20284600  0.73128100  1
  O  O141  1  0.79316400  0.29394300  0.58282200  1
  O  O142  1  0.25419100  0.00000000  0.66838000  1
  O  O143  1  0.35426900  0.79055700  0.76760400  1
  O  O144  1  0.18989000  0.00000000  0.48003300  1
  O  O145  1  0.35426900  0.20944300  0.76760400  1
  O  O146  1  0.78104600  0.50000000  0.34464700  1
  O  O147  1  0.95981200  0.29897500  0.66816100  1
  O  O148  1  0.89488800  0.29417700  0.47977300  1
  O  O149  1  0.99399100  0.50000000  0.90416400  1
  O  O150  1  0.79316400  0.70605700  0.58282200  1
  O  O151  1  0.95981200  0.70102500  0.66816100  1
  O  O152  1  0.99796100  0.50000000  0.58238200  1
  O  O153  1  0.07013300  0.50000000  0.77668300  1
  O  O154  1  0.89488800  0.70582300  0.47977300  1
  O  O155  1  0.92986700  0.50000000  0.22331700  1
  O  O156  1  0.10511200  0.29417700  0.52022700  1
  O  O157  1  0.00203900  0.50000000  0.41761800  1
  O  O158  1  0.04018800  0.29897500  0.33183900  1
  O  O159  1  0.64573100  0.79055700  0.23239600  1
  O  O160  1  0.10511200  0.70582300  0.52022700  1
  O  O161  1  0.20683600  0.29394300  0.41717800  1
  O  O162  1  0.04018800  0.70102500  0.33183900  1
  O  O163  1  0.21895400  0.50000000  0.65535300  1
  O  O164  1  0.20683600  0.70605700  0.41717800  1
  O  O165  1  0.64573100  0.20944300  0.23239600  1
  O  O166  1  0.81011000  0.00000000  0.51996700  1
  O  O167  1  0.74580900  0.00000000  0.33162000  1
  O  O168  1  0.72618800  0.00000000  0.16053700  1
  O  O169  1  0.85417000  0.79715400  0.26871900  1
  O  O170  1  0.96946400  0.00000000  0.40579300  1
  O  O171  1  0.96163400  0.78873900  0.16801700  1
  O  O172  1  0.85417000  0.20284600  0.26871900  1
  O  O173  1  0.96163400  0.21126100  0.16801700  1
  O  O174  1  0.05425800  0.00000000  0.27007700  1
  O  O175  1  0.72261600  0.50000000  0.15806600  1
