# generated using pymatgen
data_CsBO2
_symmetry_space_group_name_H-M   'P 1'
_cell_length_a   13.83533421
_cell_length_b   13.83533421
_cell_length_c   8.58412036
_cell_angle_alpha   90.00000000
_cell_angle_beta   90.00000000
_cell_angle_gamma   120.00000000
_symmetry_Int_Tables_number   1
_chemical_formula_structural   CsBO2
_chemical_formula_sum   'Cs18 B18 O36'
_cell_volume   1423.00274876
_cell_formula_units_Z   18
loop_
 _symmetry_equiv_pos_site_id
 _symmetry_equiv_pos_as_xyz
  1  'x, y, z'
loop_
 _atom_site_type_symbol
 _atom_site_label
 _atom_site_symmetry_multiplicity
 _atom_site_fract_x
 _atom_site_fract_y
 _atom_site_fract_z
 _atom_site_occupancy
  Cs  Cs0  1  0.22544767  0.33333333  0.58333333  1
  Cs  Cs1  1  0.10788567  0.77455233  0.58333333  1
  Cs  Cs2  1  0.77455233  0.66666667  0.41666667  1
  Cs  Cs3  1  0.33333333  0.10788567  0.41666667  1
  Cs  Cs4  1  0.66666667  0.89211433  0.58333333  1
  Cs  Cs5  1  0.89211433  0.22544767  0.41666667  1
  Cs  Cs6  1  0.89211433  0.66666667  0.91666667  1
  Cs  Cs7  1  0.77455233  0.10788567  0.91666667  1
  Cs  Cs8  1  0.44121900  0.00000000  0.75000000  1
  Cs  Cs9  1  0.00000000  0.44121900  0.75000000  1
  Cs  Cs10  1  0.33333333  0.22544767  0.91666667  1
  Cs  Cs11  1  0.55878100  0.55878100  0.75000000  1
  Cs  Cs12  1  0.55878100  0.00000000  0.25000000  1
  Cs  Cs13  1  0.44121900  0.44121900  0.25000000  1
  Cs  Cs14  1  0.10788567  0.33333333  0.08333333  1
  Cs  Cs15  1  0.66666667  0.77455233  0.08333333  1
  Cs  Cs16  1  0.00000000  0.55878100  0.25000000  1
  Cs  Cs17  1  0.22544767  0.89211433  0.08333333  1
  B  B18  1  0.10537100  0.10537100  0.25000000  1
  B  B19  1  0.00000000  0.10537100  0.75000000  1
  B  B20  1  0.10537100  0.00000000  0.75000000  1
  B  B21  1  0.89462900  0.89462900  0.75000000  1
  B  B22  1  0.89462900  0.00000000  0.25000000  1
  B  B23  1  0.00000000  0.89462900  0.25000000  1
  B  B24  1  0.77203767  0.43870433  0.58333333  1
  B  B25  1  0.66666667  0.43870433  0.08333333  1
  B  B26  1  0.77203767  0.33333333  0.08333333  1
  B  B27  1  0.56129567  0.22796233  0.08333333  1
  B  B28  1  0.56129567  0.33333333  0.58333333  1
  B  B29  1  0.66666667  0.22796233  0.58333333  1
  B  B30  1  0.43870433  0.77203767  0.91666667  1
  B  B31  1  0.33333333  0.77203767  0.41666667  1
  B  B32  1  0.43870433  0.66666667  0.41666667  1
  B  B33  1  0.22796233  0.56129567  0.41666667  1
  B  B34  1  0.22796233  0.66666667  0.91666667  1
  B  B35  1  0.33333333  0.56129567  0.91666667  1
  O  O36  1  0.10071500  0.00000000  0.25000000  1
  O  O37  1  0.10071500  0.10071500  0.75000000  1
  O  O38  1  0.89928500  0.00000000  0.75000000  1
  O  O39  1  0.20138900  0.00000000  0.75000000  1
  O  O40  1  0.20138900  0.20138900  0.25000000  1
  O  O41  1  0.00000000  0.79861100  0.25000000  1
  O  O42  1  0.79861100  0.79861100  0.75000000  1
  O  O43  1  0.89928500  0.89928500  0.25000000  1
  O  O44  1  0.00000000  0.89928500  0.75000000  1
  O  O45  1  0.00000000  0.10071500  0.25000000  1
  O  O46  1  0.79861100  0.00000000  0.25000000  1
  O  O47  1  0.00000000  0.20138900  0.75000000  1
  O  O48  1  0.76738167  0.33333333  0.58333333  1
  O  O49  1  0.76738167  0.43404833  0.08333333  1
  O  O50  1  0.56595167  0.33333333  0.08333333  1
  O  O51  1  0.86805567  0.33333333  0.08333333  1
  O  O52  1  0.86805567  0.53472233  0.58333333  1
  O  O53  1  0.66666667  0.13194433  0.58333333  1
  O  O54  1  0.46527767  0.13194433  0.08333333  1
  O  O55  1  0.56595167  0.23261833  0.58333333  1
  O  O56  1  0.66666667  0.23261833  0.08333333  1
  O  O57  1  0.66666667  0.43404833  0.58333333  1
  O  O58  1  0.46527767  0.33333333  0.58333333  1
  O  O59  1  0.66666667  0.53472233  0.08333333  1
  O  O60  1  0.43404833  0.66666667  0.91666667  1
  O  O61  1  0.43404833  0.76738167  0.41666667  1
  O  O62  1  0.23261833  0.66666667  0.41666667  1
  O  O63  1  0.53472233  0.66666667  0.41666667  1
  O  O64  1  0.53472233  0.86805567  0.91666667  1
  O  O65  1  0.33333333  0.46527767  0.91666667  1
  O  O66  1  0.13194433  0.46527767  0.41666667  1
  O  O67  1  0.23261833  0.56595167  0.91666667  1
  O  O68  1  0.33333333  0.56595167  0.41666667  1
  O  O69  1  0.33333333  0.76738167  0.91666667  1
  O  O70  1  0.13194433  0.66666667  0.91666667  1
  O  O71  1  0.33333333  0.86805567  0.41666667  1
