# generated using pymatgen
data_Na4Sn3O8
_symmetry_space_group_name_H-M   'P 1'
_cell_length_a   9.35391900
_cell_length_b   9.35391900
_cell_length_c   9.35391900
_cell_angle_alpha   90.00000000
_cell_angle_beta   90.00000000
_cell_angle_gamma   90.00000000
_symmetry_Int_Tables_number   1
_chemical_formula_structural   Na4Sn3O8
_chemical_formula_sum   'Na16 Sn12 O32'
_cell_volume   818.42863220
_cell_formula_units_Z   4
loop_
 _symmetry_equiv_pos_site_id
 _symmetry_equiv_pos_as_xyz
  1  'x, y, z'
loop_
 _atom_site_type_symbol
 _atom_site_label
 _atom_site_symmetry_multiplicity
 _atom_site_fract_x
 _atom_site_fract_y
 _atom_site_fract_z
 _atom_site_occupancy
  Na  Na0  1  0.10589000  0.87500000  0.64411000  1
  Na  Na1  1  0.12500000  0.14411000  0.39411000  1
  Na  Na2  1  0.12500000  0.37500000  0.62500000  1
  Na  Na3  1  0.14411000  0.39411000  0.12500000  1
  Na  Na4  1  0.35589000  0.60589000  0.62500000  1
  Na  Na5  1  0.37500000  0.62500000  0.12500000  1
  Na  Na6  1  0.37500000  0.85589000  0.89411000  1
  Na  Na7  1  0.39411000  0.12500000  0.14411000  1
  Na  Na8  1  0.60589000  0.62500000  0.35589000  1
  Na  Na9  1  0.62500000  0.12500000  0.37500000  1
  Na  Na10  1  0.62500000  0.35589000  0.60589000  1
  Na  Na11  1  0.64411000  0.10589000  0.87500000  1
  Na  Na12  1  0.85589000  0.89411000  0.37500000  1
  Na  Na13  1  0.87500000  0.64411000  0.10589000  1
  Na  Na14  1  0.87500000  0.87500000  0.87500000  1
  Na  Na15  1  0.89411000  0.37500000  0.85589000  1
  Sn  Sn16  1  0.11752800  0.63247200  0.37500000  1
  Sn  Sn17  1  0.12500000  0.88247200  0.13247200  1
  Sn  Sn18  1  0.13247200  0.12500000  0.88247200  1
  Sn  Sn19  1  0.36752800  0.87500000  0.38247200  1
  Sn  Sn20  1  0.37500000  0.11752800  0.63247200  1
  Sn  Sn21  1  0.38247200  0.36752800  0.87500000  1
  Sn  Sn22  1  0.61752800  0.86752800  0.62500000  1
  Sn  Sn23  1  0.62500000  0.61752800  0.86752800  1
  Sn  Sn24  1  0.63247200  0.37500000  0.11752800  1
  Sn  Sn25  1  0.86752800  0.62500000  0.61752800  1
  Sn  Sn26  1  0.87500000  0.38247200  0.36752800  1
  Sn  Sn27  1  0.88247200  0.13247200  0.12500000  1
  O  O28  1  0.09084700  0.63415500  0.59595600  1
  O  O29  1  0.09595600  0.40915300  0.36584500  1
  O  O30  1  0.11584500  0.65915300  0.15404400  1
  O  O31  1  0.11938700  0.11938700  0.11938700  1
  O  O32  1  0.13061300  0.86938700  0.36938700  1
  O  O33  1  0.13415500  0.90404400  0.90915300  1
  O  O34  1  0.15404400  0.11584500  0.65915300  1
  O  O35  1  0.15915300  0.34595600  0.88415500  1
  O  O36  1  0.34084700  0.65404400  0.38415500  1
  O  O37  1  0.34595600  0.88415500  0.15915300  1
  O  O38  1  0.36584500  0.09595600  0.40915300  1
  O  O39  1  0.36938700  0.13061300  0.86938700  1
  O  O40  1  0.38061300  0.88061300  0.61938700  1
  O  O41  1  0.38415500  0.34084700  0.65404400  1
  O  O42  1  0.40404400  0.59084700  0.86584500  1
  O  O43  1  0.40915300  0.36584500  0.09595600  1
  O  O44  1  0.59084700  0.86584500  0.40404400  1
  O  O45  1  0.59595600  0.09084700  0.63415500  1
  O  O46  1  0.61584500  0.84084700  0.84595600  1
  O  O47  1  0.61938700  0.38061300  0.88061300  1
  O  O48  1  0.63061300  0.63061300  0.63061300  1
  O  O49  1  0.63415500  0.59595600  0.09084700  1
  O  O50  1  0.65404400  0.38415500  0.34084700  1
  O  O51  1  0.65915300  0.15404400  0.11584500  1
  O  O52  1  0.84084700  0.84595600  0.61584500  1
  O  O53  1  0.84595600  0.61584500  0.84084700  1
  O  O54  1  0.86584500  0.40404400  0.59084700  1
  O  O55  1  0.86938700  0.36938700  0.13061300  1
  O  O56  1  0.88061300  0.61938700  0.38061300  1
  O  O57  1  0.88415500  0.15915300  0.34595600  1
  O  O58  1  0.90404400  0.90915300  0.13415500  1
  O  O59  1  0.90915300  0.13415500  0.90404400  1
