# generated using pymatgen
data_Sn2PCO6
_symmetry_space_group_name_H-M   'P 1'
_cell_length_a   4.82773300
_cell_length_b   6.03335800
_cell_length_c   22.74564615
_cell_angle_alpha   90.00000000
_cell_angle_beta   94.88291172
_cell_angle_gamma   90.00000000
_symmetry_Int_Tables_number   1
_chemical_formula_structural   Sn2PCO6
_chemical_formula_sum   'Sn8 P4 C4 O24'
_cell_volume   660.11800334
_cell_formula_units_Z   4
loop_
 _symmetry_equiv_pos_site_id
 _symmetry_equiv_pos_as_xyz
  1  'x, y, z'
loop_
 _atom_site_type_symbol
 _atom_site_label
 _atom_site_symmetry_multiplicity
 _atom_site_fract_x
 _atom_site_fract_y
 _atom_site_fract_z
 _atom_site_occupancy
  Sn  Sn0  1  0.75086500  0.84988900  0.31601100  1
  Sn  Sn1  1  0.23823100  0.87073600  0.06992300  1
  Sn  Sn2  1  0.76176900  0.12926400  0.93007700  1
  Sn  Sn3  1  0.24913500  0.34988900  0.18398900  1
  Sn  Sn4  1  0.24913500  0.15011100  0.68398900  1
  Sn  Sn5  1  0.75086500  0.65011100  0.81601100  1
  Sn  Sn6  1  0.76176900  0.37073600  0.43007700  1
  Sn  Sn7  1  0.23823100  0.62926400  0.56992300  1
  P  P8  1  0.22655600  0.26420100  0.82747200  1
  P  P9  1  0.77344400  0.76420100  0.67252800  1
  P  P10  1  0.77344400  0.73579900  0.17252800  1
  P  P11  1  0.22655600  0.23579900  0.32747200  1
  C  C12  1  0.43784200  0.08414100  0.52104300  1
  C  C13  1  0.56215800  0.91585900  0.47895700  1
  C  C14  1  0.56215800  0.58414100  0.97895700  1
  C  C15  1  0.43784200  0.41585900  0.02104300  1
  O  O16  1  0.08913700  0.80759500  0.66317900  1
  O  O17  1  0.25450100  0.40694100  0.27770700  1
  O  O18  1  0.72971500  0.98892800  0.44337400  1
  O  O19  1  0.72971500  0.51107200  0.94337400  1
  O  O20  1  0.34739700  0.00583900  0.31305000  1
  O  O21  1  0.74549900  0.59305900  0.72229300  1
  O  O22  1  0.51083600  0.28414000  0.51682500  1
  O  O23  1  0.74549900  0.90694100  0.22229300  1
  O  O24  1  0.27028500  0.01107200  0.55662600  1
  O  O25  1  0.35711900  0.33472300  0.38652100  1
  O  O26  1  0.35711900  0.16527700  0.88652100  1
  O  O27  1  0.48916400  0.71586000  0.48317500  1
  O  O28  1  0.91086300  0.19240500  0.33682100  1
  O  O29  1  0.08913700  0.69240500  0.16317900  1
  O  O30  1  0.34739700  0.49416100  0.81305000  1
  O  O31  1  0.65260300  0.50583900  0.18695000  1
  O  O32  1  0.65260300  0.99416100  0.68695000  1
  O  O33  1  0.25450100  0.09305900  0.77770700  1
  O  O34  1  0.27028500  0.48892800  0.05662600  1
  O  O35  1  0.91086300  0.30759500  0.83682100  1
  O  O36  1  0.51083600  0.21586000  0.01682500  1
  O  O37  1  0.64288100  0.83472300  0.11347900  1
  O  O38  1  0.64288100  0.66527700  0.61347900  1
  O  O39  1  0.48916400  0.78414000  0.98317500  1
