# generated using pymatgen
data_Mn(PO3)3
_symmetry_space_group_name_H-M   'P 1'
_cell_length_a   7.03158817
_cell_length_b   7.21635705
_cell_length_c   7.29936159
_cell_angle_alpha   84.02935989
_cell_angle_beta   86.07916188
_cell_angle_gamma   74.65940991
_symmetry_Int_Tables_number   1
_chemical_formula_structural   Mn(PO3)3
_chemical_formula_sum   'Mn2 P6 O18'
_cell_volume   354.93054131
_cell_formula_units_Z   2
loop_
 _symmetry_equiv_pos_site_id
 _symmetry_equiv_pos_as_xyz
  1  'x, y, z'
loop_
 _atom_site_type_symbol
 _atom_site_label
 _atom_site_symmetry_multiplicity
 _atom_site_fract_x
 _atom_site_fract_y
 _atom_site_fract_z
 _atom_site_occupancy
  Mn  Mn0  1  0.43288800  0.85084600  0.82701000  1
  Mn  Mn1  1  0.56711200  0.14915400  0.17299000  1
  P  P2  1  0.25366400  0.56164700  0.13511500  1
  P  P3  1  0.74633600  0.43835300  0.86488500  1
  P  P4  1  0.87113900  0.76487500  0.30815200  1
  P  P5  1  0.12886100  0.23512500  0.69184800  1
  P  P6  1  0.46337600  0.77569200  0.35365000  1
  P  P7  1  0.53662400  0.22430800  0.64635000  1
  O  O8  1  0.70484700  0.32917000  0.04380100  1
  O  O9  1  0.29515300  0.67083000  0.95619900  1
  O  O10  1  0.31813800  0.34375200  0.13921200  1
  O  O11  1  0.68186200  0.65624800  0.86078800  1
  O  O12  1  0.02404300  0.61455000  0.18022200  1
  O  O13  1  0.97595700  0.38545000  0.81977800  1
  O  O14  1  0.80571200  0.94863800  0.17470900  1
  O  O15  1  0.19428800  0.05136200  0.82529100  1
  O  O16  1  0.41782200  0.94924200  0.20808700  1
  O  O17  1  0.58217800  0.05075800  0.79191300  1
  O  O18  1  0.34978800  0.62401300  0.30405400  1
  O  O19  1  0.65021200  0.37598700  0.69594600  1
  O  O20  1  0.68954600  0.65999000  0.31937700  1
  O  O21  1  0.31045400  0.34001000  0.68062300  1
  O  O22  1  0.58203600  0.18991200  0.44914700  1
  O  O23  1  0.41796400  0.81008800  0.55085300  1
  O  O24  1  0.05369400  0.22830200  0.51152400  1
  O  O25  1  0.94630600  0.77169800  0.48847600  1
