# generated using pymatgen
data_Gd3NbS3O4
_symmetry_space_group_name_H-M   'P 1'
_cell_length_a   6.67624600
_cell_length_b   7.63882200
_cell_length_c   14.34444900
_cell_angle_alpha   90.00000000
_cell_angle_beta   90.00000000
_cell_angle_gamma   90.00000000
_symmetry_Int_Tables_number   1
_chemical_formula_structural   Gd3NbS3O4
_chemical_formula_sum   'Gd12 Nb4 S12 O16'
_cell_volume   731.54760317
_cell_formula_units_Z   4
loop_
 _symmetry_equiv_pos_site_id
 _symmetry_equiv_pos_as_xyz
  1  'x, y, z'
loop_
 _atom_site_type_symbol
 _atom_site_label
 _atom_site_symmetry_multiplicity
 _atom_site_fract_x
 _atom_site_fract_y
 _atom_site_fract_z
 _atom_site_occupancy
  Gd  Gd0  1  0.77575900  0.74982300  0.41861600  1
  Gd  Gd1  1  0.22424100  0.24982300  0.58138400  1
  Gd  Gd2  1  0.72424100  0.24982300  0.91861600  1
  Gd  Gd3  1  0.27575900  0.74982300  0.08138400  1
  Gd  Gd4  1  0.21658600  0.00550200  0.34339200  1
  Gd  Gd5  1  0.78341400  0.50550200  0.65660800  1
  Gd  Gd6  1  0.28341400  0.50550200  0.84339200  1
  Gd  Gd7  1  0.71658600  0.00550200  0.15660800  1
  Gd  Gd8  1  0.22590100  0.49511600  0.33487500  1
  Gd  Gd9  1  0.77409900  0.99511600  0.66512500  1
  Gd  Gd10  1  0.27409900  0.99511600  0.83487500  1
  Gd  Gd11  1  0.72590100  0.49511600  0.16512500  1
  Nb  Nb12  1  0.81578400  0.26167000  0.42769500  1
  Nb  Nb13  1  0.18421600  0.76167000  0.57230500  1
  Nb  Nb14  1  0.68421600  0.76167000  0.92769500  1
  Nb  Nb15  1  0.31578400  0.26167000  0.07230500  1
  S  S16  1  0.50221100  0.75682200  0.27350400  1
  S  S17  1  0.49778900  0.25682200  0.72649600  1
  S  S18  1  0.99778900  0.25682200  0.77350400  1
  S  S19  1  0.00221100  0.75682200  0.22649600  1
  S  S20  1  0.54567900  0.24266300  0.29764600  1
  S  S21  1  0.45432100  0.74266300  0.70235400  1
  S  S22  1  0.95432100  0.74266300  0.79764600  1
  S  S23  1  0.04567900  0.24266300  0.20235400  1
  S  S24  1  0.47518800  0.97549500  0.50598200  1
  S  S25  1  0.52481200  0.47549500  0.49401800  1
  S  S26  1  0.02481200  0.47549500  0.00598200  1
  S  S27  1  0.97518800  0.97549500  0.99401800  1
  O  O28  1  0.85618900  0.24378500  0.56325900  1
  O  O29  1  0.14381100  0.74378500  0.43674100  1
  O  O30  1  0.64381100  0.74378500  0.06325900  1
  O  O31  1  0.35618900  0.24378500  0.93674100  1
  O  O32  1  0.87548500  0.02712100  0.38481700  1
  O  O33  1  0.12451500  0.52712100  0.61518300  1
  O  O34  1  0.62451500  0.52712100  0.88481700  1
  O  O35  1  0.37548500  0.02712100  0.11518300  1
  O  O36  1  0.88199500  0.47945800  0.36709600  1
  O  O37  1  0.11800500  0.97945800  0.63290400  1
  O  O38  1  0.61800500  0.97945800  0.86709600  1
  O  O39  1  0.38199500  0.47945800  0.13290400  1
  O  O40  1  0.13488300  0.25892600  0.42738900  1
  O  O41  1  0.86511700  0.75892600  0.57261100  1
  O  O42  1  0.36511700  0.75892600  0.92738900  1
  O  O43  1  0.63488300  0.25892600  0.07261100  1
