# generated using pymatgen
data_KNa2Y(Si2O5)3
_symmetry_space_group_name_H-M   'P 1'
_cell_length_a   8.65355000
_cell_length_b   10.75042200
_cell_length_c   15.13293000
_cell_angle_alpha   90.00000000
_cell_angle_beta   90.00000000
_cell_angle_gamma   90.00000000
_symmetry_Int_Tables_number   1
_chemical_formula_structural   KNa2Y(Si2O5)3
_chemical_formula_sum   'K4 Na8 Y4 Si24 O60'
_cell_volume   1407.80610122
_cell_formula_units_Z   4
loop_
 _symmetry_equiv_pos_site_id
 _symmetry_equiv_pos_as_xyz
  1  'x, y, z'
loop_
 _atom_site_type_symbol
 _atom_site_label
 _atom_site_symmetry_multiplicity
 _atom_site_fract_x
 _atom_site_fract_y
 _atom_site_fract_z
 _atom_site_occupancy
  K  K0  1  0.50000000  0.31998700  0.25000000  1
  K  K1  1  0.50000000  0.68001300  0.75000000  1
  K  K2  1  0.00000000  0.81998700  0.75000000  1
  K  K3  1  0.00000000  0.18001300  0.25000000  1
  Na  Na4  1  0.25000000  0.25000000  0.99343700  1
  Na  Na5  1  0.75000000  0.75000000  0.00656300  1
  Na  Na6  1  0.75000000  0.25000000  0.99343700  1
  Na  Na7  1  0.25000000  0.75000000  0.00656300  1
  Na  Na8  1  0.75000000  0.75000000  0.49343700  1
  Na  Na9  1  0.25000000  0.25000000  0.50656300  1
  Na  Na10  1  0.25000000  0.75000000  0.49343700  1
  Na  Na11  1  0.75000000  0.25000000  0.50656300  1
  Y  Y12  1  0.50000000  0.50000000  0.00000000  1
  Y  Y13  1  0.00000000  0.00000000  0.00000000  1
  Y  Y14  1  0.00000000  0.00000000  0.50000000  1
  Y  Y15  1  0.50000000  0.50000000  0.50000000  1
  Si  Si16  1  0.82796150  0.47012350  0.14590950  1
  Si  Si17  1  0.50000000  0.78409700  0.14998800  1
  Si  Si18  1  0.82796150  0.47012350  0.35409050  1
  Si  Si19  1  0.00000000  0.71590300  0.14998800  1
  Si  Si20  1  0.00000000  0.28409700  0.85001200  1
  Si  Si21  1  0.82796150  0.52987650  0.85409050  1
  Si  Si22  1  0.17203850  0.52987650  0.85409050  1
  Si  Si23  1  0.50000000  0.21590300  0.85001200  1
  Si  Si24  1  0.82796150  0.52987650  0.64590950  1
  Si  Si25  1  0.17203850  0.52987650  0.64590950  1
  Si  Si26  1  0.17203850  0.47012350  0.14590950  1
  Si  Si27  1  0.17203850  0.47012350  0.35409050  1
  Si  Si28  1  0.32796150  0.97012350  0.64590950  1
  Si  Si29  1  0.00000000  0.28409700  0.64998800  1
  Si  Si30  1  0.32796150  0.97012350  0.85409050  1
  Si  Si31  1  0.50000000  0.21590300  0.64998800  1
  Si  Si32  1  0.50000000  0.78409700  0.35001200  1
  Si  Si33  1  0.32796150  0.02987650  0.35409050  1
  Si  Si34  1  0.67203850  0.02987650  0.35409050  1
  Si  Si35  1  0.00000000  0.71590300  0.35001200  1
  Si  Si36  1  0.32796150  0.02987650  0.14590950  1
  Si  Si37  1  0.67203850  0.02987650  0.14590950  1
  Si  Si38  1  0.67203850  0.97012350  0.64590950  1
  Si  Si39  1  0.67203850  0.97012350  0.85409050  1
  O  O40  1  0.69110000  0.58324400  0.58639700  1
  O  O41  1  0.84753000  0.62272100  0.13891900  1
  O  O42  1  0.30890000  0.41675600  0.41360300  1
  O  O43  1  0.50000000  0.31667100  0.92744600  1
  O  O44  1  0.15247000  0.62272100  0.13891900  1
  O  O45  1  0.69110000  0.58324400  0.91360300  1
  O  O46  1  0.79413150  0.43074050  0.25000000  1
  O  O47  1  0.30890000  0.58324400  0.91360300  1
  O  O48  1  0.00000000  0.18332900  0.92744600  1
  O  O49  1  0.15247000  0.62272100  0.36108100  1
  O  O50  1  0.20586850  0.56925950  0.75000000  1
  O  O51  1  0.50000000  0.68332900  0.07255400  1
  O  O52  1  0.30890000  0.58324400  0.58639700  1
  O  O53  1  0.84753000  0.37727900  0.86108100  1
  O  O54  1  0.30890000  0.41675600  0.08639700  1
  O  O55  1  0.00000000  0.59103600  0.87881800  1
  O  O56  1  0.15247000  0.37727900  0.86108100  1
  O  O57  1  0.00000000  0.40896400  0.37881800  1
  O  O58  1  0.69110000  0.41675600  0.08639700  1
  O  O59  1  0.79413150  0.56925950  0.75000000  1
  O  O60  1  0.50000000  0.72501000  0.25000000  1
  O  O61  1  0.69110000  0.41675600  0.41360300  1
  O  O62  1  0.20586850  0.43074050  0.25000000  1
  O  O63  1  0.50000000  0.27499000  0.75000000  1
  O  O64  1  0.15247000  0.37727900  0.63891900  1
  O  O65  1  0.84753000  0.62272100  0.36108100  1
  O  O66  1  0.84753000  0.37727900  0.63891900  1
  O  O67  1  0.00000000  0.59103600  0.62118200  1
  O  O68  1  0.00000000  0.81667100  0.07255400  1
  O  O69  1  0.00000000  0.40896400  0.12118200  1
  O  O70  1  0.19110000  0.08324400  0.08639700  1
  O  O71  1  0.34753000  0.12272100  0.63891900  1
  O  O72  1  0.80890000  0.91675600  0.91360300  1
  O  O73  1  0.00000000  0.81667100  0.42744600  1
  O  O74  1  0.65247000  0.12272100  0.63891900  1
  O  O75  1  0.19110000  0.08324400  0.41360300  1
  O  O76  1  0.29413150  0.93074050  0.75000000  1
  O  O77  1  0.80890000  0.08324400  0.41360300  1
  O  O78  1  0.50000000  0.68332900  0.42744600  1
  O  O79  1  0.65247000  0.12272100  0.86108100  1
  O  O80  1  0.70586850  0.06925950  0.25000000  1
  O  O81  1  0.00000000  0.18332900  0.57255400  1
  O  O82  1  0.80890000  0.08324400  0.08639700  1
  O  O83  1  0.34753000  0.87727900  0.36108100  1
  O  O84  1  0.80890000  0.91675600  0.58639700  1
  O  O85  1  0.50000000  0.09103600  0.37881800  1
  O  O86  1  0.65247000  0.87727900  0.36108100  1
  O  O87  1  0.50000000  0.90896400  0.87881800  1
  O  O88  1  0.19110000  0.91675600  0.58639700  1
  O  O89  1  0.29413150  0.06925950  0.25000000  1
  O  O90  1  0.00000000  0.22501000  0.75000000  1
  O  O91  1  0.19110000  0.91675600  0.91360300  1
  O  O92  1  0.70586850  0.93074050  0.75000000  1
  O  O93  1  0.00000000  0.77499000  0.25000000  1
  O  O94  1  0.65247000  0.87727900  0.13891900  1
  O  O95  1  0.34753000  0.12272100  0.86108100  1
  O  O96  1  0.34753000  0.87727900  0.13891900  1
  O  O97  1  0.50000000  0.09103600  0.12118200  1
  O  O98  1  0.50000000  0.31667100  0.57255400  1
  O  O99  1  0.50000000  0.90896400  0.62118200  1
