# generated using pymatgen
data_Zn3P2H2O9
_symmetry_space_group_name_H-M   'P 1'
_cell_length_a   8.81469400
_cell_length_b   4.94081200
_cell_length_c   16.99514649
_cell_angle_alpha   90.00000000
_cell_angle_beta   95.18503413
_cell_angle_gamma   90.00000000
_symmetry_Int_Tables_number   1
_chemical_formula_structural   Zn3P2H2O9
_chemical_formula_sum   'Zn12 P8 H8 O36'
_cell_volume   737.13956092
_cell_formula_units_Z   4
loop_
 _symmetry_equiv_pos_site_id
 _symmetry_equiv_pos_as_xyz
  1  'x, y, z'
loop_
 _atom_site_type_symbol
 _atom_site_label
 _atom_site_symmetry_multiplicity
 _atom_site_fract_x
 _atom_site_fract_y
 _atom_site_fract_z
 _atom_site_occupancy
  Zn  Zn0  1  0.91993500  0.50964100  0.31950300  1
  Zn  Zn1  1  0.56612000  0.79569300  0.34642700  1
  Zn  Zn2  1  0.32997500  0.20172100  0.44461000  1
  Zn  Zn3  1  0.08006500  0.00964100  0.18049700  1
  Zn  Zn4  1  0.32997500  0.29827900  0.94461000  1
  Zn  Zn5  1  0.67002500  0.79827900  0.55539000  1
  Zn  Zn6  1  0.43388000  0.20430700  0.65357300  1
  Zn  Zn7  1  0.91993500  0.99035900  0.81950300  1
  Zn  Zn8  1  0.08006500  0.49035900  0.68049700  1
  Zn  Zn9  1  0.43388000  0.29569300  0.15357300  1
  Zn  Zn10  1  0.56612000  0.70430700  0.84642700  1
  Zn  Zn11  1  0.67002500  0.70172100  0.05539000  1
  P  P12  1  0.31480000  0.70923000  0.55580900  1
  P  P13  1  0.23821200  0.49110400  0.28320400  1
  P  P14  1  0.76178800  0.50889600  0.71679600  1
  P  P15  1  0.68520000  0.20923000  0.94419100  1
  P  P16  1  0.68520000  0.29077000  0.44419100  1
  P  P17  1  0.31480000  0.79077000  0.05580900  1
  P  P18  1  0.76178800  0.99110400  0.21679600  1
  P  P19  1  0.23821200  0.00889600  0.78320400  1
  H  H20  1  0.06755500  0.45428100  0.09301200  1
  H  H21  1  0.91696700  0.28525300  0.06547400  1
  H  H22  1  0.91696700  0.21474700  0.56547400  1
  H  H23  1  0.08303300  0.71474700  0.93452600  1
  H  H24  1  0.06755500  0.04571900  0.59301200  1
  H  H25  1  0.93244500  0.54571900  0.90698800  1
  H  H26  1  0.08303300  0.78525300  0.43452600  1
  H  H27  1  0.93244500  0.95428100  0.40698800  1
  O  O28  1  0.97323900  0.76928600  0.41688400  1
  O  O29  1  0.74109900  0.76745600  0.28184400  1
  O  O30  1  0.19762700  0.15497300  0.85941400  1
  O  O31  1  0.25890100  0.26745600  0.21815600  1
  O  O32  1  0.38465700  0.84185200  0.79063700  1
  O  O33  1  0.19762700  0.34502700  0.35941400  1
  O  O34  1  0.18303900  0.75523600  0.10695000  1
  O  O35  1  0.90479800  0.33197500  0.74154600  1
  O  O36  1  0.80237300  0.65497300  0.64058600  1
  O  O37  1  0.63872200  0.59688000  0.45161500  1
  O  O38  1  0.81696100  0.24476400  0.89305000  1
  O  O39  1  0.46172100  0.64529600  0.09647500  1
  O  O40  1  0.97323900  0.73071400  0.91688400  1
  O  O41  1  0.46172100  0.85470400  0.59647500  1
  O  O42  1  0.27742900  0.82781300  0.47217500  1
  O  O43  1  0.38465700  0.65814800  0.29063700  1
  O  O44  1  0.63872200  0.90312000  0.95161500  1
  O  O45  1  0.80237300  0.84502700  0.14058600  1
  O  O46  1  0.81696100  0.25523600  0.39305000  1
  O  O47  1  0.36127800  0.40312000  0.54838500  1
  O  O48  1  0.90479800  0.16802500  0.24154600  1
  O  O49  1  0.18303900  0.74476400  0.60695000  1
  O  O50  1  0.27742900  0.67218700  0.97217500  1
  O  O51  1  0.25890100  0.23254400  0.71815600  1
  O  O52  1  0.74109900  0.73254400  0.78184400  1
  O  O53  1  0.09520200  0.83197500  0.75845400  1
  O  O54  1  0.09520200  0.66802500  0.25845400  1
  O  O55  1  0.02676100  0.23071400  0.58311600  1
  O  O56  1  0.61534300  0.15814800  0.20936300  1
  O  O57  1  0.53827900  0.14529600  0.40352500  1
  O  O58  1  0.61534300  0.34185200  0.70936300  1
  O  O59  1  0.02676100  0.26928600  0.08311600  1
  O  O60  1  0.72257100  0.32781300  0.02782500  1
  O  O61  1  0.53827900  0.35470400  0.90352500  1
  O  O62  1  0.72257100  0.17218700  0.52782500  1
  O  O63  1  0.36127800  0.09688000  0.04838500  1
