# generated using pymatgen
data_Na2Zn(SiO3)2
_symmetry_space_group_name_H-M   'P 1'
_cell_length_a   6.24456800
_cell_length_b   9.63871600
_cell_length_c   10.04527611
_cell_angle_alpha   90.00000000
_cell_angle_beta   92.61519490
_cell_angle_gamma   90.00000000
_symmetry_Int_Tables_number   1
_chemical_formula_structural   Na2Zn(SiO3)2
_chemical_formula_sum   'Na8 Zn4 Si8 O24'
_cell_volume   603.99161629
_cell_formula_units_Z   4
loop_
 _symmetry_equiv_pos_site_id
 _symmetry_equiv_pos_as_xyz
  1  'x, y, z'
loop_
 _atom_site_type_symbol
 _atom_site_label
 _atom_site_symmetry_multiplicity
 _atom_site_fract_x
 _atom_site_fract_y
 _atom_site_fract_z
 _atom_site_occupancy
  Na  Na0  1  0.56420050  0.17886650  0.10380500  1
  Na  Na1  1  0.43579950  0.17886650  0.39619500  1
  Na  Na2  1  0.43579950  0.82113350  0.89619500  1
  Na  Na3  1  0.56420050  0.82113350  0.60380500  1
  Na  Na4  1  0.06420050  0.67886650  0.10380500  1
  Na  Na5  1  0.93579950  0.67886650  0.39619500  1
  Na  Na6  1  0.93579950  0.32113350  0.89619500  1
  Na  Na7  1  0.06420050  0.32113350  0.60380500  1
  Zn  Zn8  1  0.50000000  0.77577500  0.25000000  1
  Zn  Zn9  1  0.50000000  0.22422500  0.75000000  1
  Zn  Zn10  1  0.00000000  0.27577500  0.25000000  1
  Zn  Zn11  1  0.00000000  0.72422500  0.75000000  1
  Si  Si12  1  0.15110350  0.99020950  0.13793000  1
  Si  Si13  1  0.84889650  0.00979050  0.86207000  1
  Si  Si14  1  0.15110350  0.00979050  0.63793000  1
  Si  Si15  1  0.84889650  0.99020950  0.36207000  1
  Si  Si16  1  0.65110350  0.49020950  0.13793000  1
  Si  Si17  1  0.34889650  0.50979050  0.86207000  1
  Si  Si18  1  0.65110350  0.50979050  0.63793000  1
  Si  Si19  1  0.34889650  0.49020950  0.36207000  1
  O  O20  1  0.50000000  0.41467100  0.25000000  1
  O  O21  1  0.65345000  0.88377300  0.39086100  1
  O  O22  1  0.77319850  0.14338550  0.31108800  1
  O  O23  1  0.34655000  0.11622700  0.60913900  1
  O  O24  1  0.65345000  0.11622700  0.89086100  1
  O  O25  1  0.34655000  0.88377300  0.10913900  1
  O  O26  1  0.22680150  0.85661450  0.68891200  1
  O  O27  1  0.00000000  0.00000000  0.50000000  1
  O  O28  1  0.77319850  0.85661450  0.81108800  1
  O  O29  1  0.22680150  0.14338550  0.18891200  1
  O  O30  1  0.50000000  0.58532900  0.75000000  1
  O  O31  1  0.00000000  0.00000000  0.00000000  1
  O  O32  1  0.00000000  0.91467100  0.25000000  1
  O  O33  1  0.15345000  0.38377300  0.39086100  1
  O  O34  1  0.27319850  0.64338550  0.31108800  1
  O  O35  1  0.84655000  0.61622700  0.60913900  1
  O  O36  1  0.15345000  0.61622700  0.89086100  1
  O  O37  1  0.84655000  0.38377300  0.10913900  1
  O  O38  1  0.72680150  0.35661450  0.68891200  1
  O  O39  1  0.50000000  0.50000000  0.50000000  1
  O  O40  1  0.27319850  0.35661450  0.81108800  1
  O  O41  1  0.72680150  0.64338550  0.18891200  1
  O  O42  1  0.00000000  0.08532900  0.75000000  1
  O  O43  1  0.50000000  0.50000000  0.00000000  1
