# generated using pymatgen
data_Nb2Tl5S4Br9
_symmetry_space_group_name_H-M   'P 1'
_cell_length_a   7.45033600
_cell_length_b   10.39105800
_cell_length_c   16.26838600
_cell_angle_alpha   90.00000000
_cell_angle_beta   90.00000000
_cell_angle_gamma   90.00000000
_symmetry_Int_Tables_number   1
_chemical_formula_structural   Nb2Tl5S4Br9
_chemical_formula_sum   'Nb4 Tl10 S8 Br18'
_cell_volume   1259.44758094
_cell_formula_units_Z   2
loop_
 _symmetry_equiv_pos_site_id
 _symmetry_equiv_pos_as_xyz
  1  'x, y, z'
loop_
 _atom_site_type_symbol
 _atom_site_label
 _atom_site_symmetry_multiplicity
 _atom_site_fract_x
 _atom_site_fract_y
 _atom_site_fract_z
 _atom_site_occupancy
  Nb  Nb0  1  0.50000000  0.50000000  0.41049700  1
  Nb  Nb1  1  0.50000000  0.50000000  0.58950300  1
  Nb  Nb2  1  0.00000000  0.00000000  0.91049700  1
  Nb  Nb3  1  0.00000000  0.00000000  0.08950300  1
  Tl  Tl4  1  0.50000000  0.71769300  0.16561300  1
  Tl  Tl5  1  0.00000000  0.50000000  0.00000000  1
  Tl  Tl6  1  0.50000000  0.71769300  0.83438700  1
  Tl  Tl7  1  0.50000000  0.28230700  0.83438700  1
  Tl  Tl8  1  0.50000000  0.28230700  0.16561300  1
  Tl  Tl9  1  0.00000000  0.21769300  0.66561300  1
  Tl  Tl10  1  0.50000000  0.00000000  0.50000000  1
  Tl  Tl11  1  0.00000000  0.21769300  0.33438700  1
  Tl  Tl12  1  0.00000000  0.78230700  0.33438700  1
  Tl  Tl13  1  0.00000000  0.78230700  0.66561300  1
  S  S14  1  0.23919200  0.09714300  0.00000000  1
  S  S15  1  0.76080800  0.90285700  0.00000000  1
  S  S16  1  0.76080800  0.09714300  0.00000000  1
  S  S17  1  0.23919200  0.90285700  0.00000000  1
  S  S18  1  0.73919200  0.59714300  0.50000000  1
  S  S19  1  0.26080800  0.40285700  0.50000000  1
  S  S20  1  0.26080800  0.59714300  0.50000000  1
  S  S21  1  0.73919200  0.40285700  0.50000000  1
  Br  Br22  1  0.74523900  0.50000000  0.28753600  1
  Br  Br23  1  0.25476100  0.50000000  0.71246400  1
  Br  Br24  1  0.00000000  0.26083600  0.86624800  1
  Br  Br25  1  0.00000000  0.26083600  0.13375200  1
  Br  Br26  1  0.25476100  0.50000000  0.28753600  1
  Br  Br27  1  0.74523900  0.50000000  0.71246400  1
  Br  Br28  1  0.00000000  0.73916400  0.86624800  1
  Br  Br29  1  0.50000000  0.50000000  0.00000000  1
  Br  Br30  1  0.00000000  0.73916400  0.13375200  1
  Br  Br31  1  0.24523900  0.00000000  0.78753600  1
  Br  Br32  1  0.75476100  0.00000000  0.21246400  1
  Br  Br33  1  0.50000000  0.76083600  0.36624800  1
  Br  Br34  1  0.50000000  0.76083600  0.63375200  1
  Br  Br35  1  0.75476100  0.00000000  0.78753600  1
  Br  Br36  1  0.24523900  0.00000000  0.21246400  1
  Br  Br37  1  0.50000000  0.23916400  0.36624800  1
  Br  Br38  1  0.00000000  0.00000000  0.50000000  1
  Br  Br39  1  0.50000000  0.23916400  0.63375200  1
