# generated using pymatgen
data_K2Ge(IO3)6
_symmetry_space_group_name_H-M   'P 1'
_cell_length_a   11.40160264
_cell_length_b   11.40160264
_cell_length_c   11.62014378
_cell_angle_alpha   90.00000000
_cell_angle_beta   90.00000000
_cell_angle_gamma   120.00000000
_symmetry_Int_Tables_number   1
_chemical_formula_structural   K2Ge(IO3)6
_chemical_formula_sum   'K6 Ge3 I18 O54'
_cell_volume   1308.19937214
_cell_formula_units_Z   3
loop_
 _symmetry_equiv_pos_site_id
 _symmetry_equiv_pos_as_xyz
  1  'x, y, z'
loop_
 _atom_site_type_symbol
 _atom_site_label
 _atom_site_symmetry_multiplicity
 _atom_site_fract_x
 _atom_site_fract_y
 _atom_site_fract_z
 _atom_site_occupancy
  K  K0  1  0.00000000  0.00000000  0.32160800  1
  K  K1  1  0.00000000  0.00000000  0.67839200  1
  K  K2  1  0.66666667  0.33333333  0.65494133  1
  K  K3  1  0.66666667  0.33333333  0.01172533  1
  K  K4  1  0.33333333  0.66666667  0.98827467  1
  K  K5  1  0.33333333  0.66666667  0.34505867  1
  Ge  Ge6  1  0.00000000  0.00000000  0.00000000  1
  Ge  Ge7  1  0.66666667  0.33333333  0.33333333  1
  Ge  Ge8  1  0.33333333  0.66666667  0.66666667  1
  I  I9  1  0.08195133  0.72698967  0.55960967  1
  I  I10  1  0.64503833  0.91804867  0.55960967  1
  I  I11  1  0.91804867  0.27301033  0.44039033  1
  I  I12  1  0.27301033  0.35496167  0.55960967  1
  I  I13  1  0.35496167  0.08195133  0.44039033  1
  I  I14  1  0.72698967  0.64503833  0.44039033  1
  I  I15  1  0.74861800  0.06032300  0.89294300  1
  I  I16  1  0.31170500  0.25138200  0.89294300  1
  I  I17  1  0.58471533  0.60634367  0.77372367  1
  I  I18  1  0.93967700  0.68829500  0.89294300  1
  I  I19  1  0.02162833  0.41528467  0.77372367  1
  I  I20  1  0.39365633  0.97837167  0.77372367  1
  I  I21  1  0.41528467  0.39365633  0.22627633  1
  I  I22  1  0.97837167  0.58471533  0.22627633  1
  I  I23  1  0.25138200  0.93967700  0.10705700  1
  I  I24  1  0.60634367  0.02162833  0.22627633  1
  I  I25  1  0.68829500  0.74861800  0.10705700  1
  I  I26  1  0.06032300  0.31170500  0.10705700  1
  O  O27  1  0.25898133  0.74629067  0.56491667  1
  O  O28  1  0.81671767  0.71785233  0.30566033  1
  O  O29  1  0.28214767  0.09886533  0.30566033  1
  O  O30  1  0.51269067  0.25898133  0.43508333  1
  O  O31  1  0.13604600  0.86405900  0.45510000  1
  O  O32  1  0.13594100  0.27198700  0.45510000  1
  O  O33  1  0.71785233  0.90113467  0.69433967  1
  O  O34  1  0.18328233  0.28214767  0.69433967  1
  O  O35  1  0.90113467  0.18328233  0.30566033  1
  O  O36  1  0.74629067  0.48730933  0.43508333  1
  O  O37  1  0.25370933  0.51269067  0.56491667  1
  O  O38  1  0.74101867  0.25370933  0.43508333  1
  O  O39  1  0.48730933  0.74101867  0.56491667  1
  O  O40  1  0.72801300  0.86395400  0.45510000  1
  O  O41  1  0.09886533  0.81671767  0.69433967  1
  O  O42  1  0.86395400  0.13594100  0.54490000  1
  O  O43  1  0.27198700  0.13604600  0.54490000  1
  O  O44  1  0.86405900  0.72801300  0.54490000  1
  O  O45  1  0.92564800  0.07962400  0.89825000  1
  O  O46  1  0.48338433  0.05118567  0.63899367  1
  O  O47  1  0.94881433  0.43219867  0.63899367  1
  O  O48  1  0.17935733  0.59231467  0.76841667  1
  O  O49  1  0.80271267  0.19739233  0.78843333  1
  O  O50  1  0.80260767  0.60532033  0.78843333  1
  O  O51  1  0.38451900  0.23446800  0.02767300  1
  O  O52  1  0.84994900  0.61548100  0.02767300  1
  O  O53  1  0.56780133  0.51661567  0.63899367  1
  O  O54  1  0.41295733  0.82064267  0.76841667  1
  O  O55  1  0.92037600  0.84602400  0.89825000  1
  O  O56  1  0.40768533  0.58704267  0.76841667  1
  O  O57  1  0.15397600  0.07435200  0.89825000  1
  O  O58  1  0.39467967  0.19728733  0.78843333  1
  O  O59  1  0.76553200  0.15005100  0.02767300  1
  O  O60  1  0.53062067  0.46927433  0.87823333  1
  O  O61  1  0.93865367  0.46937933  0.87823333  1
  O  O62  1  0.53072567  0.06134633  0.87823333  1
  O  O63  1  0.59231467  0.41295733  0.23158333  1
  O  O64  1  0.15005100  0.38451900  0.97232700  1
  O  O65  1  0.61548100  0.76553200  0.97232700  1
  O  O66  1  0.84602400  0.92564800  0.10175000  1
  O  O67  1  0.46937933  0.53072567  0.12176667  1
  O  O68  1  0.46927433  0.93865367  0.12176667  1
  O  O69  1  0.05118567  0.56780133  0.36100633  1
  O  O70  1  0.51661567  0.94881433  0.36100633  1
  O  O71  1  0.23446800  0.84994900  0.97232700  1
  O  O72  1  0.07962400  0.15397600  0.10175000  1
  O  O73  1  0.58704267  0.17935733  0.23158333  1
  O  O74  1  0.07435200  0.92037600  0.10175000  1
  O  O75  1  0.82064267  0.40768533  0.23158333  1
  O  O76  1  0.06134633  0.53062067  0.12176667  1
  O  O77  1  0.43219867  0.48338433  0.36100633  1
  O  O78  1  0.19728733  0.80260767  0.21156667  1
  O  O79  1  0.60532033  0.80271267  0.21156667  1
  O  O80  1  0.19739233  0.39467967  0.21156667  1
