# generated using pymatgen
data_LaPb6ClO7
_symmetry_space_group_name_H-M   'P 1'
_cell_length_a   19.08176200
_cell_length_b   8.20532600
_cell_length_c   9.81468672
_cell_angle_alpha   90.00000000
_cell_angle_beta   118.44462233
_cell_angle_gamma   90.00000000
_symmetry_Int_Tables_number   1
_chemical_formula_structural   LaPb6ClO7
_chemical_formula_sum   'La4 Pb24 Cl4 O28'
_cell_volume   1351.19151072
_cell_formula_units_Z   4
loop_
 _symmetry_equiv_pos_site_id
 _symmetry_equiv_pos_as_xyz
  1  'x, y, z'
loop_
 _atom_site_type_symbol
 _atom_site_label
 _atom_site_symmetry_multiplicity
 _atom_site_fract_x
 _atom_site_fract_y
 _atom_site_fract_z
 _atom_site_occupancy
  La  La0  1  0.25000000  0.75000000  0.00000000  1
  La  La1  1  0.25000000  0.25000000  0.00000000  1
  La  La2  1  0.75000000  0.25000000  0.00000000  1
  La  La3  1  0.75000000  0.75000000  0.00000000  1
  Pb  Pb4  1  0.20094700  0.00000000  0.27012600  1
  Pb  Pb5  1  0.36710950  0.73312750  0.44057200  1
  Pb  Pb6  1  0.05449800  0.00000000  0.82608700  1
  Pb  Pb7  1  0.43794900  0.00000000  0.23786800  1
  Pb  Pb8  1  0.13289050  0.23312750  0.55942800  1
  Pb  Pb9  1  0.34552800  0.00000000  0.79542600  1
  Pb  Pb10  1  0.15447200  0.50000000  0.20457400  1
  Pb  Pb11  1  0.06205100  0.50000000  0.76213200  1
  Pb  Pb12  1  0.29905300  0.50000000  0.72987400  1
  Pb  Pb13  1  0.36710950  0.26687250  0.44057200  1
  Pb  Pb14  1  0.13289050  0.76687250  0.55942800  1
  Pb  Pb15  1  0.44550200  0.50000000  0.17391300  1
  Pb  Pb16  1  0.70094700  0.50000000  0.27012600  1
  Pb  Pb17  1  0.86710950  0.23312750  0.44057200  1
  Pb  Pb18  1  0.55449800  0.50000000  0.82608700  1
  Pb  Pb19  1  0.93794900  0.50000000  0.23786800  1
  Pb  Pb20  1  0.63289050  0.73312750  0.55942800  1
  Pb  Pb21  1  0.84552800  0.50000000  0.79542600  1
  Pb  Pb22  1  0.65447200  0.00000000  0.20457400  1
  Pb  Pb23  1  0.56205100  0.00000000  0.76213200  1
  Pb  Pb24  1  0.79905300  0.00000000  0.72987400  1
  Pb  Pb25  1  0.86710950  0.76687250  0.44057200  1
  Pb  Pb26  1  0.63289050  0.26687250  0.55942800  1
  Pb  Pb27  1  0.94550200  0.00000000  0.17391300  1
  Cl  Cl28  1  0.00000000  0.26634500  0.00000000  1
  Cl  Cl29  1  0.00000000  0.73365500  0.00000000  1
  Cl  Cl30  1  0.50000000  0.76634500  0.00000000  1
  Cl  Cl31  1  0.50000000  0.23365500  0.00000000  1
  O  O32  1  0.25906200  0.21809300  0.74091200  1
  O  O33  1  0.33024300  0.00000000  0.01056700  1
  O  O34  1  0.15385100  0.50000000  0.62231800  1
  O  O35  1  0.39175150  0.27770350  0.24232200  1
  O  O36  1  0.39175150  0.72229650  0.24232200  1
  O  O37  1  0.10824850  0.22229650  0.75767800  1
  O  O38  1  0.16975700  0.50000000  0.98943300  1
  O  O39  1  0.10824850  0.77770350  0.75767800  1
  O  O40  1  0.25906200  0.78190700  0.74091200  1
  O  O41  1  0.31954200  0.50000000  0.97160600  1
  O  O42  1  0.24093800  0.71809300  0.25908800  1
  O  O43  1  0.34614900  0.00000000  0.37768200  1
  O  O44  1  0.18045800  0.00000000  0.02839400  1
  O  O45  1  0.24093800  0.28190700  0.25908800  1
  O  O46  1  0.75906200  0.71809300  0.74091200  1
  O  O47  1  0.83024300  0.50000000  0.01056700  1
  O  O48  1  0.65385100  0.00000000  0.62231800  1
  O  O49  1  0.89175150  0.77770350  0.24232200  1
  O  O50  1  0.89175150  0.22229650  0.24232200  1
  O  O51  1  0.60824850  0.72229650  0.75767800  1
  O  O52  1  0.66975700  0.00000000  0.98943300  1
  O  O53  1  0.60824850  0.27770350  0.75767800  1
  O  O54  1  0.75906200  0.28190700  0.74091200  1
  O  O55  1  0.81954200  0.00000000  0.97160600  1
  O  O56  1  0.74093800  0.21809300  0.25908800  1
  O  O57  1  0.84614900  0.50000000  0.37768200  1
  O  O58  1  0.68045800  0.50000000  0.02839400  1
  O  O59  1  0.74093800  0.78190700  0.25908800  1
