# generated using pymatgen
data_Cs3Mo2I9
_symmetry_space_group_name_H-M   'P 1'
_cell_length_a   8.44487425
_cell_length_b   8.44487425
_cell_length_c   20.45873400
_cell_angle_alpha   90.00000000
_cell_angle_beta   90.00000000
_cell_angle_gamma   120.00000000
_symmetry_Int_Tables_number   1
_chemical_formula_structural   Cs3Mo2I9
_chemical_formula_sum   'Cs6 Mo4 I18'
_cell_volume   1263.55968762
_cell_formula_units_Z   2
loop_
 _symmetry_equiv_pos_site_id
 _symmetry_equiv_pos_as_xyz
  1  'x, y, z'
loop_
 _atom_site_type_symbol
 _atom_site_label
 _atom_site_symmetry_multiplicity
 _atom_site_fract_x
 _atom_site_fract_y
 _atom_site_fract_z
 _atom_site_occupancy
  Cs  Cs0  1  0.33333333  0.66666667  0.43422200  1
  Cs  Cs1  1  0.66666667  0.33333333  0.93422200  1
  Cs  Cs2  1  0.00000000  0.00000000  0.75000000  1
  Cs  Cs3  1  0.33333333  0.66666667  0.06577800  1
  Cs  Cs4  1  0.66666667  0.33333333  0.56577800  1
  Cs  Cs5  1  0.00000000  0.00000000  0.25000000  1
  Mo  Mo6  1  0.66666667  0.33333333  0.17698400  1
  Mo  Mo7  1  0.33333333  0.66666667  0.67698400  1
  Mo  Mo8  1  0.33333333  0.66666667  0.82301600  1
  Mo  Mo9  1  0.66666667  0.33333333  0.32301600  1
  I  I10  1  0.82200400  0.64400800  0.40439600  1
  I  I11  1  0.17799600  0.35599200  0.59560400  1
  I  I12  1  0.35599200  0.17799600  0.09560400  1
  I  I13  1  0.64400800  0.82200400  0.59560400  1
  I  I14  1  0.82200400  0.17799600  0.40439600  1
  I  I15  1  0.50488500  0.00977000  0.25000000  1
  I  I16  1  0.17799600  0.82200400  0.59560400  1
  I  I17  1  0.64400800  0.82200400  0.90439600  1
  I  I18  1  0.99023000  0.49511500  0.25000000  1
  I  I19  1  0.17799600  0.82200400  0.90439600  1
  I  I20  1  0.82200400  0.17799600  0.09560400  1
  I  I21  1  0.49511500  0.50488500  0.75000000  1
  I  I22  1  0.35599200  0.17799600  0.40439600  1
  I  I23  1  0.49511500  0.99023000  0.75000000  1
  I  I24  1  0.00977000  0.50488500  0.75000000  1
  I  I25  1  0.17799600  0.35599200  0.90439600  1
  I  I26  1  0.50488500  0.49511500  0.25000000  1
  I  I27  1  0.82200400  0.64400800  0.09560400  1
