# generated using pymatgen
data_Mo2P3O13
_symmetry_space_group_name_H-M   'P 1'
_cell_length_a   6.43607100
_cell_length_b   19.23403800
_cell_length_c   9.90514761
_cell_angle_alpha   90.00000000
_cell_angle_beta   106.49221827
_cell_angle_gamma   90.00000000
_symmetry_Int_Tables_number   1
_chemical_formula_structural   Mo2P3O13
_chemical_formula_sum   'Mo8 P12 O52'
_cell_volume   1175.72750996
_cell_formula_units_Z   4
loop_
 _symmetry_equiv_pos_site_id
 _symmetry_equiv_pos_as_xyz
  1  'x, y, z'
loop_
 _atom_site_type_symbol
 _atom_site_label
 _atom_site_symmetry_multiplicity
 _atom_site_fract_x
 _atom_site_fract_y
 _atom_site_fract_z
 _atom_site_occupancy
  Mo  Mo0  1  0.06307500  0.78705700  0.38897500  1
  Mo  Mo1  1  0.37048800  0.81648900  0.93854600  1
  Mo  Mo2  1  0.13152900  0.50150100  0.06820700  1
  Mo  Mo3  1  0.43886100  0.53219000  0.61938900  1
  Mo  Mo4  1  0.56113900  0.03219000  0.38061100  1
  Mo  Mo5  1  0.86847100  0.00150100  0.93179300  1
  Mo  Mo6  1  0.62951200  0.31648900  0.06145400  1
  Mo  Mo7  1  0.93692500  0.28705700  0.61102500  1
  P  P8  1  0.08882200  0.33610400  0.96235200  1
  P  P9  1  0.01599100  0.06892500  0.28839200  1
  P  P10  1  0.23964600  0.69312600  0.69696900  1
  P  P11  1  0.26166800  0.62551500  0.31033700  1
  P  P12  1  0.59033200  0.48305900  0.96785400  1
  P  P13  1  0.48237200  0.24994600  0.70353300  1
  P  P14  1  0.51762800  0.74994600  0.29646700  1
  P  P15  1  0.40966800  0.98305900  0.03214600  1
  P  P16  1  0.73833200  0.12551500  0.68966300  1
  P  P17  1  0.76035400  0.19312600  0.30303100  1
  P  P18  1  0.98400900  0.56892500  0.71160800  1
  P  P19  1  0.91117800  0.83610400  0.03764800  1
  O  O20  1  0.03652100  0.55094500  0.86818900  1
  O  O21  1  0.06943000  0.81390300  0.95342700  1
  O  O22  1  0.07689800  0.41612200  0.94084200  1
  O  O23  1  0.03856400  0.29785500  0.82411100  1
  O  O24  1  0.02748100  0.65202100  0.70597700  1
  O  O25  1  0.17834400  0.00129100  0.93852800  1
  O  O26  1  0.12542300  0.53210400  0.63364000  1
  O  O27  1  0.05802800  0.87206700  0.43183800  1
  O  O28  1  0.16405700  0.75249200  0.59492700  1
  O  O29  1  0.09633400  0.67463600  0.33747300  1
  O  O30  1  0.29845400  0.86440500  0.78853300  1
  O  O31  1  0.32869700  0.72552100  0.84971600  1
  O  O32  1  0.24528300  0.25756500  0.62061100  1
  O  O33  1  0.25279700  0.06111900  0.37170400  1
  O  O34  1  0.20254800  0.45239000  0.21663300  1
  O  O35  1  0.17375100  0.59218600  0.15832900  1
  O  O36  1  0.40457800  0.64430100  0.66849200  1
  O  O37  1  0.53491500  0.26861800  0.85978700  1
  O  O38  1  0.56689800  0.00351800  0.94597300  1
  O  O39  1  0.33715500  0.56634900  0.41314300  1
  O  O40  1  0.57582200  0.40356300  0.93888400  1
  O  O41  1  0.54105700  0.52428700  0.83301400  1
  O  O42  1  0.44519100  0.44673800  0.58004000  1
  O  O43  1  0.37664400  0.78644900  0.37518900  1
  O  O44  1  0.52635100  0.16677000  0.69906100  1
  O  O45  1  0.68042300  0.81608500  0.94561600  1
  O  O46  1  0.31957700  0.31608500  0.05438400  1
  O  O47  1  0.47364900  0.66677000  0.30093900  1
  O  O48  1  0.62335600  0.28644900  0.62481100  1
  O  O49  1  0.55480900  0.94673800  0.41996000  1
  O  O50  1  0.45894300  0.02428700  0.16698600  1
  O  O51  1  0.42417800  0.90356300  0.06111600  1
  O  O52  1  0.66284500  0.06634900  0.58685700  1
  O  O53  1  0.43310200  0.50351800  0.05402700  1
  O  O54  1  0.46508500  0.76861800  0.14021300  1
  O  O55  1  0.59542200  0.14430100  0.33150800  1
  O  O56  1  0.82624900  0.09218600  0.84167100  1
  O  O57  1  0.79745200  0.95239000  0.78336700  1
  O  O58  1  0.74720300  0.56111900  0.62829600  1
  O  O59  1  0.75471700  0.75756500  0.37938900  1
  O  O60  1  0.67130300  0.22552100  0.15028400  1
  O  O61  1  0.70154600  0.36440500  0.21146700  1
  O  O62  1  0.90366600  0.17463600  0.66252700  1
  O  O63  1  0.83594300  0.25249200  0.40507300  1
  O  O64  1  0.94197200  0.37206700  0.56816200  1
  O  O65  1  0.87457700  0.03210400  0.36636000  1
  O  O66  1  0.82165600  0.50129100  0.06147200  1
  O  O67  1  0.97251900  0.15202100  0.29402300  1
  O  O68  1  0.96143600  0.79785500  0.17588900  1
  O  O69  1  0.92310200  0.91612200  0.05915800  1
  O  O70  1  0.93057000  0.31390300  0.04657300  1
  O  O71  1  0.96347900  0.05094500  0.13181100  1
