# generated using pymatgen
data_Na4Zr2Ti(CO4)4
_symmetry_space_group_name_H-M   'P 1'
_cell_length_a   10.31402800
_cell_length_b   6.73066600
_cell_length_c   18.19713098
_cell_angle_alpha   90.00000000
_cell_angle_beta   94.06446474
_cell_angle_gamma   90.00000000
_symmetry_Int_Tables_number   1
_chemical_formula_structural   Na4Zr2Ti(CO4)4
_chemical_formula_sum   'Na16 Zr8 Ti4 C16 O64'
_cell_volume   1260.07272738
_cell_formula_units_Z   4
loop_
 _symmetry_equiv_pos_site_id
 _symmetry_equiv_pos_as_xyz
  1  'x, y, z'
loop_
 _atom_site_type_symbol
 _atom_site_label
 _atom_site_symmetry_multiplicity
 _atom_site_fract_x
 _atom_site_fract_y
 _atom_site_fract_z
 _atom_site_occupancy
  Na  Na0  1  0.60275250  0.05967150  0.58169200  1
  Na  Na1  1  0.12807100  0.08670300  0.56628400  1
  Na  Na2  1  0.60275250  0.94032850  0.08169200  1
  Na  Na3  1  0.39724750  0.94032850  0.41830800  1
  Na  Na4  1  0.87192900  0.91329700  0.43371600  1
  Na  Na5  1  0.39724750  0.05967150  0.91830800  1
  Na  Na6  1  0.87192900  0.08670300  0.93371600  1
  Na  Na7  1  0.12807100  0.91329700  0.06628400  1
  Na  Na8  1  0.10275250  0.55967150  0.58169200  1
  Na  Na9  1  0.62807100  0.58670300  0.56628400  1
  Na  Na10  1  0.10275250  0.44032850  0.08169200  1
  Na  Na11  1  0.89724750  0.44032850  0.41830800  1
  Na  Na12  1  0.37192900  0.41329700  0.43371600  1
  Na  Na13  1  0.89724750  0.55967150  0.91830800  1
  Na  Na14  1  0.37192900  0.58670300  0.93371600  1
  Na  Na15  1  0.62807100  0.41329700  0.06628400  1
  Zr  Zr16  1  0.80769350  0.81206250  0.75223000  1
  Zr  Zr17  1  0.19230650  0.81206250  0.74777000  1
  Zr  Zr18  1  0.80769350  0.18793750  0.25223000  1
  Zr  Zr19  1  0.19230650  0.18793750  0.24777000  1
  Zr  Zr20  1  0.30769350  0.31206250  0.75223000  1
  Zr  Zr21  1  0.69230650  0.31206250  0.74777000  1
  Zr  Zr22  1  0.30769350  0.68793750  0.25223000  1
  Zr  Zr23  1  0.69230650  0.68793750  0.24777000  1
  Ti  Ti24  1  0.50000000  0.19257300  0.25000000  1
  Ti  Ti25  1  0.50000000  0.80742700  0.75000000  1
  Ti  Ti26  1  0.00000000  0.69257300  0.25000000  1
  Ti  Ti27  1  0.00000000  0.30742700  0.75000000  1
  C  C28  1  0.40537600  0.66504300  0.11659000  1
  C  C29  1  0.40537600  0.33495700  0.61659000  1
  C  C30  1  0.64985800  0.85199000  0.89948400  1
  C  C31  1  0.59462400  0.66504300  0.38341000  1
  C  C32  1  0.35014200  0.14801000  0.10051600  1
  C  C33  1  0.64985800  0.14801000  0.39948400  1
  C  C34  1  0.35014200  0.85199000  0.60051600  1
  C  C35  1  0.59462400  0.33495700  0.88341000  1
  C  C36  1  0.90537600  0.16504300  0.11659000  1
  C  C37  1  0.90537600  0.83495700  0.61659000  1
  C  C38  1  0.14985800  0.35199000  0.89948400  1
  C  C39  1  0.09462400  0.16504300  0.38341000  1
  C  C40  1  0.85014200  0.64801000  0.10051600  1
  C  C41  1  0.14985800  0.64801000  0.39948400  1
  C  C42  1  0.85014200  0.35199000  0.60051600  1
  C  C43  1  0.09462400  0.83495700  0.88341000  1
  O  O44  1  0.65502350  0.06912650  0.46246400  1
  O  O45  1  0.21967650  0.16802950  0.37272700  1
  O  O46  1  0.78032350  0.83197050  0.62727300  1
  O  O47  1  0.45139650  0.35601850  0.55498400  1
  O  O48  1  0.47907250  0.69085550  0.17836600  1
  O  O49  1  0.47907250  0.30914450  0.67836600  1
  O  O50  1  0.46230150  0.19198850  0.13538700  1
  O  O51  1  0.36446650  0.00326350  0.76006800  1
  O  O52  1  0.34497650  0.93087350  0.53753600  1
  O  O53  1  0.46230150  0.80801150  0.63538700  1
  O  O54  1  0.24124600  0.18401000  0.13248800  1
  O  O55  1  0.86387600  0.87897200  0.26288000  1
  O  O56  1  0.53769850  0.19198850  0.36461300  1
  O  O57  1  0.54860350  0.35601850  0.94501600  1
  O  O58  1  0.65502350  0.93087350  0.96246400  1
  O  O59  1  0.75875400  0.18401000  0.36751200  1
  O  O60  1  0.53769850  0.80801150  0.86461300  1
  O  O61  1  0.13612400  0.12102800  0.73712000  1
  O  O62  1  0.75875400  0.81599000  0.86751200  1
  O  O63  1  0.54860350  0.64398150  0.44501600  1
  O  O64  1  0.52092750  0.69085550  0.32163400  1
  O  O65  1  0.13612400  0.87897200  0.23712000  1
  O  O66  1  0.24124600  0.81599000  0.63248800  1
  O  O67  1  0.63553350  0.00326350  0.73993200  1
  O  O68  1  0.21967650  0.83197050  0.87272700  1
  O  O69  1  0.36446650  0.99673650  0.26006800  1
  O  O70  1  0.63553350  0.99673650  0.23993200  1
  O  O71  1  0.52092750  0.30914450  0.82163400  1
  O  O72  1  0.34497650  0.06912650  0.03753600  1
  O  O73  1  0.86387600  0.12102800  0.76288000  1
  O  O74  1  0.45139650  0.64398150  0.05498400  1
  O  O75  1  0.78032350  0.16802950  0.12727300  1
  O  O76  1  0.15502350  0.56912650  0.46246400  1
  O  O77  1  0.71967650  0.66802950  0.37272700  1
  O  O78  1  0.28032350  0.33197050  0.62727300  1
  O  O79  1  0.95139650  0.85601850  0.55498400  1
  O  O80  1  0.97907250  0.19085550  0.17836600  1
  O  O81  1  0.97907250  0.80914450  0.67836600  1
  O  O82  1  0.96230150  0.69198850  0.13538700  1
  O  O83  1  0.86446650  0.50326350  0.76006800  1
  O  O84  1  0.84497650  0.43087350  0.53753600  1
  O  O85  1  0.96230150  0.30801150  0.63538700  1
  O  O86  1  0.74124600  0.68401000  0.13248800  1
  O  O87  1  0.36387600  0.37897200  0.26288000  1
  O  O88  1  0.03769850  0.69198850  0.36461300  1
  O  O89  1  0.04860350  0.85601850  0.94501600  1
  O  O90  1  0.15502350  0.43087350  0.96246400  1
  O  O91  1  0.25875400  0.68401000  0.36751200  1
  O  O92  1  0.03769850  0.30801150  0.86461300  1
  O  O93  1  0.63612400  0.62102800  0.73712000  1
  O  O94  1  0.25875400  0.31599000  0.86751200  1
  O  O95  1  0.04860350  0.14398150  0.44501600  1
  O  O96  1  0.02092750  0.19085550  0.32163400  1
  O  O97  1  0.63612400  0.37897200  0.23712000  1
  O  O98  1  0.74124600  0.31599000  0.63248800  1
  O  O99  1  0.13553350  0.50326350  0.73993200  1
  O  O100  1  0.71967650  0.33197050  0.87272700  1
  O  O101  1  0.86446650  0.49673650  0.26006800  1
  O  O102  1  0.13553350  0.49673650  0.23993200  1
  O  O103  1  0.02092750  0.80914450  0.82163400  1
  O  O104  1  0.84497650  0.56912650  0.03753600  1
  O  O105  1  0.36387600  0.62102800  0.76288000  1
  O  O106  1  0.95139650  0.14398150  0.05498400  1
  O  O107  1  0.28032350  0.66802950  0.12727300  1
