# generated using pymatgen
data_Cs2Li3F5
_symmetry_space_group_name_H-M   'P 1'
_cell_length_a   4.13460800
_cell_length_b   20.41265600
_cell_length_c   4.05039000
_cell_angle_alpha   90.00000000
_cell_angle_beta   90.00000000
_cell_angle_gamma   90.00000000
_symmetry_Int_Tables_number   1
_chemical_formula_structural   Cs2Li3F5
_chemical_formula_sum   'Cs4 Li6 F10'
_cell_volume   341.84615508
_cell_formula_units_Z   2
loop_
 _symmetry_equiv_pos_site_id
 _symmetry_equiv_pos_as_xyz
  1  'x, y, z'
loop_
 _atom_site_type_symbol
 _atom_site_label
 _atom_site_symmetry_multiplicity
 _atom_site_fract_x
 _atom_site_fract_y
 _atom_site_fract_z
 _atom_site_occupancy
  Cs  Cs0  1  0.00000000  0.26828300  0.00000000  1
  Cs  Cs1  1  0.50000000  0.11845700  0.50000000  1
  Cs  Cs2  1  0.50000000  0.76828300  0.00000000  1
  Cs  Cs3  1  0.00000000  0.61845700  0.50000000  1
  Li  Li4  1  0.00000000  0.42311700  0.00000000  1
  Li  Li5  1  0.00000000  0.01389000  0.00000000  1
  Li  Li6  1  0.50000000  0.37729900  0.50000000  1
  Li  Li7  1  0.50000000  0.92311700  0.00000000  1
  Li  Li8  1  0.50000000  0.51389000  0.00000000  1
  Li  Li9  1  0.00000000  0.87729900  0.50000000  1
  F  F10  1  0.50000000  0.41481200  0.00000000  1
  F  F11  1  0.00000000  0.10988700  0.00000000  1
  F  F12  1  0.50000000  0.27995500  0.50000000  1
  F  F13  1  0.00000000  0.39060700  0.50000000  1
  F  F14  1  0.50000000  0.01296200  0.00000000  1
  F  F15  1  0.00000000  0.91481200  0.00000000  1
  F  F16  1  0.50000000  0.60988700  0.00000000  1
  F  F17  1  0.00000000  0.77995500  0.50000000  1
  F  F18  1  0.50000000  0.89060700  0.50000000  1
  F  F19  1  0.00000000  0.51296200  0.00000000  1
