# generated using pymatgen
data_Sr2Cu2Te(BrO3)2
_symmetry_space_group_name_H-M   'P 1'
_cell_length_a   9.49412200
_cell_length_b   5.25768000
_cell_length_c   9.55689235
_cell_angle_alpha   90.00000000
_cell_angle_beta   95.35120593
_cell_angle_gamma   90.00000000
_symmetry_Int_Tables_number   1
_chemical_formula_structural   Sr2Cu2Te(BrO3)2
_chemical_formula_sum   'Sr4 Cu4 Te2 Br4 O12'
_cell_volume   474.97281173
_cell_formula_units_Z   2
loop_
 _symmetry_equiv_pos_site_id
 _symmetry_equiv_pos_as_xyz
  1  'x, y, z'
loop_
 _atom_site_type_symbol
 _atom_site_label
 _atom_site_symmetry_multiplicity
 _atom_site_fract_x
 _atom_site_fract_y
 _atom_site_fract_z
 _atom_site_occupancy
  Sr  Sr0  1  0.18205200  0.10227900  0.27738200  1
  Sr  Sr1  1  0.31794800  0.60227900  0.72261800  1
  Sr  Sr2  1  0.68205200  0.39772100  0.27738200  1
  Sr  Sr3  1  0.81794800  0.89772100  0.72261800  1
  Cu  Cu4  1  0.36470100  0.51727400  0.08091200  1
  Cu  Cu5  1  0.86470100  0.98272600  0.08091200  1
  Cu  Cu6  1  0.63529900  0.48272600  0.91908800  1
  Cu  Cu7  1  0.13529900  0.01727400  0.91908800  1
  Te  Te8  1  0.50000000  0.00000000  0.00000000  1
  Te  Te9  1  0.00000000  0.50000000  0.00000000  1
  Br  Br10  1  0.33644700  0.61166900  0.38868200  1
  Br  Br11  1  0.83644700  0.88833100  0.38868200  1
  Br  Br12  1  0.16355300  0.11166900  0.61131800  1
  Br  Br13  1  0.66355300  0.38833100  0.61131800  1
  O  O14  1  0.45428100  0.29799700  0.88349900  1
  O  O15  1  0.44165800  0.18730700  0.16385100  1
  O  O16  1  0.95428100  0.20200300  0.88349900  1
  O  O17  1  0.31189600  0.83147400  0.96702300  1
  O  O18  1  0.55834200  0.81269300  0.83614900  1
  O  O19  1  0.04571900  0.79799700  0.11650100  1
  O  O20  1  0.54571900  0.70200300  0.11650100  1
  O  O21  1  0.81189600  0.66852600  0.96702300  1
  O  O22  1  0.05834200  0.68730700  0.83614900  1
  O  O23  1  0.68810400  0.16852600  0.03297700  1
  O  O24  1  0.94165800  0.31269300  0.16385100  1
  O  O25  1  0.18810400  0.33147400  0.03297700  1
