# generated using pymatgen
data_In2Ag3(PO4)3
_symmetry_space_group_name_H-M   'P 1'
_cell_length_a   12.86213400
_cell_length_b   13.10864200
_cell_length_c   6.72207491
_cell_angle_alpha   90.00000000
_cell_angle_beta   114.23538091
_cell_angle_gamma   90.00000000
_symmetry_Int_Tables_number   1
_chemical_formula_structural   In2Ag3(PO4)3
_chemical_formula_sum   'In8 Ag12 P12 O48'
_cell_volume   1033.48812041
_cell_formula_units_Z   4
loop_
 _symmetry_equiv_pos_site_id
 _symmetry_equiv_pos_as_xyz
  1  'x, y, z'
loop_
 _atom_site_type_symbol
 _atom_site_label
 _atom_site_symmetry_multiplicity
 _atom_site_fract_x
 _atom_site_fract_y
 _atom_site_fract_z
 _atom_site_occupancy
  In  In0  1  0.77089450  0.84349350  0.84632100  1
  In  In1  1  0.77089450  0.15650650  0.34632100  1
  In  In2  1  0.22910550  0.84349350  0.65367900  1
  In  In3  1  0.22910550  0.15650650  0.15367900  1
  In  In4  1  0.27089450  0.34349350  0.84632100  1
  In  In5  1  0.27089450  0.65650650  0.34632100  1
  In  In6  1  0.72910550  0.34349350  0.65367900  1
  In  In7  1  0.72910550  0.65650650  0.15367900  1
  Ag  Ag8  1  0.50000000  0.49909900  0.75000000  1
  Ag  Ag9  1  0.50000000  0.22309000  0.75000000  1
  Ag  Ag10  1  0.50000000  0.50090100  0.25000000  1
  Ag  Ag11  1  0.50000000  0.77691000  0.25000000  1
  Ag  Ag12  1  0.50000000  0.00000000  0.50000000  1
  Ag  Ag13  1  0.50000000  0.00000000  0.00000000  1
  Ag  Ag14  1  0.00000000  0.99909900  0.75000000  1
  Ag  Ag15  1  0.00000000  0.72309000  0.75000000  1
  Ag  Ag16  1  0.00000000  0.00090100  0.25000000  1
  Ag  Ag17  1  0.00000000  0.27691000  0.25000000  1
  Ag  Ag18  1  0.00000000  0.50000000  0.50000000  1
  Ag  Ag19  1  0.00000000  0.50000000  0.00000000  1
  P  P20  1  0.50000000  0.76828800  0.75000000  1
  P  P21  1  0.24253700  0.10122400  0.63898600  1
  P  P22  1  0.75746300  0.10122400  0.86101400  1
  P  P23  1  0.24253700  0.89877600  0.13898600  1
  P  P24  1  0.75746300  0.89877600  0.36101400  1
  P  P25  1  0.50000000  0.23171200  0.25000000  1
  P  P26  1  0.00000000  0.26828800  0.75000000  1
  P  P27  1  0.74253700  0.60122400  0.63898600  1
  P  P28  1  0.25746300  0.60122400  0.86101400  1
  P  P29  1  0.74253700  0.39877600  0.13898600  1
  P  P30  1  0.25746300  0.39877600  0.36101400  1
  P  P31  1  0.00000000  0.73171200  0.25000000  1
  O  O32  1  0.82110050  0.16021550  0.07908200  1
  O  O33  1  0.41091350  0.16013950  0.28095700  1
  O  O34  1  0.58908650  0.16013950  0.21904300  1
  O  O35  1  0.17181900  0.00149900  0.62880400  1
  O  O36  1  0.24037200  0.82941000  0.32867600  1
  O  O37  1  0.24037200  0.17059000  0.82867600  1
  O  O38  1  0.44672750  0.30164350  0.04482400  1
  O  O39  1  0.58908650  0.83986050  0.71904300  1
  O  O40  1  0.44672750  0.69835650  0.54482400  1
  O  O41  1  0.75962800  0.82941000  0.17132400  1
  O  O42  1  0.17889950  0.83978450  0.92091800  1
  O  O43  1  0.17181900  0.99850100  0.12880400  1
  O  O44  1  0.55327250  0.69835650  0.95517600  1
  O  O45  1  0.36451800  0.92522200  0.17423800  1
  O  O46  1  0.41091350  0.83986050  0.78095700  1
  O  O47  1  0.82110050  0.83978450  0.57908200  1
  O  O48  1  0.17889950  0.16021550  0.42091800  1
  O  O49  1  0.63548200  0.07477800  0.82576200  1
  O  O50  1  0.75962800  0.17059000  0.67132400  1
  O  O51  1  0.55327250  0.30164350  0.45517600  1
  O  O52  1  0.82818100  0.99850100  0.37119600  1
  O  O53  1  0.63548200  0.92522200  0.32576200  1
  O  O54  1  0.82818100  0.00149900  0.87119600  1
  O  O55  1  0.36451800  0.07477800  0.67423800  1
  O  O56  1  0.32110050  0.66021550  0.07908200  1
  O  O57  1  0.91091350  0.66013950  0.28095700  1
  O  O58  1  0.08908650  0.66013950  0.21904300  1
  O  O59  1  0.67181900  0.50149900  0.62880400  1
  O  O60  1  0.74037200  0.32941000  0.32867600  1
  O  O61  1  0.74037200  0.67059000  0.82867600  1
  O  O62  1  0.94672750  0.80164350  0.04482400  1
  O  O63  1  0.08908650  0.33986050  0.71904300  1
  O  O64  1  0.94672750  0.19835650  0.54482400  1
  O  O65  1  0.25962800  0.32941000  0.17132400  1
  O  O66  1  0.67889950  0.33978450  0.92091800  1
  O  O67  1  0.67181900  0.49850100  0.12880400  1
  O  O68  1  0.05327250  0.19835650  0.95517600  1
  O  O69  1  0.86451800  0.42522200  0.17423800  1
  O  O70  1  0.91091350  0.33986050  0.78095700  1
  O  O71  1  0.32110050  0.33978450  0.57908200  1
  O  O72  1  0.67889950  0.66021550  0.42091800  1
  O  O73  1  0.13548200  0.57477800  0.82576200  1
  O  O74  1  0.25962800  0.67059000  0.67132400  1
  O  O75  1  0.05327250  0.80164350  0.45517600  1
  O  O76  1  0.32818100  0.49850100  0.37119600  1
  O  O77  1  0.13548200  0.42522200  0.32576200  1
  O  O78  1  0.32818100  0.50149900  0.87119600  1
  O  O79  1  0.86451800  0.57477800  0.67423800  1
