# generated using pymatgen
data_DyTaO4
_symmetry_space_group_name_H-M   'P 1'
_cell_length_a   7.06866200
_cell_length_b   11.06673600
_cell_length_c   5.11211323
_cell_angle_alpha   90.00000000
_cell_angle_beta   130.97363011
_cell_angle_gamma   90.00000000
_symmetry_Int_Tables_number   1
_chemical_formula_structural   DyTaO4
_chemical_formula_sum   'Dy4 Ta4 O16'
_cell_volume   301.93312744
_cell_formula_units_Z   4
loop_
 _symmetry_equiv_pos_site_id
 _symmetry_equiv_pos_as_xyz
  1  'x, y, z'
loop_
 _atom_site_type_symbol
 _atom_site_label
 _atom_site_symmetry_multiplicity
 _atom_site_fract_x
 _atom_site_fract_y
 _atom_site_fract_z
 _atom_site_occupancy
  Dy  Dy0  1  0.00000000  0.36956200  0.25000000  1
  Dy  Dy1  1  0.50000000  0.13043800  0.75000000  1
  Dy  Dy2  1  0.50000000  0.86956200  0.25000000  1
  Dy  Dy3  1  0.00000000  0.63043800  0.75000000  1
  Ta  Ta4  1  0.50000000  0.39626100  0.25000000  1
  Ta  Ta5  1  0.00000000  0.10373900  0.75000000  1
  Ta  Ta6  1  0.00000000  0.89626100  0.25000000  1
  Ta  Ta7  1  0.50000000  0.60373900  0.75000000  1
  O  O8  1  0.74545450  0.46819750  0.70829200  1
  O  O9  1  0.84105300  0.21001900  0.83921200  1
  O  O10  1  0.75454550  0.03180250  0.29170800  1
  O  O11  1  0.34105300  0.28998100  0.33921200  1
  O  O12  1  0.25454550  0.46819750  0.79170800  1
  O  O13  1  0.15894700  0.21001900  0.66078800  1
  O  O14  1  0.65894700  0.28998100  0.16078800  1
  O  O15  1  0.24545450  0.03180250  0.20829200  1
  O  O16  1  0.24545450  0.96819750  0.70829200  1
  O  O17  1  0.34105300  0.71001900  0.83921200  1
  O  O18  1  0.25454550  0.53180250  0.29170800  1
  O  O19  1  0.84105300  0.78998100  0.33921200  1
  O  O20  1  0.75454550  0.96819750  0.79170800  1
  O  O21  1  0.65894700  0.71001900  0.66078800  1
  O  O22  1  0.15894700  0.78998100  0.16078800  1
  O  O23  1  0.74545450  0.53180250  0.20829200  1
