# generated using pymatgen
data_TeI
_symmetry_space_group_name_H-M   'P 1'
_cell_length_a   16.42344800
_cell_length_b   4.26133600
_cell_length_c   12.49718352
_cell_angle_alpha   90.00000000
_cell_angle_beta   128.25031700
_cell_angle_gamma   90.00000000
_symmetry_Int_Tables_number   1
_chemical_formula_structural   TeI
_chemical_formula_sum   'Te8 I8'
_cell_volume   686.85542471
_cell_formula_units_Z   8
loop_
 _symmetry_equiv_pos_site_id
 _symmetry_equiv_pos_as_xyz
  1  'x, y, z'
loop_
 _atom_site_type_symbol
 _atom_site_label
 _atom_site_symmetry_multiplicity
 _atom_site_fract_x
 _atom_site_fract_y
 _atom_site_fract_z
 _atom_site_occupancy
  Te  Te0  1  0.62244200  0.50000000  0.82364800  1
  Te  Te1  1  0.75404800  0.00000000  0.83698700  1
  Te  Te2  1  0.24595200  0.00000000  0.16301300  1
  Te  Te3  1  0.37755800  0.50000000  0.17635200  1
  Te  Te4  1  0.12244200  0.00000000  0.82364800  1
  Te  Te5  1  0.25404800  0.50000000  0.83698700  1
  Te  Te6  1  0.74595200  0.50000000  0.16301300  1
  Te  Te7  1  0.87755800  0.00000000  0.17635200  1
  I  I8  1  0.52279200  0.00000000  0.18772200  1
  I  I9  1  0.33544100  0.00000000  0.43924900  1
  I  I10  1  0.66455900  0.00000000  0.56075100  1
  I  I11  1  0.47720800  0.00000000  0.81227800  1
  I  I12  1  0.02279200  0.50000000  0.18772200  1
  I  I13  1  0.83544100  0.50000000  0.43924900  1
  I  I14  1  0.16455900  0.50000000  0.56075100  1
  I  I15  1  0.97720800  0.50000000  0.81227800  1
