# generated using pymatgen
data_Ca7Cu(PtO6)2
_symmetry_space_group_name_H-M   'P 1'
_cell_length_a   9.25253400
_cell_length_b   9.42635600
_cell_length_c   6.55739277
_cell_angle_alpha   90.00000000
_cell_angle_beta   91.04315058
_cell_angle_gamma   90.00000000
_symmetry_Int_Tables_number   1
_chemical_formula_structural   Ca7Cu(PtO6)2
_chemical_formula_sum   'Ca14 Cu2 Pt4 O24'
_cell_volume   571.82579467
_cell_formula_units_Z   2
loop_
 _symmetry_equiv_pos_site_id
 _symmetry_equiv_pos_as_xyz
  1  'x, y, z'
loop_
 _atom_site_type_symbol
 _atom_site_label
 _atom_site_symmetry_multiplicity
 _atom_site_fract_x
 _atom_site_fract_y
 _atom_site_fract_z
 _atom_site_occupancy
  Ca  Ca0  1  0.50000000  0.38835600  0.00000000  1
  Ca  Ca1  1  0.31325900  0.92944000  0.36749500  1
  Ca  Ca2  1  0.68125400  0.07198600  0.13639900  1
  Ca  Ca3  1  0.50000000  0.59502800  0.50000000  1
  Ca  Ca4  1  0.68674100  0.92944000  0.63250500  1
  Ca  Ca5  1  0.50000000  0.74748500  0.00000000  1
  Ca  Ca6  1  0.31874600  0.07198600  0.86360100  1
  Ca  Ca7  1  0.00000000  0.88835600  0.00000000  1
  Ca  Ca8  1  0.81325900  0.42944000  0.36749500  1
  Ca  Ca9  1  0.18125400  0.57198600  0.13639900  1
  Ca  Ca10  1  0.00000000  0.09502800  0.50000000  1
  Ca  Ca11  1  0.18674100  0.42944000  0.63250500  1
  Ca  Ca12  1  0.00000000  0.24748500  0.00000000  1
  Ca  Ca13  1  0.81874600  0.57198600  0.86360100  1
  Cu  Cu14  1  0.50000000  0.18934800  0.50000000  1
  Cu  Cu15  1  0.00000000  0.68934800  0.50000000  1
  Pt  Pt16  1  0.75374900  0.75717900  0.24964300  1
  Pt  Pt17  1  0.24625100  0.75717900  0.75035700  1
  Pt  Pt18  1  0.25374900  0.25717900  0.24964300  1
  Pt  Pt19  1  0.74625100  0.25717900  0.75035700  1
  O  O20  1  0.28584000  0.19168800  0.54376300  1
  O  O21  1  0.43565650  0.86332550  0.69730800  1
  O  O22  1  0.71416000  0.19168800  0.45623700  1
  O  O23  1  0.26233350  0.81474450  0.05094100  1
  O  O24  1  0.73766650  0.81474450  0.94905900  1
  O  O25  1  0.55622300  0.15124800  0.79342100  1
  O  O26  1  0.86350800  0.94028300  0.31241200  1
  O  O27  1  0.56434350  0.86332550  0.30269200  1
  O  O28  1  0.44377700  0.15124800  0.20657900  1
  O  O29  1  0.86437650  0.07594750  0.81718200  1
  O  O30  1  0.13562350  0.07594750  0.18281800  1
  O  O31  1  0.13649200  0.94028300  0.68758800  1
  O  O32  1  0.78584000  0.69168800  0.54376300  1
  O  O33  1  0.93565650  0.36332550  0.69730800  1
  O  O34  1  0.21416000  0.69168800  0.45623700  1
  O  O35  1  0.76233350  0.31474450  0.05094100  1
  O  O36  1  0.23766650  0.31474450  0.94905900  1
  O  O37  1  0.05622300  0.65124800  0.79342100  1
  O  O38  1  0.36350800  0.44028300  0.31241200  1
  O  O39  1  0.06434350  0.36332550  0.30269200  1
  O  O40  1  0.94377700  0.65124800  0.20657900  1
  O  O41  1  0.36437650  0.57594750  0.81718200  1
  O  O42  1  0.63562350  0.57594750  0.18281800  1
  O  O43  1  0.63649200  0.44028300  0.68758800  1
