# generated using pymatgen
data_BeZnO2
_symmetry_space_group_name_H-M   'P 1'
_cell_length_a   4.30880000
_cell_length_b   4.30880000
_cell_length_c   8.01377200
_cell_angle_alpha   90.00000000
_cell_angle_beta   90.00000000
_cell_angle_gamma   90.00000000
_symmetry_Int_Tables_number   1
_chemical_formula_structural   BeZnO2
_chemical_formula_sum   'Be4 Zn4 O8'
_cell_volume   148.78174713
_cell_formula_units_Z   4
loop_
 _symmetry_equiv_pos_site_id
 _symmetry_equiv_pos_as_xyz
  1  'x, y, z'
loop_
 _atom_site_type_symbol
 _atom_site_label
 _atom_site_symmetry_multiplicity
 _atom_site_fract_x
 _atom_site_fract_y
 _atom_site_fract_z
 _atom_site_occupancy
  Be  Be0  1  0.00000000  0.50000000  0.25000000  1
  Be  Be1  1  0.00000000  0.00000000  0.00000000  1
  Be  Be2  1  0.50000000  0.00000000  0.75000000  1
  Be  Be3  1  0.50000000  0.50000000  0.50000000  1
  Zn  Zn4  1  0.50000000  0.00000000  0.25000000  1
  Zn  Zn5  1  0.50000000  0.50000000  0.00000000  1
  Zn  Zn6  1  0.00000000  0.50000000  0.75000000  1
  Zn  Zn7  1  0.00000000  0.00000000  0.50000000  1
  O  O8  1  0.75000000  0.31467100  0.37500000  1
  O  O9  1  0.81467100  0.75000000  0.12500000  1
  O  O10  1  0.18532900  0.25000000  0.12500000  1
  O  O11  1  0.25000000  0.68532900  0.37500000  1
  O  O12  1  0.25000000  0.81467100  0.87500000  1
  O  O13  1  0.31467100  0.25000000  0.62500000  1
  O  O14  1  0.68532900  0.75000000  0.62500000  1
  O  O15  1  0.75000000  0.18532900  0.87500000  1
