# generated using pymatgen
data_SrTeO3
_symmetry_space_group_name_H-M   'P 1'
_cell_length_a   28.62455200
_cell_length_b   5.98131000
_cell_length_c   15.61244570
_cell_angle_alpha   90.00000000
_cell_angle_beta   122.21161537
_cell_angle_gamma   90.00000000
_symmetry_Int_Tables_number   1
_chemical_formula_structural   SrTeO3
_chemical_formula_sum   'Sr24 Te24 O72'
_cell_volume   2261.62193854
_cell_formula_units_Z   24
loop_
 _symmetry_equiv_pos_site_id
 _symmetry_equiv_pos_as_xyz
  1  'x, y, z'
loop_
 _atom_site_type_symbol
 _atom_site_label
 _atom_site_symmetry_multiplicity
 _atom_site_fract_x
 _atom_site_fract_y
 _atom_site_fract_z
 _atom_site_occupancy
  Sr  Sr0  1  0.87831550  0.91257350  0.39364200  1
  Sr  Sr1  1  0.74780200  0.96303800  0.11154000  1
  Sr  Sr2  1  0.12168450  0.91257350  0.60635800  1
  Sr  Sr3  1  0.00000000  0.90621500  0.00000000  1
  Sr  Sr4  1  0.62709550  0.93353050  0.15725500  1
  Sr  Sr5  1  0.87665950  0.43994950  0.58136700  1
  Sr  Sr6  1  0.25219800  0.96303800  0.88846000  1
  Sr  Sr7  1  0.37290450  0.93353050  0.84274500  1
  Sr  Sr8  1  0.74414650  0.45845550  0.27979600  1
  Sr  Sr9  1  0.00000000  0.39395900  0.50000000  1
  Sr  Sr10  1  0.12334050  0.43994950  0.41863300  1
  Sr  Sr11  1  0.25585350  0.45845550  0.72020400  1
  Sr  Sr12  1  0.37831550  0.41257350  0.39364200  1
  Sr  Sr13  1  0.24780200  0.46303800  0.11154000  1
  Sr  Sr14  1  0.62168450  0.41257350  0.60635800  1
  Sr  Sr15  1  0.50000000  0.40621500  0.00000000  1
  Sr  Sr16  1  0.12709550  0.43353050  0.15725500  1
  Sr  Sr17  1  0.37665950  0.93994950  0.58136700  1
  Sr  Sr18  1  0.75219800  0.46303800  0.88846000  1
  Sr  Sr19  1  0.87290450  0.43353050  0.84274500  1
  Sr  Sr20  1  0.24414650  0.95845550  0.27979600  1
  Sr  Sr21  1  0.50000000  0.89395900  0.50000000  1
  Sr  Sr22  1  0.62334050  0.93994950  0.41863300  1
  Sr  Sr23  1  0.75585350  0.95845550  0.72020400  1
  Te  Te24  1  0.02093350  0.42995550  0.85308700  1
  Te  Te25  1  0.76273050  0.95051650  0.41689500  1
  Te  Te26  1  0.00775300  0.93466600  0.35009800  1
  Te  Te27  1  0.99224700  0.93466600  0.64990200  1
  Te  Te28  1  0.14665600  0.45635100  0.77827600  1
  Te  Te29  1  0.35002100  0.41661500  0.99694000  1
  Te  Te30  1  0.23726950  0.95051650  0.58310500  1
  Te  Te31  1  0.11320300  0.94094200  0.27726900  1
  Te  Te32  1  0.97906650  0.42995550  0.14691300  1
  Te  Te33  1  0.88679700  0.94094200  0.72273100  1
  Te  Te34  1  0.85334400  0.45635100  0.22172400  1
  Te  Te35  1  0.64997900  0.41661500  0.00306000  1
  Te  Te36  1  0.52093350  0.92995550  0.85308700  1
  Te  Te37  1  0.26273050  0.45051650  0.41689500  1
  Te  Te38  1  0.50775300  0.43466600  0.35009800  1
  Te  Te39  1  0.49224700  0.43466600  0.64990200  1
  Te  Te40  1  0.64665600  0.95635100  0.77827600  1
  Te  Te41  1  0.85002100  0.91661500  0.99694000  1
  Te  Te42  1  0.73726950  0.45051650  0.58310500  1
  Te  Te43  1  0.61320300  0.44094200  0.27726900  1
  Te  Te44  1  0.47906650  0.92995550  0.14691300  1
  Te  Te45  1  0.38679700  0.44094200  0.72273100  1
  Te  Te46  1  0.35334400  0.95635100  0.22172400  1
  Te  Te47  1  0.14997900  0.91661500  0.00306000  1
  O  O48  1  0.40387250  0.49974150  0.85486100  1
  O  O49  1  0.67111950  0.69729150  0.06821000  1
  O  O50  1  0.31930700  0.23213500  0.88052400  1
  O  O51  1  0.08639100  0.53524100  0.65131500  1
  O  O52  1  0.93841050  0.15692450  0.57121600  1
  O  O53  1  0.20833650  0.85412550  0.98256300  1
  O  O54  1  0.59612750  0.49974150  0.14513900  1
  O  O55  1  0.68069300  0.23213500  0.11947600  1
  O  O56  1  0.33187250  0.21853450  0.68481600  1
  O  O57  1  0.04365550  0.03703750  0.61938700  1
  O  O58  1  0.04676600  0.69241800  0.43913200  1
  O  O59  1  0.19359550  0.20069250  0.57299300  1
  O  O60  1  0.05010900  0.57319200  0.97933400  1
  O  O61  1  0.05535700  0.50996700  0.21542500  1
  O  O62  1  0.18239050  0.72402350  0.54585000  1
  O  O63  1  0.06158950  0.15692450  0.42878400  1
  O  O64  1  0.80589950  0.66225050  0.23021800  1
  O  O65  1  0.17598700  0.20029100  0.75260700  1
  O  O66  1  0.80640450  0.20069250  0.42700700  1
  O  O67  1  0.91360900  0.53524100  0.34868500  1
  O  O68  1  0.94989100  0.57319200  0.02066600  1
  O  O69  1  0.26773150  0.89490250  0.72250000  1
  O  O70  1  0.01955450  0.13117750  0.88668100  1
  O  O71  1  0.83864250  0.18814350  0.66123700  1
  O  O72  1  0.79166350  0.85412550  0.01743700  1
  O  O73  1  0.16135750  0.18814350  0.33876300  1
  O  O74  1  0.95323400  0.69241800  0.56086800  1
  O  O75  1  0.95634450  0.03703750  0.38061300  1
  O  O76  1  0.19410050  0.66225050  0.76978200  1
  O  O77  1  0.98044550  0.13117750  0.11331900  1
  O  O78  1  0.81760950  0.72402350  0.45415000  1
  O  O79  1  0.94464300  0.50996700  0.78457500  1
  O  O80  1  0.66812750  0.21853450  0.31518400  1
  O  O81  1  0.82401300  0.20029100  0.24739300  1
  O  O82  1  0.32888050  0.69729150  0.93179000  1
  O  O83  1  0.73226850  0.89490250  0.27750000  1
  O  O84  1  0.90387250  0.99974150  0.85486100  1
  O  O85  1  0.17111950  0.19729150  0.06821000  1
  O  O86  1  0.81930700  0.73213500  0.88052400  1
  O  O87  1  0.58639100  0.03524100  0.65131500  1
  O  O88  1  0.43841050  0.65692450  0.57121600  1
  O  O89  1  0.70833650  0.35412550  0.98256300  1
  O  O90  1  0.09612750  0.99974150  0.14513900  1
  O  O91  1  0.18069300  0.73213500  0.11947600  1
  O  O92  1  0.83187250  0.71853450  0.68481600  1
  O  O93  1  0.54365550  0.53703750  0.61938700  1
  O  O94  1  0.54676600  0.19241800  0.43913200  1
  O  O95  1  0.69359550  0.70069250  0.57299300  1
  O  O96  1  0.55010900  0.07319200  0.97933400  1
  O  O97  1  0.55535700  0.00996700  0.21542500  1
  O  O98  1  0.68239050  0.22402350  0.54585000  1
  O  O99  1  0.56158950  0.65692450  0.42878400  1
  O  O100  1  0.30589950  0.16225050  0.23021800  1
  O  O101  1  0.67598700  0.70029100  0.75260700  1
  O  O102  1  0.30640450  0.70069250  0.42700700  1
  O  O103  1  0.41360900  0.03524100  0.34868500  1
  O  O104  1  0.44989100  0.07319200  0.02066600  1
  O  O105  1  0.76773150  0.39490250  0.72250000  1
  O  O106  1  0.51955450  0.63117750  0.88668100  1
  O  O107  1  0.33864250  0.68814350  0.66123700  1
  O  O108  1  0.29166350  0.35412550  0.01743700  1
  O  O109  1  0.66135750  0.68814350  0.33876300  1
  O  O110  1  0.45323400  0.19241800  0.56086800  1
  O  O111  1  0.45634450  0.53703750  0.38061300  1
  O  O112  1  0.69410050  0.16225050  0.76978200  1
  O  O113  1  0.48044550  0.63117750  0.11331900  1
  O  O114  1  0.31760950  0.22402350  0.45415000  1
  O  O115  1  0.44464300  0.00996700  0.78457500  1
  O  O116  1  0.16812750  0.71853450  0.31518400  1
  O  O117  1  0.32401300  0.70029100  0.24739300  1
  O  O118  1  0.82888050  0.19729150  0.93179000  1
  O  O119  1  0.23226850  0.39490250  0.27750000  1
