# generated using pymatgen
data_Li10Mg7Cl24
_symmetry_space_group_name_H-M   'P 1'
_cell_length_a   12.86079800
_cell_length_b   7.46323800
_cell_length_c   36.32991626
_cell_angle_alpha   90.00000000
_cell_angle_beta   90.10348439
_cell_angle_gamma   90.00000000
_symmetry_Int_Tables_number   1
_chemical_formula_structural   Li10Mg7Cl24
_chemical_formula_sum   'Li40 Mg28 Cl96'
_cell_volume   3487.05579758
_cell_formula_units_Z   4
loop_
 _symmetry_equiv_pos_site_id
 _symmetry_equiv_pos_as_xyz
  1  'x, y, z'
loop_
 _atom_site_type_symbol
 _atom_site_label
 _atom_site_symmetry_multiplicity
 _atom_site_fract_x
 _atom_site_fract_y
 _atom_site_fract_z
 _atom_site_occupancy
  Li  Li0  1  0.65922200  0.00000000  0.08247400  1
  Li  Li1  1  0.82563800  0.00000000  0.35633800  1
  Li  Li2  1  0.00022900  0.00000000  0.25068000  1
  Li  Li3  1  0.15925700  0.00000000  0.52270200  1
  Li  Li4  1  0.16694000  0.00000000  0.33325400  1
  Li  Li5  1  0.17387600  0.00000000  0.14603700  1
  Li  Li6  1  0.33329700  0.00000000  0.41660100  1
  Li  Li7  1  0.49990600  0.00000000  0.49995600  1
  Li  Li8  1  0.49238500  0.00000000  0.68934600  1
  Li  Li9  1  0.50738200  0.00000000  0.31020000  1
  Li  Li10  1  0.66665400  0.00000000  0.58339000  1
  Li  Li11  1  0.82522800  0.00000000  0.85449600  1
  Li  Li12  1  0.83339600  0.00000000  0.66674800  1
  Li  Li13  1  0.84092600  0.00000000  0.47727000  1
  Li  Li14  1  0.00008800  0.00000000  0.74980900  1
  Li  Li15  1  0.16684900  0.00000000  0.83208200  1
  Li  Li16  1  0.17389400  0.00000000  0.64399500  1
  Li  Li17  1  0.32655600  0.00000000  0.91599300  1
  Li  Li18  1  0.50758300  0.00000000  0.81058600  1
  Li  Li19  1  0.84148400  0.00000000  0.98049100  1
  Li  Li20  1  0.15922200  0.50000000  0.08247400  1
  Li  Li21  1  0.32563800  0.50000000  0.35633800  1
  Li  Li22  1  0.50022900  0.50000000  0.25068000  1
  Li  Li23  1  0.65925700  0.50000000  0.52270200  1
  Li  Li24  1  0.66694000  0.50000000  0.33325400  1
  Li  Li25  1  0.67387600  0.50000000  0.14603700  1
  Li  Li26  1  0.83329700  0.50000000  0.41660100  1
  Li  Li27  1  0.99990600  0.50000000  0.49995600  1
  Li  Li28  1  0.99238500  0.50000000  0.68934600  1
  Li  Li29  1  0.00738200  0.50000000  0.31020000  1
  Li  Li30  1  0.16665400  0.50000000  0.58339000  1
  Li  Li31  1  0.32522800  0.50000000  0.85449600  1
  Li  Li32  1  0.33339600  0.50000000  0.66674800  1
  Li  Li33  1  0.34092600  0.50000000  0.47727000  1
  Li  Li34  1  0.50008800  0.50000000  0.74980900  1
  Li  Li35  1  0.66684900  0.50000000  0.83208200  1
  Li  Li36  1  0.67389400  0.50000000  0.64399500  1
  Li  Li37  1  0.82655600  0.50000000  0.91599300  1
  Li  Li38  1  0.00758300  0.50000000  0.81058600  1
  Li  Li39  1  0.34148400  0.50000000  0.98049100  1
  Mg  Mg40  1  0.41919800  0.24088900  0.08268000  1
  Mg  Mg41  1  0.74992100  0.24732700  0.24989500  1
  Mg  Mg42  1  0.83121400  0.00000000  0.16913800  1
  Mg  Mg43  1  0.41919800  0.75911100  0.08268000  1
  Mg  Mg44  1  0.58350800  0.75004400  0.41665400  1
  Mg  Mg45  1  0.74992100  0.75267300  0.24989500  1
  Mg  Mg46  1  0.41667900  0.25000400  0.58344400  1
  Mg  Mg47  1  0.58350800  0.24995600  0.41665400  1
  Mg  Mg48  1  0.74963300  0.25000800  0.74980700  1
  Mg  Mg49  1  0.41667900  0.74999600  0.58344400  1
  Mg  Mg50  1  0.58580750  0.74330950  0.91605400  1
  Mg  Mg51  1  0.74963300  0.74999200  0.74980700  1
  Mg  Mg52  1  0.58580750  0.25669050  0.91605400  1
  Mg  Mg53  1  0.49923800  0.00000000  0.00273000  1
  Mg  Mg54  1  0.91919800  0.74088900  0.08268000  1
  Mg  Mg55  1  0.24992100  0.74732700  0.24989500  1
  Mg  Mg56  1  0.33121400  0.50000000  0.16913800  1
  Mg  Mg57  1  0.91919800  0.25911100  0.08268000  1
  Mg  Mg58  1  0.08350800  0.25004400  0.41665400  1
  Mg  Mg59  1  0.24992100  0.25267300  0.24989500  1
  Mg  Mg60  1  0.91667900  0.75000400  0.58344400  1
  Mg  Mg61  1  0.08350800  0.74995600  0.41665400  1
  Mg  Mg62  1  0.24963300  0.75000800  0.74980700  1
  Mg  Mg63  1  0.91667900  0.24999600  0.58344400  1
  Mg  Mg64  1  0.08580750  0.24330950  0.91605400  1
  Mg  Mg65  1  0.24963300  0.24999200  0.74980700  1
  Mg  Mg66  1  0.08580750  0.75669050  0.91605400  1
  Mg  Mg67  1  0.99923800  0.50000000  0.00273000  1
  Cl  Cl68  1  0.33899500  0.00000000  0.04252500  1
  Cl  Cl69  1  0.49478800  0.00000000  0.12094000  1
  Cl  Cl70  1  0.57351000  0.23519800  0.04240100  1
  Cl  Cl71  1  0.57351000  0.76480200  0.04240100  1
  Cl  Cl72  1  0.75903100  0.23260200  0.12391400  1
  Cl  Cl73  1  0.67431800  0.00000000  0.20979900  1
  Cl  Cl74  1  0.75903100  0.76739800  0.12391400  1
  Cl  Cl75  1  0.40613100  0.73149600  0.20949400  1
  Cl  Cl76  1  0.83032400  0.00000000  0.28914400  1
  Cl  Cl77  1  0.83688600  0.00000000  0.04633600  1
  Cl  Cl78  1  0.99101800  0.00000000  0.12381500  1
  Cl  Cl79  1  0.40613100  0.26850400  0.20949400  1
  Cl  Cl80  1  0.59223850  0.73664450  0.28916300  1
  Cl  Cl81  1  0.00696800  0.00000000  0.37716200  1
  Cl  Cl82  1  0.59223850  0.26335550  0.28916300  1
  Cl  Cl83  1  0.16332200  0.00000000  0.45538100  1
  Cl  Cl84  1  0.24136550  0.23623750  0.37720200  1
  Cl  Cl85  1  0.17013200  0.00000000  0.21151500  1
  Cl  Cl86  1  0.32718400  0.00000000  0.28858000  1
  Cl  Cl87  1  0.24136550  0.76376250  0.37720200  1
  Cl  Cl88  1  0.42577800  0.23659500  0.45626500  1
  Cl  Cl89  1  0.34034000  0.00000000  0.54394200  1
  Cl  Cl90  1  0.57480750  0.23681050  0.54408000  1
  Cl  Cl91  1  0.42577800  0.76340500  0.45626500  1
  Cl  Cl92  1  0.49664800  0.00000000  0.62207300  1
  Cl  Cl93  1  0.50362700  0.00000000  0.37792600  1
  Cl  Cl94  1  0.57480750  0.76318950  0.54408000  1
  Cl  Cl95  1  0.65990100  0.00000000  0.45622500  1
  Cl  Cl96  1  0.75882650  0.23683250  0.62296200  1
  Cl  Cl97  1  0.67329500  0.00000000  0.71049800  1
  Cl  Cl98  1  0.75882650  0.76316750  0.62296200  1
  Cl  Cl99  1  0.83008900  0.00000000  0.78832000  1
  Cl  Cl100  1  0.40757150  0.73702850  0.71055700  1
  Cl  Cl101  1  0.83685400  0.00000000  0.54480100  1
  Cl  Cl102  1  0.99294000  0.00000000  0.62303800  1
  Cl  Cl103  1  0.40757150  0.26297150  0.71055700  1
  Cl  Cl104  1  0.59210400  0.73669900  0.78960300  1
  Cl  Cl105  1  0.00417900  0.00000000  0.87670700  1
  Cl  Cl106  1  0.59210400  0.26330100  0.78960300  1
  Cl  Cl107  1  0.16145500  0.00000000  0.95337300  1
  Cl  Cl108  1  0.24270350  0.23859050  0.87676000  1
  Cl  Cl109  1  0.16970900  0.00000000  0.71146200  1
  Cl  Cl110  1  0.32650300  0.00000000  0.78967800  1
  Cl  Cl111  1  0.24270350  0.76140950  0.87676000  1
  Cl  Cl112  1  0.42592100  0.23218300  0.95759700  1
  Cl  Cl113  1  0.42592100  0.76781700  0.95759700  1
  Cl  Cl114  1  0.50499100  0.00000000  0.87928700  1
  Cl  Cl115  1  0.65815600  0.00000000  0.95776000  1
  Cl  Cl116  1  0.83899500  0.50000000  0.04252500  1
  Cl  Cl117  1  0.99478800  0.50000000  0.12094000  1
  Cl  Cl118  1  0.07351000  0.73519800  0.04240100  1
  Cl  Cl119  1  0.07351000  0.26480200  0.04240100  1
  Cl  Cl120  1  0.25903100  0.73260200  0.12391400  1
  Cl  Cl121  1  0.17431800  0.50000000  0.20979900  1
  Cl  Cl122  1  0.25903100  0.26739800  0.12391400  1
  Cl  Cl123  1  0.90613100  0.23149600  0.20949400  1
  Cl  Cl124  1  0.33032400  0.50000000  0.28914400  1
  Cl  Cl125  1  0.33688600  0.50000000  0.04633600  1
  Cl  Cl126  1  0.49101800  0.50000000  0.12381500  1
  Cl  Cl127  1  0.90613100  0.76850400  0.20949400  1
  Cl  Cl128  1  0.09223850  0.23664450  0.28916300  1
  Cl  Cl129  1  0.50696800  0.50000000  0.37716200  1
  Cl  Cl130  1  0.09223850  0.76335550  0.28916300  1
  Cl  Cl131  1  0.66332200  0.50000000  0.45538100  1
  Cl  Cl132  1  0.74136550  0.73623750  0.37720200  1
  Cl  Cl133  1  0.67013200  0.50000000  0.21151500  1
  Cl  Cl134  1  0.82718400  0.50000000  0.28858000  1
  Cl  Cl135  1  0.74136550  0.26376250  0.37720200  1
  Cl  Cl136  1  0.92577800  0.73659500  0.45626500  1
  Cl  Cl137  1  0.84034000  0.50000000  0.54394200  1
  Cl  Cl138  1  0.07480750  0.73681050  0.54408000  1
  Cl  Cl139  1  0.92577800  0.26340500  0.45626500  1
  Cl  Cl140  1  0.99664800  0.50000000  0.62207300  1
  Cl  Cl141  1  0.00362700  0.50000000  0.37792600  1
  Cl  Cl142  1  0.07480750  0.26318950  0.54408000  1
  Cl  Cl143  1  0.15990100  0.50000000  0.45622500  1
  Cl  Cl144  1  0.25882650  0.73683250  0.62296200  1
  Cl  Cl145  1  0.17329500  0.50000000  0.71049800  1
  Cl  Cl146  1  0.25882650  0.26316750  0.62296200  1
  Cl  Cl147  1  0.33008900  0.50000000  0.78832000  1
  Cl  Cl148  1  0.90757150  0.23702850  0.71055700  1
  Cl  Cl149  1  0.33685400  0.50000000  0.54480100  1
  Cl  Cl150  1  0.49294000  0.50000000  0.62303800  1
  Cl  Cl151  1  0.90757150  0.76297150  0.71055700  1
  Cl  Cl152  1  0.09210400  0.23669900  0.78960300  1
  Cl  Cl153  1  0.50417900  0.50000000  0.87670700  1
  Cl  Cl154  1  0.09210400  0.76330100  0.78960300  1
  Cl  Cl155  1  0.66145500  0.50000000  0.95337300  1
  Cl  Cl156  1  0.74270350  0.73859050  0.87676000  1
  Cl  Cl157  1  0.66970900  0.50000000  0.71146200  1
  Cl  Cl158  1  0.82650300  0.50000000  0.78967800  1
  Cl  Cl159  1  0.74270350  0.26140950  0.87676000  1
  Cl  Cl160  1  0.92592100  0.73218300  0.95759700  1
  Cl  Cl161  1  0.92592100  0.26781700  0.95759700  1
  Cl  Cl162  1  0.00499100  0.50000000  0.87928700  1
  Cl  Cl163  1  0.15815600  0.50000000  0.95776000  1
