# generated using pymatgen
data_KSr4(BO3)3
_symmetry_space_group_name_H-M   'P 1'
_cell_length_a   6.96157800
_cell_length_b   12.10879400
_cell_length_c   11.16525800
_cell_angle_alpha   90.00000000
_cell_angle_beta   90.00000000
_cell_angle_gamma   90.00000000
_symmetry_Int_Tables_number   1
_chemical_formula_structural   KSr4(BO3)3
_chemical_formula_sum   'K4 Sr16 B12 O36'
_cell_volume   941.19009333
_cell_formula_units_Z   4
loop_
 _symmetry_equiv_pos_site_id
 _symmetry_equiv_pos_as_xyz
  1  'x, y, z'
loop_
 _atom_site_type_symbol
 _atom_site_label
 _atom_site_symmetry_multiplicity
 _atom_site_fract_x
 _atom_site_fract_y
 _atom_site_fract_z
 _atom_site_occupancy
  K  K0  1  0.83188550  0.08291950  0.75000000  1
  K  K1  1  0.33188550  0.41708050  0.25000000  1
  K  K2  1  0.33188550  0.58291950  0.75000000  1
  K  K3  1  0.83188550  0.91708050  0.25000000  1
  Sr  Sr4  1  0.42786900  0.28508400  0.53076600  1
  Sr  Sr5  1  0.28218200  0.00000000  0.00000000  1
  Sr  Sr6  1  0.42786900  0.28508400  0.96923400  1
  Sr  Sr7  1  0.28218200  0.00000000  0.50000000  1
  Sr  Sr8  1  0.92786900  0.21491600  0.03076600  1
  Sr  Sr9  1  0.92786900  0.21491600  0.46923400  1
  Sr  Sr10  1  0.05955600  0.35529800  0.75000000  1
  Sr  Sr11  1  0.55955600  0.14470200  0.25000000  1
  Sr  Sr12  1  0.92786900  0.78508400  0.53076600  1
  Sr  Sr13  1  0.78218200  0.50000000  0.00000000  1
  Sr  Sr14  1  0.92786900  0.78508400  0.96923400  1
  Sr  Sr15  1  0.78218200  0.50000000  0.50000000  1
  Sr  Sr16  1  0.42786900  0.71491600  0.03076600  1
  Sr  Sr17  1  0.42786900  0.71491600  0.46923400  1
  Sr  Sr18  1  0.55955600  0.85529800  0.75000000  1
  Sr  Sr19  1  0.05955600  0.64470200  0.25000000  1
  B  B20  1  0.25805650  0.12550350  0.75000000  1
  B  B21  1  0.63963500  0.32965100  0.75000000  1
  B  B22  1  0.75805650  0.37449650  0.25000000  1
  B  B23  1  0.71189400  0.00000000  0.00000000  1
  B  B24  1  0.13963500  0.17034900  0.25000000  1
  B  B25  1  0.71189400  0.00000000  0.50000000  1
  B  B26  1  0.75805650  0.62550350  0.75000000  1
  B  B27  1  0.13963500  0.82965100  0.75000000  1
  B  B28  1  0.25805650  0.87449650  0.25000000  1
  B  B29  1  0.21189400  0.50000000  0.00000000  1
  B  B30  1  0.63963500  0.67034900  0.25000000  1
  B  B31  1  0.21189400  0.50000000  0.50000000  1
  O  O32  1  0.44506850  0.35267350  0.75000000  1
  O  O33  1  0.74031700  0.31434600  0.85788000  1
  O  O34  1  0.94506850  0.14732650  0.25000000  1
  O  O35  1  0.61197700  0.09709200  0.02733500  1
  O  O36  1  0.67712450  0.33416550  0.14210500  1
  O  O37  1  0.24031700  0.18565400  0.14212000  1
  O  O38  1  0.11197700  0.40290800  0.97266500  1
  O  O39  1  0.17712450  0.16583450  0.64210500  1
  O  O40  1  0.67712450  0.33416550  0.35789500  1
  O  O41  1  0.90193100  0.45219200  0.25000000  1
  O  O42  1  0.40193100  0.04780800  0.75000000  1
  O  O43  1  0.74031700  0.31434600  0.64212000  1
  O  O44  1  0.24031700  0.18565400  0.35788000  1
  O  O45  1  0.61197700  0.09709200  0.47266500  1
  O  O46  1  0.17712450  0.16583450  0.85789500  1
  O  O47  1  0.11197700  0.40290800  0.52733500  1
  O  O48  1  0.91061700  0.00000000  0.50000000  1
  O  O49  1  0.91061700  0.00000000  0.00000000  1
  O  O50  1  0.94506850  0.85267350  0.75000000  1
  O  O51  1  0.24031700  0.81434600  0.85788000  1
  O  O52  1  0.44506850  0.64732650  0.25000000  1
  O  O53  1  0.11197700  0.59709200  0.02733500  1
  O  O54  1  0.17712450  0.83416550  0.14210500  1
  O  O55  1  0.74031700  0.68565400  0.14212000  1
  O  O56  1  0.61197700  0.90290800  0.97266500  1
  O  O57  1  0.67712450  0.66583450  0.64210500  1
  O  O58  1  0.17712450  0.83416550  0.35789500  1
  O  O59  1  0.40193100  0.95219200  0.25000000  1
  O  O60  1  0.90193100  0.54780800  0.75000000  1
  O  O61  1  0.24031700  0.81434600  0.64212000  1
  O  O62  1  0.74031700  0.68565400  0.35788000  1
  O  O63  1  0.11197700  0.59709200  0.47266500  1
  O  O64  1  0.67712450  0.66583450  0.85789500  1
  O  O65  1  0.61197700  0.90290800  0.52733500  1
  O  O66  1  0.41061700  0.50000000  0.50000000  1
  O  O67  1  0.41061700  0.50000000  0.00000000  1
