# generated using pymatgen
data_Ba2Mg3F10
_symmetry_space_group_name_H-M   'P 1'
_cell_length_a   18.74393400
_cell_length_b   6.03268000
_cell_length_c   7.92772059
_cell_angle_alpha   90.00000000
_cell_angle_beta   111.99864054
_cell_angle_gamma   90.00000000
_symmetry_Int_Tables_number   1
_chemical_formula_structural   Ba2Mg3F10
_chemical_formula_sum   'Ba8 Mg12 F40'
_cell_volume   831.16910984
_cell_formula_units_Z   4
loop_
 _symmetry_equiv_pos_site_id
 _symmetry_equiv_pos_as_xyz
  1  'x, y, z'
loop_
 _atom_site_type_symbol
 _atom_site_label
 _atom_site_symmetry_multiplicity
 _atom_site_fract_x
 _atom_site_fract_y
 _atom_site_fract_z
 _atom_site_occupancy
  Ba  Ba0  1  0.28375900  0.00000000  0.68479900  1
  Ba  Ba1  1  0.21624100  0.50000000  0.31520100  1
  Ba  Ba2  1  0.38628800  0.00000000  0.28092900  1
  Ba  Ba3  1  0.11371200  0.50000000  0.71907100  1
  Ba  Ba4  1  0.78375900  0.50000000  0.68479900  1
  Ba  Ba5  1  0.71624100  0.00000000  0.31520100  1
  Ba  Ba6  1  0.88628800  0.50000000  0.28092900  1
  Ba  Ba7  1  0.61371200  0.00000000  0.71907100  1
  Mg  Mg8  1  0.07423500  0.00000000  0.45411100  1
  Mg  Mg9  1  0.42576500  0.50000000  0.54588900  1
  Mg  Mg10  1  0.17708500  0.00000000  0.01430000  1
  Mg  Mg11  1  0.32291500  0.50000000  0.98570000  1
  Mg  Mg12  1  0.00000000  0.25396600  0.00000000  1
  Mg  Mg13  1  0.00000000  0.74603400  0.00000000  1
  Mg  Mg14  1  0.57423500  0.50000000  0.45411100  1
  Mg  Mg15  1  0.92576500  0.00000000  0.54588900  1
  Mg  Mg16  1  0.67708500  0.50000000  0.01430000  1
  Mg  Mg17  1  0.82291500  0.00000000  0.98570000  1
  Mg  Mg18  1  0.50000000  0.75396600  0.00000000  1
  Mg  Mg19  1  0.50000000  0.24603400  0.00000000  1
  F  F20  1  0.11077950  0.25291150  0.02472100  1
  F  F21  1  0.38922050  0.75291150  0.97527900  1
  F  F22  1  0.38922050  0.24708850  0.97527900  1
  F  F23  1  0.11077950  0.74708850  0.02472100  1
  F  F24  1  0.14844050  0.23804550  0.47464100  1
  F  F25  1  0.35155950  0.73804550  0.52535900  1
  F  F26  1  0.35155950  0.26195450  0.52535900  1
  F  F27  1  0.14844050  0.76195450  0.47464100  1
  F  F28  1  0.02238600  0.00000000  0.18180400  1
  F  F29  1  0.47761400  0.50000000  0.81819600  1
  F  F30  1  0.13435500  0.00000000  0.74349400  1
  F  F31  1  0.36564500  0.50000000  0.25650600  1
  F  F32  1  0.23634500  0.00000000  0.27799600  1
  F  F33  1  0.26365500  0.50000000  0.72200400  1
  F  F34  1  0.01710100  0.50000000  0.17923300  1
  F  F35  1  0.48289900  0.00000000  0.82076700  1
  F  F36  1  0.00000000  0.21878400  0.50000000  1
  F  F37  1  0.00000000  0.78121600  0.50000000  1
  F  F38  1  0.25000000  0.25000000  0.00000000  1
  F  F39  1  0.25000000  0.75000000  0.00000000  1
  F  F40  1  0.61077950  0.75291150  0.02472100  1
  F  F41  1  0.88922050  0.25291150  0.97527900  1
  F  F42  1  0.88922050  0.74708850  0.97527900  1
  F  F43  1  0.61077950  0.24708850  0.02472100  1
  F  F44  1  0.64844050  0.73804550  0.47464100  1
  F  F45  1  0.85155950  0.23804550  0.52535900  1
  F  F46  1  0.85155950  0.76195450  0.52535900  1
  F  F47  1  0.64844050  0.26195450  0.47464100  1
  F  F48  1  0.52238600  0.50000000  0.18180400  1
  F  F49  1  0.97761400  0.00000000  0.81819600  1
  F  F50  1  0.63435500  0.50000000  0.74349400  1
  F  F51  1  0.86564500  0.00000000  0.25650600  1
  F  F52  1  0.73634500  0.50000000  0.27799600  1
  F  F53  1  0.76365500  0.00000000  0.72200400  1
  F  F54  1  0.51710100  0.00000000  0.17923300  1
  F  F55  1  0.98289900  0.50000000  0.82076700  1
  F  F56  1  0.50000000  0.71878400  0.50000000  1
  F  F57  1  0.50000000  0.28121600  0.50000000  1
  F  F58  1  0.75000000  0.75000000  0.00000000  1
  F  F59  1  0.75000000  0.25000000  0.00000000  1
