# generated using pymatgen
data_MnP4
_symmetry_space_group_name_H-M   'P 1'
_cell_length_a   10.51863800
_cell_length_b   5.09703800
_cell_length_c   21.78562049
_cell_angle_alpha   90.00000000
_cell_angle_beta   94.60125769
_cell_angle_gamma   90.00000000
_symmetry_Int_Tables_number   1
_chemical_formula_structural   MnP4
_chemical_formula_sum   'Mn16 P64'
_cell_volume   1164.24766073
_cell_formula_units_Z   16
loop_
 _symmetry_equiv_pos_site_id
 _symmetry_equiv_pos_as_xyz
  1  'x, y, z'
loop_
 _atom_site_type_symbol
 _atom_site_label
 _atom_site_symmetry_multiplicity
 _atom_site_fract_x
 _atom_site_fract_y
 _atom_site_fract_z
 _atom_site_occupancy
  Mn  Mn0  1  0.68419250  0.80132050  0.81824400  1
  Mn  Mn1  1  0.92553850  0.11765350  0.57037900  1
  Mn  Mn2  1  0.57446150  0.61765350  0.92962100  1
  Mn  Mn3  1  0.81580750  0.30132050  0.68175600  1
  Mn  Mn4  1  0.92553850  0.88234650  0.07037900  1
  Mn  Mn5  1  0.68419250  0.19867950  0.31824400  1
  Mn  Mn6  1  0.57446150  0.38234650  0.42962100  1
  Mn  Mn7  1  0.81580750  0.69867950  0.18175600  1
  Mn  Mn8  1  0.18419250  0.30132050  0.81824400  1
  Mn  Mn9  1  0.42553850  0.61765350  0.57037900  1
  Mn  Mn10  1  0.07446150  0.11765350  0.92962100  1
  Mn  Mn11  1  0.31580750  0.80132050  0.68175600  1
  Mn  Mn12  1  0.42553850  0.38234650  0.07037900  1
  Mn  Mn13  1  0.18419250  0.69867950  0.31824400  1
  Mn  Mn14  1  0.07446150  0.88234650  0.42962100  1
  Mn  Mn15  1  0.31580750  0.19867950  0.18175600  1
  P  P16  1  0.52586800  0.51861500  0.82974300  1
  P  P17  1  0.77590400  0.81087100  0.54921100  1
  P  P18  1  0.96727200  0.39538700  0.19999100  1
  P  P19  1  0.53272800  0.89538700  0.30000900  1
  P  P20  1  0.72409600  0.31087100  0.95078900  1
  P  P21  1  0.57892650  0.91971350  0.57438200  1
  P  P22  1  0.77000450  0.59199150  0.08353000  1
  P  P23  1  0.92419200  0.17025000  0.46346000  1
  P  P24  1  0.67214300  0.62123200  0.71586100  1
  P  P25  1  0.57892650  0.08028650  0.07438200  1
  P  P26  1  0.52586800  0.48138500  0.32974300  1
  P  P27  1  0.83926750  0.50963050  0.83069000  1
  P  P28  1  0.66073250  0.99036950  0.16931000  1
  P  P29  1  0.83926750  0.49036950  0.33069000  1
  P  P30  1  0.97413200  0.98138500  0.17025700  1
  P  P31  1  0.96727200  0.60461300  0.69999100  1
  P  P32  1  0.72999550  0.09199150  0.41647000  1
  P  P33  1  0.66073250  0.00963050  0.66931000  1
  P  P34  1  0.92419200  0.82975000  0.96346000  1
  P  P35  1  0.57580800  0.32975000  0.53654000  1
  P  P36  1  0.82785700  0.12123200  0.78413900  1
  P  P37  1  0.67214300  0.37876800  0.21586100  1
  P  P38  1  0.82785700  0.87876800  0.28413900  1
  P  P39  1  0.72999550  0.90800850  0.91647000  1
  P  P40  1  0.97413200  0.01861500  0.67025700  1
  P  P41  1  0.53272800  0.10461300  0.80000900  1
  P  P42  1  0.77000450  0.40800850  0.58353000  1
  P  P43  1  0.92107350  0.58028650  0.42561800  1
  P  P44  1  0.57580800  0.67025000  0.03654000  1
  P  P45  1  0.77590400  0.18912900  0.04921100  1
  P  P46  1  0.72409600  0.68912900  0.45078900  1
  P  P47  1  0.92107350  0.41971350  0.92561800  1
  P  P48  1  0.02586800  0.01861500  0.82974300  1
  P  P49  1  0.27590400  0.31087100  0.54921100  1
  P  P50  1  0.46727200  0.89538700  0.19999100  1
  P  P51  1  0.03272800  0.39538700  0.30000900  1
  P  P52  1  0.22409600  0.81087100  0.95078900  1
  P  P53  1  0.07892650  0.41971350  0.57438200  1
  P  P54  1  0.27000450  0.09199150  0.08353000  1
  P  P55  1  0.42419200  0.67025000  0.46346000  1
  P  P56  1  0.17214300  0.12123200  0.71586100  1
  P  P57  1  0.07892650  0.58028650  0.07438200  1
  P  P58  1  0.02586800  0.98138500  0.32974300  1
  P  P59  1  0.33926750  0.00963050  0.83069000  1
  P  P60  1  0.16073250  0.49036950  0.16931000  1
  P  P61  1  0.33926750  0.99036950  0.33069000  1
  P  P62  1  0.47413200  0.48138500  0.17025700  1
  P  P63  1  0.46727200  0.10461300  0.69999100  1
  P  P64  1  0.22999550  0.59199150  0.41647000  1
  P  P65  1  0.16073250  0.50963050  0.66931000  1
  P  P66  1  0.42419200  0.32975000  0.96346000  1
  P  P67  1  0.07580800  0.82975000  0.53654000  1
  P  P68  1  0.32785700  0.62123200  0.78413900  1
  P  P69  1  0.17214300  0.87876800  0.21586100  1
  P  P70  1  0.32785700  0.37876800  0.28413900  1
  P  P71  1  0.22999550  0.40800850  0.91647000  1
  P  P72  1  0.47413200  0.51861500  0.67025700  1
  P  P73  1  0.03272800  0.60461300  0.80000900  1
  P  P74  1  0.27000450  0.90800850  0.58353000  1
  P  P75  1  0.42107350  0.08028650  0.42561800  1
  P  P76  1  0.07580800  0.17025000  0.03654000  1
  P  P77  1  0.27590400  0.68912900  0.04921100  1
  P  P78  1  0.22409600  0.18912900  0.45078900  1
  P  P79  1  0.42107350  0.91971350  0.92561800  1
