# generated using pymatgen
data_BaCa2C2(O3F)2
_symmetry_space_group_name_H-M   'P 1'
_cell_length_a   5.93870200
_cell_length_b   12.64717000
_cell_length_c   9.55977800
_cell_angle_alpha   90.00000000
_cell_angle_beta   90.00000000
_cell_angle_gamma   90.00000000
_symmetry_Int_Tables_number   1
_chemical_formula_structural   BaCa2C2(O3F)2
_chemical_formula_sum   'Ba4 Ca8 C8 O24 F8'
_cell_volume   718.01364335
_cell_formula_units_Z   4
loop_
 _symmetry_equiv_pos_site_id
 _symmetry_equiv_pos_as_xyz
  1  'x, y, z'
loop_
 _atom_site_type_symbol
 _atom_site_label
 _atom_site_symmetry_multiplicity
 _atom_site_fract_x
 _atom_site_fract_y
 _atom_site_fract_z
 _atom_site_occupancy
  Ba  Ba0  1  0.99878600  0.00000000  0.75000000  1
  Ba  Ba1  1  0.00121400  0.00000000  0.25000000  1
  Ba  Ba2  1  0.49878600  0.50000000  0.75000000  1
  Ba  Ba3  1  0.50121400  0.50000000  0.25000000  1
  Ca  Ca4  1  0.00000000  0.35362500  0.00000000  1
  Ca  Ca5  1  0.00000000  0.35362500  0.50000000  1
  Ca  Ca6  1  0.50000000  0.14637500  0.50000000  1
  Ca  Ca7  1  0.50000000  0.14637500  0.00000000  1
  Ca  Ca8  1  0.50000000  0.85362500  0.00000000  1
  Ca  Ca9  1  0.50000000  0.85362500  0.50000000  1
  Ca  Ca10  1  0.00000000  0.64637500  0.50000000  1
  Ca  Ca11  1  0.00000000  0.64637500  0.00000000  1
  C  C12  1  0.84464350  0.25333350  0.75000000  1
  C  C13  1  0.15535650  0.25333350  0.25000000  1
  C  C14  1  0.34464350  0.24666650  0.75000000  1
  C  C15  1  0.65535650  0.24666650  0.25000000  1
  C  C16  1  0.34464350  0.75333350  0.75000000  1
  C  C17  1  0.65535650  0.75333350  0.25000000  1
  C  C18  1  0.84464350  0.74666650  0.75000000  1
  C  C19  1  0.15535650  0.74666650  0.25000000  1
  O  O20  1  0.66015950  0.29730450  0.13223800  1
  O  O21  1  0.16015950  0.20269550  0.36776200  1
  O  O22  1  0.33984050  0.29730450  0.63223800  1
  O  O23  1  0.33984050  0.29730450  0.86776200  1
  O  O24  1  0.83984050  0.20269550  0.63223800  1
  O  O25  1  0.63400500  0.14368400  0.25000000  1
  O  O26  1  0.86599500  0.35631600  0.75000000  1
  O  O27  1  0.13400500  0.35631600  0.25000000  1
  O  O28  1  0.16015950  0.20269550  0.13223800  1
  O  O29  1  0.83984050  0.20269550  0.86776200  1
  O  O30  1  0.66015950  0.29730450  0.36776200  1
  O  O31  1  0.36599500  0.14368400  0.75000000  1
  O  O32  1  0.16015950  0.79730450  0.13223800  1
  O  O33  1  0.66015950  0.70269550  0.36776200  1
  O  O34  1  0.83984050  0.79730450  0.63223800  1
  O  O35  1  0.83984050  0.79730450  0.86776200  1
  O  O36  1  0.33984050  0.70269550  0.63223800  1
  O  O37  1  0.13400500  0.64368400  0.25000000  1
  O  O38  1  0.36599500  0.85631600  0.75000000  1
  O  O39  1  0.63400500  0.85631600  0.25000000  1
  O  O40  1  0.66015950  0.70269550  0.13223800  1
  O  O41  1  0.33984050  0.70269550  0.86776200  1
  O  O42  1  0.16015950  0.79730450  0.36776200  1
  O  O43  1  0.86599500  0.64368400  0.75000000  1
  F  F44  1  0.26485100  0.00000000  0.00607600  1
  F  F45  1  0.26485100  0.00000000  0.49392400  1
  F  F46  1  0.73514900  0.00000000  0.50607600  1
  F  F47  1  0.73514900  0.00000000  0.99392400  1
  F  F48  1  0.76485100  0.50000000  0.00607600  1
  F  F49  1  0.76485100  0.50000000  0.49392400  1
  F  F50  1  0.23514900  0.50000000  0.50607600  1
  F  F51  1  0.23514900  0.50000000  0.99392400  1
