# generated using pymatgen
data_TaTl(GeO3)3
_symmetry_space_group_name_H-M   'P 1'
_cell_length_a   7.13363240
_cell_length_b   7.13363240
_cell_length_c   10.28601800
_cell_angle_alpha   90.00000000
_cell_angle_beta   90.00000000
_cell_angle_gamma   120.00000000
_symmetry_Int_Tables_number   1
_chemical_formula_structural   TaTl(GeO3)3
_chemical_formula_sum   'Ta2 Tl2 Ge6 O18'
_cell_volume   453.31424279
_cell_formula_units_Z   2
loop_
 _symmetry_equiv_pos_site_id
 _symmetry_equiv_pos_as_xyz
  1  'x, y, z'
loop_
 _atom_site_type_symbol
 _atom_site_label
 _atom_site_symmetry_multiplicity
 _atom_site_fract_x
 _atom_site_fract_y
 _atom_site_fract_z
 _atom_site_occupancy
  Ta  Ta0  1  0.00000000  0.00000000  0.00000000  1
  Ta  Ta1  1  0.00000000  0.00000000  0.50000000  1
  Tl  Tl2  1  0.33333333  0.66666667  0.00000000  1
  Tl  Tl3  1  0.33333333  0.66666667  0.50000000  1
  Ge  Ge4  1  0.74055200  0.62170700  0.25000000  1
  Ge  Ge5  1  0.88115500  0.25944800  0.25000000  1
  Ge  Ge6  1  0.37829300  0.11884500  0.25000000  1
  Ge  Ge7  1  0.37829300  0.25944800  0.75000000  1
  Ge  Ge8  1  0.88115500  0.62170700  0.75000000  1
  Ge  Ge9  1  0.74055200  0.11884500  0.75000000  1
  O  O10  1  0.93112600  0.53005700  0.25000000  1
  O  O11  1  0.59893100  0.06887400  0.25000000  1
  O  O12  1  0.46994300  0.40106900  0.25000000  1
  O  O13  1  0.46994300  0.06887400  0.75000000  1
  O  O14  1  0.59893100  0.53005700  0.75000000  1
  O  O15  1  0.93112600  0.40106900  0.75000000  1
  O  O16  1  0.76739400  0.77293500  0.11010600  1
  O  O17  1  0.00554100  0.23260600  0.38989400  1
  O  O18  1  0.22706500  0.99445900  0.38989400  1
  O  O19  1  0.22706500  0.99445900  0.11010600  1
  O  O20  1  0.00554100  0.23260600  0.11010600  1
  O  O21  1  0.22706500  0.23260600  0.88989400  1
  O  O22  1  0.00554100  0.77293500  0.88989400  1
  O  O23  1  0.76739400  0.99445900  0.88989400  1
  O  O24  1  0.00554100  0.77293500  0.61010600  1
  O  O25  1  0.76739400  0.99445900  0.61010600  1
  O  O26  1  0.76739400  0.77293500  0.38989400  1
  O  O27  1  0.22706500  0.23260600  0.61010600  1
