# generated using pymatgen
data_KY(PO3)4
_symmetry_space_group_name_H-M   'P 1'
_cell_length_a   7.93199400
_cell_length_b   12.53641600
_cell_length_c   10.55999106
_cell_angle_alpha   90.00000000
_cell_angle_beta   110.97012275
_cell_angle_gamma   90.00000000
_symmetry_Int_Tables_number   1
_chemical_formula_structural   KY(PO3)4
_chemical_formula_sum   'K4 Y4 P16 O48'
_cell_volume   980.52331464
_cell_formula_units_Z   4
loop_
 _symmetry_equiv_pos_site_id
 _symmetry_equiv_pos_as_xyz
  1  'x, y, z'
loop_
 _atom_site_type_symbol
 _atom_site_label
 _atom_site_symmetry_multiplicity
 _atom_site_fract_x
 _atom_site_fract_y
 _atom_site_fract_z
 _atom_site_occupancy
  K  K0  1  0.50000000  0.68465600  0.75000000  1
  K  K1  1  0.50000000  0.31534400  0.25000000  1
  K  K2  1  0.00000000  0.18465600  0.75000000  1
  K  K3  1  0.00000000  0.81534400  0.25000000  1
  Y  Y4  1  0.50000000  0.62009100  0.25000000  1
  Y  Y5  1  0.50000000  0.37990900  0.75000000  1
  Y  Y6  1  0.00000000  0.12009100  0.25000000  1
  Y  Y7  1  0.00000000  0.87990900  0.75000000  1
  P  P8  1  0.72079250  0.02390050  0.44290500  1
  P  P9  1  0.27920750  0.02390050  0.05709500  1
  P  P10  1  0.27920750  0.97609950  0.55709500  1
  P  P11  1  0.72079250  0.97609950  0.94290500  1
  P  P12  1  0.54363400  0.17018300  0.99658300  1
  P  P13  1  0.45636600  0.17018300  0.50341700  1
  P  P14  1  0.45636600  0.82981700  0.00341700  1
  P  P15  1  0.54363400  0.82981700  0.49658300  1
  P  P16  1  0.22079250  0.52390050  0.44290500  1
  P  P17  1  0.77920750  0.52390050  0.05709500  1
  P  P18  1  0.77920750  0.47609950  0.55709500  1
  P  P19  1  0.22079250  0.47609950  0.94290500  1
  P  P20  1  0.04363400  0.67018300  0.99658300  1
  P  P21  1  0.95636600  0.67018300  0.50341700  1
  P  P22  1  0.95636600  0.32981700  0.00341700  1
  P  P23  1  0.04363400  0.32981700  0.49658300  1
  O  O24  1  0.78373100  0.03083400  0.32612600  1
  O  O25  1  0.21626900  0.03083400  0.17387400  1
  O  O26  1  0.21626900  0.96916600  0.67387400  1
  O  O27  1  0.78373100  0.96916600  0.82612600  1
  O  O28  1  0.85348000  0.01070200  0.58530800  1
  O  O29  1  0.14652000  0.01070200  0.91469200  1
  O  O30  1  0.14652000  0.98929800  0.41469200  1
  O  O31  1  0.85348000  0.98929800  0.08530800  1
  O  O32  1  0.59938750  0.12855650  0.43595200  1
  O  O33  1  0.40061250  0.12855650  0.06404800  1
  O  O34  1  0.40061250  0.87144350  0.56404800  1
  O  O35  1  0.59938750  0.87144350  0.93595200  1
  O  O36  1  0.57105700  0.07040400  0.91079700  1
  O  O37  1  0.42894300  0.07040400  0.58920300  1
  O  O38  1  0.42894300  0.92959600  0.08920300  1
  O  O39  1  0.57105700  0.92959600  0.41079700  1
  O  O40  1  0.71089900  0.19838700  0.11442400  1
  O  O41  1  0.28910100  0.19838700  0.38557600  1
  O  O42  1  0.28910100  0.80161300  0.88557600  1
  O  O43  1  0.71089900  0.80161300  0.61442400  1
  O  O44  1  0.44659800  0.25563400  0.89747200  1
  O  O45  1  0.55340200  0.25563400  0.60252800  1
  O  O46  1  0.55340200  0.74436600  0.10252800  1
  O  O47  1  0.44659800  0.74436600  0.39747200  1
  O  O48  1  0.28373100  0.53083400  0.32612600  1
  O  O49  1  0.71626900  0.53083400  0.17387400  1
  O  O50  1  0.71626900  0.46916600  0.67387400  1
  O  O51  1  0.28373100  0.46916600  0.82612600  1
  O  O52  1  0.35348000  0.51070200  0.58530800  1
  O  O53  1  0.64652000  0.51070200  0.91469200  1
  O  O54  1  0.64652000  0.48929800  0.41469200  1
  O  O55  1  0.35348000  0.48929800  0.08530800  1
  O  O56  1  0.09938750  0.62855650  0.43595200  1
  O  O57  1  0.90061250  0.62855650  0.06404800  1
  O  O58  1  0.90061250  0.37144350  0.56404800  1
  O  O59  1  0.09938750  0.37144350  0.93595200  1
  O  O60  1  0.07105700  0.57040400  0.91079700  1
  O  O61  1  0.92894300  0.57040400  0.58920300  1
  O  O62  1  0.92894300  0.42959600  0.08920300  1
  O  O63  1  0.07105700  0.42959600  0.41079700  1
  O  O64  1  0.21089900  0.69838700  0.11442400  1
  O  O65  1  0.78910100  0.69838700  0.38557600  1
  O  O66  1  0.78910100  0.30161300  0.88557600  1
  O  O67  1  0.21089900  0.30161300  0.61442400  1
  O  O68  1  0.94659800  0.75563400  0.89747200  1
  O  O69  1  0.05340200  0.75563400  0.60252800  1
  O  O70  1  0.05340200  0.24436600  0.10252800  1
  O  O71  1  0.94659800  0.24436600  0.39747200  1
