# generated using pymatgen
data_KInSe2
_symmetry_space_group_name_H-M   'P 1'
_cell_length_a   11.67853800
_cell_length_b   11.67244200
_cell_length_c   15.95905243
_cell_angle_alpha   90.00000000
_cell_angle_beta   100.53443271
_cell_angle_gamma   90.00000000
_symmetry_Int_Tables_number   1
_chemical_formula_structural   KInSe2
_chemical_formula_sum   'K16 In16 Se32'
_cell_volume   2138.82362831
_cell_formula_units_Z   16
loop_
 _symmetry_equiv_pos_site_id
 _symmetry_equiv_pos_as_xyz
  1  'x, y, z'
loop_
 _atom_site_type_symbol
 _atom_site_label
 _atom_site_symmetry_multiplicity
 _atom_site_fract_x
 _atom_site_fract_y
 _atom_site_fract_z
 _atom_site_occupancy
  K  K0  1  0.46703700  0.31334000  0.11374300  1
  K  K1  1  0.53296300  0.31334000  0.38625700  1
  K  K2  1  0.53296300  0.68666000  0.88625700  1
  K  K3  1  0.46703700  0.68666000  0.61374300  1
  K  K4  1  0.28235600  0.06164200  0.38143300  1
  K  K5  1  0.71764400  0.06164200  0.11856700  1
  K  K6  1  0.71764400  0.93835800  0.61856700  1
  K  K7  1  0.28235600  0.93835800  0.88143300  1
  K  K8  1  0.96703700  0.81334000  0.11374300  1
  K  K9  1  0.03296300  0.81334000  0.38625700  1
  K  K10  1  0.03296300  0.18666000  0.88625700  1
  K  K11  1  0.96703700  0.18666000  0.61374300  1
  K  K12  1  0.78235600  0.56164200  0.38143300  1
  K  K13  1  0.21764400  0.56164200  0.11856700  1
  K  K14  1  0.21764400  0.43835800  0.61856700  1
  K  K15  1  0.78235600  0.43835800  0.88143300  1
  In  In16  1  0.60073850  0.68840650  0.15616600  1
  In  In17  1  0.39926150  0.68840650  0.34383400  1
  In  In18  1  0.39926150  0.31159350  0.84383400  1
  In  In19  1  0.60073850  0.31159350  0.65616600  1
  In  In20  1  0.64763150  0.93672650  0.34357800  1
  In  In21  1  0.35236850  0.93672650  0.15642200  1
  In  In22  1  0.35236850  0.06327350  0.65642200  1
  In  In23  1  0.64763150  0.06327350  0.84357800  1
  In  In24  1  0.10073850  0.18840650  0.15616600  1
  In  In25  1  0.89926150  0.18840650  0.34383400  1
  In  In26  1  0.89926150  0.81159350  0.84383400  1
  In  In27  1  0.10073850  0.81159350  0.65616600  1
  In  In28  1  0.14763150  0.43672650  0.34357800  1
  In  In29  1  0.85236850  0.43672650  0.15642200  1
  In  In30  1  0.85236850  0.56327350  0.65642200  1
  In  In31  1  0.14763150  0.56327350  0.84357800  1
  Se  Se32  1  0.76321200  0.81205700  0.25019800  1
  Se  Se33  1  0.23678800  0.81205700  0.24980200  1
  Se  Se34  1  0.23678800  0.18794300  0.74980200  1
  Se  Se35  1  0.76321200  0.18794300  0.75019800  1
  Se  Se36  1  0.20067150  0.06186050  0.05419200  1
  Se  Se37  1  0.79932850  0.06186050  0.44580800  1
  Se  Se38  1  0.79932850  0.93813950  0.94580800  1
  Se  Se39  1  0.20067150  0.93813950  0.55419200  1
  Se  Se40  1  0.50000000  0.54956900  0.25000000  1
  Se  Se41  1  0.50000000  0.45043100  0.75000000  1
  Se  Se42  1  0.45080150  0.81278650  0.05309400  1
  Se  Se43  1  0.54919850  0.81278650  0.44690600  1
  Se  Se44  1  0.54919850  0.18721350  0.94690600  1
  Se  Se45  1  0.45080150  0.18721350  0.55309400  1
  Se  Se46  1  0.50000000  0.07564600  0.25000000  1
  Se  Se47  1  0.50000000  0.92435400  0.75000000  1
  Se  Se48  1  0.26321200  0.31205700  0.25019800  1
  Se  Se49  1  0.73678800  0.31205700  0.24980200  1
  Se  Se50  1  0.73678800  0.68794300  0.74980200  1
  Se  Se51  1  0.26321200  0.68794300  0.75019800  1
  Se  Se52  1  0.70067150  0.56186050  0.05419200  1
  Se  Se53  1  0.29932850  0.56186050  0.44580800  1
  Se  Se54  1  0.29932850  0.43813950  0.94580800  1
  Se  Se55  1  0.70067150  0.43813950  0.55419200  1
  Se  Se56  1  0.00000000  0.04956900  0.25000000  1
  Se  Se57  1  0.00000000  0.95043100  0.75000000  1
  Se  Se58  1  0.95080150  0.31278650  0.05309400  1
  Se  Se59  1  0.04919850  0.31278650  0.44690600  1
  Se  Se60  1  0.04919850  0.68721350  0.94690600  1
  Se  Se61  1  0.95080150  0.68721350  0.55309400  1
  Se  Se62  1  0.00000000  0.57564600  0.25000000  1
  Se  Se63  1  0.00000000  0.42435400  0.75000000  1
