# generated using pymatgen
data_Ag3Te2Au
_symmetry_space_group_name_H-M   'P 1'
_cell_length_a   10.54841800
_cell_length_b   10.54841800
_cell_length_c   10.54841800
_cell_angle_alpha   90.00000000
_cell_angle_beta   90.00000000
_cell_angle_gamma   90.00000000
_symmetry_Int_Tables_number   1
_chemical_formula_structural   Ag3Te2Au
_chemical_formula_sum   'Ag24 Te16 Au8'
_cell_volume   1173.71321254
_cell_formula_units_Z   8
loop_
 _symmetry_equiv_pos_site_id
 _symmetry_equiv_pos_as_xyz
  1  'x, y, z'
loop_
 _atom_site_type_symbol
 _atom_site_label
 _atom_site_symmetry_multiplicity
 _atom_site_fract_x
 _atom_site_fract_y
 _atom_site_fract_z
 _atom_site_occupancy
  Ag  Ag0  1  0.25000000  0.10931000  0.50000000  1
  Ag  Ag1  1  0.35931000  0.00000000  0.25000000  1
  Ag  Ag2  1  0.14069000  0.00000000  0.75000000  1
  Ag  Ag3  1  0.00000000  0.25000000  0.35931000  1
  Ag  Ag4  1  0.00000000  0.75000000  0.14069000  1
  Ag  Ag5  1  0.25000000  0.35931000  0.00000000  1
  Ag  Ag6  1  0.50000000  0.25000000  0.10931000  1
  Ag  Ag7  1  0.39069000  0.50000000  0.75000000  1
  Ag  Ag8  1  0.50000000  0.75000000  0.39069000  1
  Ag  Ag9  1  0.10931000  0.50000000  0.25000000  1
  Ag  Ag10  1  0.75000000  0.39069000  0.50000000  1
  Ag  Ag11  1  0.75000000  0.14069000  0.00000000  1
  Ag  Ag12  1  0.75000000  0.60931000  0.00000000  1
  Ag  Ag13  1  0.85931000  0.50000000  0.75000000  1
  Ag  Ag14  1  0.64069000  0.50000000  0.25000000  1
  Ag  Ag15  1  0.50000000  0.75000000  0.85931000  1
  Ag  Ag16  1  0.50000000  0.25000000  0.64069000  1
  Ag  Ag17  1  0.75000000  0.85931000  0.50000000  1
  Ag  Ag18  1  0.00000000  0.75000000  0.60931000  1
  Ag  Ag19  1  0.89069000  0.00000000  0.25000000  1
  Ag  Ag20  1  0.00000000  0.25000000  0.89069000  1
  Ag  Ag21  1  0.60931000  0.00000000  0.75000000  1
  Ag  Ag22  1  0.25000000  0.89069000  0.00000000  1
  Ag  Ag23  1  0.25000000  0.64069000  0.50000000  1
  Te  Te24  1  0.22934550  0.72934550  0.77065450  1
  Te  Te25  1  0.97934550  0.02065450  0.52065450  1
  Te  Te26  1  0.47934550  0.47934550  0.47934550  1
  Te  Te27  1  0.52065450  0.97934550  0.02065450  1
  Te  Te28  1  0.02065450  0.52065450  0.97934550  1
  Te  Te29  1  0.77065450  0.22934550  0.72934550  1
  Te  Te30  1  0.72934550  0.77065450  0.22934550  1
  Te  Te31  1  0.27065450  0.27065450  0.27065450  1
  Te  Te32  1  0.72934550  0.22934550  0.27065450  1
  Te  Te33  1  0.47934550  0.52065450  0.02065450  1
  Te  Te34  1  0.97934550  0.97934550  0.97934550  1
  Te  Te35  1  0.02065450  0.47934550  0.52065450  1
  Te  Te36  1  0.52065450  0.02065450  0.47934550  1
  Te  Te37  1  0.27065450  0.72934550  0.22934550  1
  Te  Te38  1  0.22934550  0.27065450  0.72934550  1
  Te  Te39  1  0.77065450  0.77065450  0.77065450  1
  Au  Au40  1  0.12500000  0.12500000  0.12500000  1
  Au  Au41  1  0.37500000  0.12500000  0.87500000  1
  Au  Au42  1  0.12500000  0.87500000  0.37500000  1
  Au  Au43  1  0.87500000  0.37500000  0.12500000  1
  Au  Au44  1  0.62500000  0.62500000  0.62500000  1
  Au  Au45  1  0.87500000  0.62500000  0.37500000  1
  Au  Au46  1  0.62500000  0.37500000  0.87500000  1
  Au  Au47  1  0.37500000  0.87500000  0.62500000  1
