# generated using pymatgen
data_Rb2Ge2S5
_symmetry_space_group_name_H-M   'P 1'
_cell_length_a   15.81829800
_cell_length_b   15.88083600
_cell_length_c   9.30532497
_cell_angle_alpha   90.00000000
_cell_angle_beta   104.83836917
_cell_angle_gamma   90.00000000
_symmetry_Int_Tables_number   1
_chemical_formula_structural   Rb2Ge2S5
_chemical_formula_sum   'Rb16 Ge16 S40'
_cell_volume   2259.61714255
_cell_formula_units_Z   8
loop_
 _symmetry_equiv_pos_site_id
 _symmetry_equiv_pos_as_xyz
  1  'x, y, z'
loop_
 _atom_site_type_symbol
 _atom_site_label
 _atom_site_symmetry_multiplicity
 _atom_site_fract_x
 _atom_site_fract_y
 _atom_site_fract_z
 _atom_site_occupancy
  Rb  Rb0  1  0.34271400  0.86787600  0.12588600  1
  Rb  Rb1  1  0.65728600  0.86787600  0.37411400  1
  Rb  Rb2  1  0.65728600  0.13212400  0.87411400  1
  Rb  Rb3  1  0.34271400  0.13212400  0.62588600  1
  Rb  Rb4  1  0.86589300  0.07451100  0.37256800  1
  Rb  Rb5  1  0.13410700  0.07451100  0.12743200  1
  Rb  Rb6  1  0.13410700  0.92548900  0.62743200  1
  Rb  Rb7  1  0.86589300  0.92548900  0.87256800  1
  Rb  Rb8  1  0.84271400  0.36787600  0.12588600  1
  Rb  Rb9  1  0.15728600  0.36787600  0.37411400  1
  Rb  Rb10  1  0.15728600  0.63212400  0.87411400  1
  Rb  Rb11  1  0.84271400  0.63212400  0.62588600  1
  Rb  Rb12  1  0.36589300  0.57451100  0.37256800  1
  Rb  Rb13  1  0.63410700  0.57451100  0.12743200  1
  Rb  Rb14  1  0.63410700  0.42548900  0.62743200  1
  Rb  Rb15  1  0.36589300  0.42548900  0.87256800  1
  Ge  Ge16  1  0.39715850  0.87000550  0.60092800  1
  Ge  Ge17  1  0.60284150  0.87000550  0.89907200  1
  Ge  Ge18  1  0.60284150  0.12999450  0.39907200  1
  Ge  Ge19  1  0.39715850  0.12999450  0.10092800  1
  Ge  Ge20  1  0.56617250  0.29601150  0.11495500  1
  Ge  Ge21  1  0.43382750  0.29601150  0.38504500  1
  Ge  Ge22  1  0.43382750  0.70398850  0.88504500  1
  Ge  Ge23  1  0.56617250  0.70398850  0.61495500  1
  Ge  Ge24  1  0.89715850  0.37000550  0.60092800  1
  Ge  Ge25  1  0.10284150  0.37000550  0.89907200  1
  Ge  Ge26  1  0.10284150  0.62999450  0.39907200  1
  Ge  Ge27  1  0.89715850  0.62999450  0.10092800  1
  Ge  Ge28  1  0.06617250  0.79601150  0.11495500  1
  Ge  Ge29  1  0.93382750  0.79601150  0.38504500  1
  Ge  Ge30  1  0.93382750  0.20398850  0.88504500  1
  Ge  Ge31  1  0.06617250  0.20398850  0.61495500  1
  S  S32  1  0.33078900  0.78672700  0.73984600  1
  S  S33  1  0.66921100  0.78672700  0.76015400  1
  S  S34  1  0.66921100  0.21327300  0.26015400  1
  S  S35  1  0.33078900  0.21327300  0.23984600  1
  S  S36  1  0.53905550  0.21609650  0.53763600  1
  S  S37  1  0.46094450  0.21609650  0.96236400  1
  S  S38  1  0.46094450  0.78390350  0.46236400  1
  S  S39  1  0.53905550  0.78390350  0.03763600  1
  S  S40  1  0.29912700  0.94449100  0.45486400  1
  S  S41  1  0.70087300  0.94449100  0.04513600  1
  S  S42  1  0.70087300  0.05550900  0.54513600  1
  S  S43  1  0.29912700  0.05550900  0.95486400  1
  S  S44  1  0.37832850  0.62547250  0.02425500  1
  S  S45  1  0.62167150  0.62547250  0.47574500  1
  S  S46  1  0.62167150  0.37452750  0.97574500  1
  S  S47  1  0.37832850  0.37452750  0.52425500  1
  S  S48  1  0.50000000  0.61893400  0.75000000  1
  S  S49  1  0.50000000  0.38106600  0.25000000  1
  S  S50  1  0.50000000  0.95267600  0.75000000  1
  S  S51  1  0.50000000  0.04732400  0.25000000  1
  S  S52  1  0.83078900  0.28672700  0.73984600  1
  S  S53  1  0.16921100  0.28672700  0.76015400  1
  S  S54  1  0.16921100  0.71327300  0.26015400  1
  S  S55  1  0.83078900  0.71327300  0.23984600  1
  S  S56  1  0.03905550  0.71609650  0.53763600  1
  S  S57  1  0.96094450  0.71609650  0.96236400  1
  S  S58  1  0.96094450  0.28390350  0.46236400  1
  S  S59  1  0.03905550  0.28390350  0.03763600  1
  S  S60  1  0.79912700  0.44449100  0.45486400  1
  S  S61  1  0.20087300  0.44449100  0.04513600  1
  S  S62  1  0.20087300  0.55550900  0.54513600  1
  S  S63  1  0.79912700  0.55550900  0.95486400  1
  S  S64  1  0.87832850  0.12547250  0.02425500  1
  S  S65  1  0.12167150  0.12547250  0.47574500  1
  S  S66  1  0.12167150  0.87452750  0.97574500  1
  S  S67  1  0.87832850  0.87452750  0.52425500  1
  S  S68  1  0.00000000  0.11893400  0.75000000  1
  S  S69  1  0.00000000  0.88106600  0.25000000  1
  S  S70  1  0.00000000  0.45267600  0.75000000  1
  S  S71  1  0.00000000  0.54732400  0.25000000  1
