# generated using pymatgen
data_K3Na2LiTeO6
_symmetry_space_group_name_H-M   'P 1'
_cell_length_a   9.40664800
_cell_length_b   12.04681600
_cell_length_c   6.88720157
_cell_angle_alpha   90.00000000
_cell_angle_beta   93.73796532
_cell_angle_gamma   90.00000000
_symmetry_Int_Tables_number   1
_chemical_formula_structural   K3Na2LiTeO6
_chemical_formula_sum   'K12 Na8 Li4 Te4 O24'
_cell_volume   778.79844934
_cell_formula_units_Z   4
loop_
 _symmetry_equiv_pos_site_id
 _symmetry_equiv_pos_as_xyz
  1  'x, y, z'
loop_
 _atom_site_type_symbol
 _atom_site_label
 _atom_site_symmetry_multiplicity
 _atom_site_fract_x
 _atom_site_fract_y
 _atom_site_fract_z
 _atom_site_occupancy
  K  K0  1  0.60814900  0.00929900  0.23957000  1
  K  K1  1  0.93899950  0.04690150  0.57379300  1
  K  K2  1  0.25710400  0.96017700  0.75427000  1
  K  K3  1  0.60814900  0.99070100  0.73957000  1
  K  K4  1  0.93899950  0.95309850  0.07379300  1
  K  K5  1  0.25710400  0.03982300  0.25427000  1
  K  K6  1  0.10814900  0.50929900  0.23957000  1
  K  K7  1  0.43899950  0.54690150  0.57379300  1
  K  K8  1  0.75710400  0.46017700  0.75427000  1
  K  K9  1  0.10814900  0.49070100  0.73957000  1
  K  K10  1  0.43899950  0.45309850  0.07379300  1
  K  K11  1  0.75710400  0.53982300  0.25427000  1
  Na  Na12  1  0.65813700  0.26815300  0.10184000  1
  Na  Na13  1  0.65813700  0.73184700  0.60184000  1
  Na  Na14  1  0.35518700  0.78431500  0.40445800  1
  Na  Na15  1  0.35518700  0.21568500  0.90445800  1
  Na  Na16  1  0.15813700  0.76815300  0.10184000  1
  Na  Na17  1  0.15813700  0.23184700  0.60184000  1
  Na  Na18  1  0.85518700  0.28431500  0.40445800  1
  Na  Na19  1  0.85518700  0.71568500  0.90445800  1
  Li  Li20  1  0.74823500  0.22209800  0.75082600  1
  Li  Li21  1  0.74823500  0.77790200  0.25082600  1
  Li  Li22  1  0.24823500  0.72209800  0.75082600  1
  Li  Li23  1  0.24823500  0.27790200  0.25082600  1
  Te  Te24  1  0.49986100  0.74302800  0.00003400  1
  Te  Te25  1  0.49986100  0.25697200  0.50003400  1
  Te  Te26  1  0.99986100  0.24302800  0.00003400  1
  Te  Te27  1  0.99986100  0.75697200  0.50003400  1
  O  O28  1  0.82522850  0.85277150  0.48577200  1
  O  O29  1  0.61340950  0.37952650  0.39994500  1
  O  O30  1  0.38737850  0.86755150  0.09736100  1
  O  O31  1  0.55666600  0.30078100  0.77352700  1
  O  O32  1  0.61340950  0.62047350  0.89994500  1
  O  O33  1  0.55666600  0.69921900  0.27352700  1
  O  O34  1  0.82522850  0.14722850  0.98577200  1
  O  O35  1  0.67416500  0.16200100  0.50384400  1
  O  O36  1  0.67416500  0.83799900  0.00384400  1
  O  O37  1  0.44408100  0.78962200  0.72696200  1
  O  O38  1  0.38737850  0.13244850  0.59736100  1
  O  O39  1  0.44408100  0.21037800  0.22696200  1
  O  O40  1  0.32522850  0.35277150  0.48577200  1
  O  O41  1  0.11340950  0.87952650  0.39994500  1
  O  O42  1  0.88737850  0.36755150  0.09736100  1
  O  O43  1  0.05666600  0.80078100  0.77352700  1
  O  O44  1  0.11340950  0.12047350  0.89994500  1
  O  O45  1  0.05666600  0.19921900  0.27352700  1
  O  O46  1  0.32522850  0.64722850  0.98577200  1
  O  O47  1  0.17416500  0.66200100  0.50384400  1
  O  O48  1  0.17416500  0.33799900  0.00384400  1
  O  O49  1  0.94408100  0.28962200  0.72696200  1
  O  O50  1  0.88737850  0.63244850  0.59736100  1
  O  O51  1  0.94408100  0.71037800  0.22696200  1
