# generated using pymatgen
data_SiO2
_symmetry_space_group_name_H-M   'P 1'
_cell_length_a   20.38501000
_cell_length_b   20.38501000
_cell_length_c   13.61445200
_cell_angle_alpha   90.00000000
_cell_angle_beta   90.00000000
_cell_angle_gamma   90.00000000
_symmetry_Int_Tables_number   1
_chemical_formula_structural   SiO2
_chemical_formula_sum   'Si96 O192'
_cell_volume   5657.46691356
_cell_formula_units_Z   96
loop_
 _symmetry_equiv_pos_site_id
 _symmetry_equiv_pos_as_xyz
  1  'x, y, z'
loop_
 _atom_site_type_symbol
 _atom_site_label
 _atom_site_symmetry_multiplicity
 _atom_site_fract_x
 _atom_site_fract_y
 _atom_site_fract_z
 _atom_site_occupancy
  Si  Si0  1  0.80598900  0.42439600  0.48599350  1
  Si  Si1  1  0.92439600  0.69401100  0.01400650  1
  Si  Si2  1  0.07635450  0.77575550  0.35146200  1
  Si  Si3  1  0.07545100  0.69004300  0.00064550  1
  Si  Si4  1  0.12016350  0.57565650  0.14019300  1
  Si  Si5  1  0.22074700  0.31407800  0.64975150  1
  Si  Si6  1  0.77895950  0.30662750  0.63136400  1
  Si  Si7  1  0.27449300  0.57730700  0.13781550  1
  Si  Si8  1  0.77925300  0.68592200  0.64975150  1
  Si  Si9  1  0.07730700  0.22550700  0.36218450  1
  Si  Si10  1  0.07565650  0.37983650  0.35980700  1
  Si  Si11  1  0.92269300  0.77449300  0.36218450  1
  Si  Si12  1  0.19337250  0.27895950  0.86863600  1
  Si  Si13  1  0.07622900  0.62129800  0.35188350  1
  Si  Si14  1  0.69297700  0.31491500  0.98546150  1
  Si  Si15  1  0.72550700  0.42269300  0.13781550  1
  Si  Si16  1  0.80995700  0.57545100  0.49935450  1
  Si  Si17  1  0.68950850  0.62193550  0.36113200  1
  Si  Si18  1  0.19004300  0.42454900  0.49935450  1
  Si  Si19  1  0.07560400  0.30598900  0.01400650  1
  Si  Si20  1  0.92377100  0.37870200  0.35188350  1
  Si  Si21  1  0.57704950  0.42311450  0.49548800  1
  Si  Si22  1  0.19401100  0.57560400  0.48599350  1
  Si  Si23  1  0.27575550  0.42364550  0.14853800  1
  Si  Si24  1  0.68556000  0.37894500  0.35033050  1
  Si  Si25  1  0.31444000  0.62105500  0.35033050  1
  Si  Si26  1  0.80662750  0.72104050  0.86863600  1
  Si  Si27  1  0.12193550  0.81049150  0.13886800  1
  Si  Si28  1  0.81407800  0.27925300  0.85024850  1
  Si  Si29  1  0.30702300  0.68508500  0.98546150  1
  Si  Si30  1  0.87870200  0.57622900  0.14811650  1
  Si  Si31  1  0.92364550  0.22424450  0.35146200  1
  Si  Si32  1  0.92311450  0.92295050  0.00451200  1
  Si  Si33  1  0.81491500  0.80702300  0.51453850  1
  Si  Si34  1  0.12129800  0.42377100  0.14811650  1
  Si  Si35  1  0.12105500  0.18556000  0.14966950  1
  Si  Si36  1  0.42295050  0.57688550  0.49548800  1
  Si  Si37  1  0.87983650  0.42434350  0.14019300  1
  Si  Si38  1  0.92454900  0.30995700  0.00064550  1
  Si  Si39  1  0.87806450  0.18950850  0.13886800  1
  Si  Si40  1  0.87894500  0.81444000  0.14966950  1
  Si  Si41  1  0.31049150  0.37806450  0.36113200  1
  Si  Si42  1  0.18592200  0.72074700  0.85024850  1
  Si  Si43  1  0.18508500  0.19297700  0.51453850  1
  Si  Si44  1  0.72424450  0.57635450  0.14853800  1
  Si  Si45  1  0.92434350  0.62016350  0.35980700  1
  Si  Si46  1  0.07688550  0.07704950  0.00451200  1
  Si  Si47  1  0.22104050  0.69337250  0.63136400  1
  Si  Si48  1  0.30598900  0.92439600  0.98599350  1
  Si  Si49  1  0.42439600  0.19401100  0.51400650  1
  Si  Si50  1  0.57635450  0.27575550  0.85146200  1
  Si  Si51  1  0.57545100  0.19004300  0.50064550  1
  Si  Si52  1  0.62016350  0.07565650  0.64019300  1
  Si  Si53  1  0.72074700  0.81407800  0.14975150  1
  Si  Si54  1  0.27895950  0.80662750  0.13136400  1
  Si  Si55  1  0.77449300  0.07730700  0.63781550  1
  Si  Si56  1  0.27925300  0.18592200  0.14975150  1
  Si  Si57  1  0.57730700  0.72550700  0.86218450  1
  Si  Si58  1  0.57565650  0.87983650  0.85980700  1
  Si  Si59  1  0.42269300  0.27449300  0.86218450  1
  Si  Si60  1  0.69337250  0.77895950  0.36863600  1
  Si  Si61  1  0.57622900  0.12129800  0.85188350  1
  Si  Si62  1  0.19297700  0.81491500  0.48546150  1
  Si  Si63  1  0.22550700  0.92269300  0.63781550  1
  Si  Si64  1  0.30995700  0.07545100  0.99935450  1
  Si  Si65  1  0.18950850  0.12193550  0.86113200  1
  Si  Si66  1  0.69004300  0.92454900  0.99935450  1
  Si  Si67  1  0.57560400  0.80598900  0.51400650  1
  Si  Si68  1  0.42377100  0.87870200  0.85188350  1
  Si  Si69  1  0.07704950  0.92311450  0.99548800  1
  Si  Si70  1  0.69401100  0.07560400  0.98599350  1
  Si  Si71  1  0.77575550  0.92364550  0.64853800  1
  Si  Si72  1  0.18556000  0.87894500  0.85033050  1
  Si  Si73  1  0.81444000  0.12105500  0.85033050  1
  Si  Si74  1  0.30662750  0.22104050  0.36863600  1
  Si  Si75  1  0.62193550  0.31049150  0.63886800  1
  Si  Si76  1  0.31407800  0.77925300  0.35024850  1
  Si  Si77  1  0.80702300  0.18508500  0.48546150  1
  Si  Si78  1  0.37870200  0.07622900  0.64811650  1
  Si  Si79  1  0.42364550  0.72424450  0.85146200  1
  Si  Si80  1  0.42311450  0.42295050  0.50451200  1
  Si  Si81  1  0.31491500  0.30702300  0.01453850  1
  Si  Si82  1  0.62129800  0.92377100  0.64811650  1
  Si  Si83  1  0.62105500  0.68556000  0.64966950  1
  Si  Si84  1  0.92295050  0.07688550  0.99548800  1
  Si  Si85  1  0.37983650  0.92434350  0.64019300  1
  Si  Si86  1  0.42454900  0.80995700  0.50064550  1
  Si  Si87  1  0.37806450  0.68950850  0.63886800  1
  Si  Si88  1  0.37894500  0.31444000  0.64966950  1
  Si  Si89  1  0.81049150  0.87806450  0.86113200  1
  Si  Si90  1  0.68592200  0.22074700  0.35024850  1
  Si  Si91  1  0.68508500  0.69297700  0.01453850  1
  Si  Si92  1  0.22424450  0.07635450  0.64853800  1
  Si  Si93  1  0.42434350  0.12016350  0.85980700  1
  Si  Si94  1  0.57688550  0.57704950  0.50451200  1
  Si  Si95  1  0.72104050  0.19337250  0.13136400  1
  O  O96  1  0.08774750  0.61949850  0.05345900  1
  O  O97  1  0.71596800  0.50029300  0.11654650  1
  O  O98  1  0.24865700  0.40437100  0.42457150  1
  O  O99  1  0.09562900  0.74865700  0.07542850  1
  O  O100  1  0.87836450  0.18863750  0.43325800  1
  O  O101  1  0.30349200  0.61573900  0.04334250  1
  O  O102  1  0.28403200  0.49970700  0.11654650  1
  O  O103  1  0.09981750  0.18590150  0.26435100  1
  O  O104  1  0.81281550  0.74903550  0.59665200  1
  O  O105  1  0.37947200  0.39615200  0.41343450  1
  O  O106  1  0.80152100  0.59629000  0.15608450  1
  O  O107  1  0.80741800  0.20005700  0.86151250  1
  O  O108  1  0.38410850  0.59680850  0.39556900  1
  O  O109  1  0.81696700  0.30083700  0.73568350  1
  O  O110  1  0.12505550  0.29964250  0.92118600  1
  O  O111  1  0.09680850  0.11589150  0.10443100  1
  O  O112  1  0.68590150  0.40018250  0.23564900  1
  O  O113  1  0.88170550  0.30473950  0.90048400  1
  O  O114  1  0.88050150  0.58774750  0.44654100  1
  O  O115  1  0.70005700  0.69258200  0.63848750  1
  O  O116  1  0.59010700  0.49952200  0.52315150  1
  O  O117  1  0.20035750  0.62505550  0.57881400  1
  O  O118  1  0.79958700  0.24553000  0.56201150  1
  O  O119  1  0.99864950  0.69705050  0.97116700  1
  O  O120  1  0.19554750  0.20065050  0.84832200  1
  O  O121  1  0.68949250  0.58703150  0.25443200  1
  O  O122  1  0.11949850  0.41225250  0.44654100  1
  O  O123  1  0.09517750  0.30280750  0.34639700  1
  O  O124  1  0.20041300  0.75447000  0.56201150  1
  O  O125  1  0.24903550  0.68718450  0.90334800  1
  O  O126  1  0.80294950  0.49864950  0.52883300  1
  O  O127  1  0.99952200  0.90989300  0.97684850  1
  O  O128  1  0.19526050  0.38170550  0.59951600  1
  O  O129  1  0.91225250  0.38050150  0.05345900  1
  O  O130  1  0.99970700  0.21596800  0.38345350  1
  O  O131  1  0.79964250  0.37494450  0.57881400  1
  O  O132  1  0.74631100  0.41354300  0.40802850  1
  O  O133  1  0.00029300  0.78403200  0.38345350  1
  O  O134  1  0.08703150  0.81050750  0.24556800  1
  O  O135  1  0.11573900  0.19650800  0.45665750  1
  O  O136  1  0.61589150  0.40319150  0.39556900  1
  O  O137  1  0.29994300  0.30741800  0.63848750  1
  O  O138  1  0.70065050  0.30445250  0.65167800  1
  O  O139  1  0.88700850  0.50116050  0.10965600  1
  O  O140  1  0.31050750  0.41296850  0.25443200  1
  O  O141  1  0.10384800  0.87947200  0.08656550  1
  O  O142  1  0.91296850  0.18949250  0.24556800  1
  O  O143  1  0.75134300  0.59562900  0.42457150  1
  O  O144  1  0.99883950  0.38700850  0.39034400  1
  O  O145  1  0.18303300  0.69916300  0.73568350  1
  O  O146  1  0.90437100  0.25134300  0.07542850  1
  O  O147  1  0.80280750  0.40482250  0.15360300  1
  O  O148  1  0.90482250  0.69719250  0.34639700  1
  O  O149  1  0.91440600  0.62422700  0.06980750  1
  O  O150  1  0.91749350  0.41183950  0.24371400  1
  O  O151  1  0.87577300  0.41440600  0.43019250  1
  O  O152  1  0.18718450  0.25096450  0.59665200  1
  O  O153  1  0.00116050  0.61299150  0.39034400  1
  O  O154  1  0.80445250  0.79934950  0.84832200  1
  O  O155  1  0.19719250  0.59517750  0.15360300  1
  O  O156  1  0.12163550  0.81136250  0.43325800  1
  O  O157  1  0.19916300  0.31696700  0.76431650  1
  O  O158  1  0.90319150  0.88410850  0.10443100  1
  O  O159  1  0.91354300  0.75368900  0.09197150  1
  O  O160  1  0.00047800  0.09010700  0.97684850  1
  O  O161  1  0.19847900  0.40371000  0.15608450  1
  O  O162  1  0.88426100  0.80349200  0.45665750  1
  O  O163  1  0.90018250  0.81409850  0.26435100  1
  O  O164  1  0.08816050  0.41749350  0.25628600  1
  O  O165  1  0.74553000  0.70041300  0.93798850  1
  O  O166  1  0.19705050  0.50135050  0.52883300  1
  O  O167  1  0.25447000  0.29958700  0.93798850  1
  O  O168  1  0.87494450  0.70035750  0.92118600  1
  O  O169  1  0.89615200  0.12052800  0.08656550  1
  O  O170  1  0.62052800  0.60384800  0.41343450  1
  O  O171  1  0.91183950  0.58250650  0.25628600  1
  O  O172  1  0.11299150  0.49883950  0.10965600  1
  O  O173  1  0.00135050  0.30294950  0.97116700  1
  O  O174  1  0.08645700  0.24631100  0.09197150  1
  O  O175  1  0.08250650  0.58816050  0.24371400  1
  O  O176  1  0.69650800  0.38426100  0.04334250  1
  O  O177  1  0.12422700  0.58559400  0.43019250  1
  O  O178  1  0.90371000  0.30152100  0.34391550  1
  O  O179  1  0.40989300  0.50047800  0.52315150  1
  O  O180  1  0.75096450  0.31281550  0.90334800  1
  O  O181  1  0.19258200  0.79994300  0.86151250  1
  O  O182  1  0.25368900  0.58645700  0.40802850  1
  O  O183  1  0.80473950  0.61829450  0.59951600  1
  O  O184  1  0.29934950  0.69554750  0.65167800  1
  O  O185  1  0.80083700  0.68303300  0.76431650  1
  O  O186  1  0.11829450  0.69526050  0.90048400  1
  O  O187  1  0.09629000  0.69847900  0.34391550  1
  O  O188  1  0.08559400  0.37577300  0.06980750  1
  O  O189  1  0.31136250  0.37836450  0.06674200  1
  O  O190  1  0.68863750  0.62163550  0.06674200  1
  O  O191  1  0.31409850  0.59981750  0.23564900  1
  O  O192  1  0.58774750  0.11949850  0.55345900  1
  O  O193  1  0.21596800  0.00029300  0.61654650  1
  O  O194  1  0.74865700  0.90437100  0.92457150  1
  O  O195  1  0.59562900  0.24865700  0.57542850  1
  O  O196  1  0.37836450  0.68863750  0.93325800  1
  O  O197  1  0.80349200  0.11573900  0.54334250  1
  O  O198  1  0.78403200  0.99970700  0.61654650  1
  O  O199  1  0.59981750  0.68590150  0.76435100  1
  O  O200  1  0.31281550  0.24903550  0.09665200  1
  O  O201  1  0.87947200  0.89615200  0.91343450  1
  O  O202  1  0.30152100  0.09629000  0.65608450  1
  O  O203  1  0.30741800  0.70005700  0.36151250  1
  O  O204  1  0.88410850  0.09680850  0.89556900  1
  O  O205  1  0.31696700  0.80083700  0.23568350  1
  O  O206  1  0.62505550  0.79964250  0.42118600  1
  O  O207  1  0.59680850  0.61589150  0.60443100  1
  O  O208  1  0.18590150  0.90018250  0.73564900  1
  O  O209  1  0.38170550  0.80473950  0.40048400  1
  O  O210  1  0.38050150  0.08774750  0.94654100  1
  O  O211  1  0.20005700  0.19258200  0.13848750  1
  O  O212  1  0.09010700  0.99952200  0.02315150  1
  O  O213  1  0.70035750  0.12505550  0.07881400  1
  O  O214  1  0.29958700  0.74553000  0.06201150  1
  O  O215  1  0.49864950  0.19705050  0.47116700  1
  O  O216  1  0.69554750  0.70065050  0.34832200  1
  O  O217  1  0.18949250  0.08703150  0.75443200  1
  O  O218  1  0.61949850  0.91225250  0.94654100  1
  O  O219  1  0.59517750  0.80280750  0.84639700  1
  O  O220  1  0.70041300  0.25447000  0.06201150  1
  O  O221  1  0.74903550  0.18718450  0.40334800  1
  O  O222  1  0.30294950  0.99864950  0.02883300  1
  O  O223  1  0.49952200  0.40989300  0.47684850  1
  O  O224  1  0.69526050  0.88170550  0.09951600  1
  O  O225  1  0.41225250  0.88050150  0.55345900  1
  O  O226  1  0.49970700  0.71596800  0.88345350  1
  O  O227  1  0.29964250  0.87494450  0.07881400  1
  O  O228  1  0.24631100  0.91354300  0.90802850  1
  O  O229  1  0.50029300  0.28403200  0.88345350  1
  O  O230  1  0.58703150  0.31050750  0.74556800  1
  O  O231  1  0.61573900  0.69650800  0.95665750  1
  O  O232  1  0.11589150  0.90319150  0.89556900  1
  O  O233  1  0.79994300  0.80741800  0.13848750  1
  O  O234  1  0.20065050  0.80445250  0.15167800  1
  O  O235  1  0.38700850  0.00116050  0.60965600  1
  O  O236  1  0.81050750  0.91296850  0.75443200  1
  O  O237  1  0.60384800  0.37947200  0.58656550  1
  O  O238  1  0.41296850  0.68949250  0.74556800  1
  O  O239  1  0.25134300  0.09562900  0.92457150  1
  O  O240  1  0.49883950  0.88700850  0.89034400  1
  O  O241  1  0.68303300  0.19916300  0.23568350  1
  O  O242  1  0.40437100  0.75134300  0.57542850  1
  O  O243  1  0.30280750  0.90482250  0.65360300  1
  O  O244  1  0.40482250  0.19719250  0.84639700  1
  O  O245  1  0.41440600  0.12422700  0.56980750  1
  O  O246  1  0.41749350  0.91183950  0.74371400  1
  O  O247  1  0.37577300  0.91440600  0.93019250  1
  O  O248  1  0.68718450  0.75096450  0.09665200  1
  O  O249  1  0.50116050  0.11299150  0.89034400  1
  O  O250  1  0.30445250  0.29934950  0.34832200  1
  O  O251  1  0.69719250  0.09517750  0.65360300  1
  O  O252  1  0.62163550  0.31136250  0.93325800  1
  O  O253  1  0.69916300  0.81696700  0.26431650  1
  O  O254  1  0.40319150  0.38410850  0.60443100  1
  O  O255  1  0.41354300  0.25368900  0.59197150  1
  O  O256  1  0.50047800  0.59010700  0.47684850  1
  O  O257  1  0.69847900  0.90371000  0.65608450  1
  O  O258  1  0.38426100  0.30349200  0.95665750  1
  O  O259  1  0.40018250  0.31409850  0.76435100  1
  O  O260  1  0.58816050  0.91749350  0.75628600  1
  O  O261  1  0.24553000  0.20041300  0.43798850  1
  O  O262  1  0.69705050  0.00135050  0.02883300  1
  O  O263  1  0.75447000  0.79958700  0.43798850  1
  O  O264  1  0.37494450  0.20035750  0.42118600  1
  O  O265  1  0.39615200  0.62052800  0.58656550  1
  O  O266  1  0.12052800  0.10384800  0.91343450  1
  O  O267  1  0.41183950  0.08250650  0.75628600  1
  O  O268  1  0.61299150  0.99883950  0.60965600  1
  O  O269  1  0.50135050  0.80294950  0.47116700  1
  O  O270  1  0.58645700  0.74631100  0.59197150  1
  O  O271  1  0.58250650  0.08816050  0.74371400  1
  O  O272  1  0.19650800  0.88426100  0.54334250  1
  O  O273  1  0.62422700  0.08559400  0.93019250  1
  O  O274  1  0.40371000  0.80152100  0.84391550  1
  O  O275  1  0.90989300  0.00047800  0.02315150  1
  O  O276  1  0.25096450  0.81281550  0.40334800  1
  O  O277  1  0.69258200  0.29994300  0.36151250  1
  O  O278  1  0.75368900  0.08645700  0.90802850  1
  O  O279  1  0.30473950  0.11829450  0.09951600  1
  O  O280  1  0.79934950  0.19554750  0.15167800  1
  O  O281  1  0.30083700  0.18303300  0.26431650  1
  O  O282  1  0.61829450  0.19526050  0.40048400  1
  O  O283  1  0.59629000  0.19847900  0.84391550  1
  O  O284  1  0.58559400  0.87577300  0.56980750  1
  O  O285  1  0.81136250  0.87836450  0.56674200  1
  O  O286  1  0.18863750  0.12163550  0.56674200  1
  O  O287  1  0.81409850  0.09981750  0.73564900  1
