# generated using pymatgen
data_Sr17(Ta5S21)2
_symmetry_space_group_name_H-M   'P 1'
_cell_length_a   12.33476200
_cell_length_b   12.34249367
_cell_length_c   12.37961808
_cell_angle_alpha   96.66362094
_cell_angle_beta   96.32255652
_cell_angle_gamma   96.77326778
_symmetry_Int_Tables_number   1
_chemical_formula_structural   Sr17(Ta5S21)2
_chemical_formula_sum   'Sr17 Ta10 S42'
_cell_volume   1844.19315195
_cell_formula_units_Z   1
loop_
 _symmetry_equiv_pos_site_id
 _symmetry_equiv_pos_as_xyz
  1  'x, y, z'
loop_
 _atom_site_type_symbol
 _atom_site_label
 _atom_site_symmetry_multiplicity
 _atom_site_fract_x
 _atom_site_fract_y
 _atom_site_fract_z
 _atom_site_occupancy
  Sr  Sr0  1  0.94254800  0.70258800  0.07812000  1
  Sr  Sr1  1  0.27638400  0.91149000  0.04224900  1
  Sr  Sr2  1  0.37380400  0.60590700  0.23157200  1
  Sr  Sr3  1  0.91496900  0.04886900  0.27191200  1
  Sr  Sr4  1  0.05245600  0.41799000  0.28713200  1
  Sr  Sr5  1  0.73964700  0.60430500  0.37338800  1
  Sr  Sr6  1  0.61111900  0.23818200  0.36834300  1
  Sr  Sr7  1  0.28423600  0.05515700  0.42017800  1
  Sr  Sr8  1  0.71628500  0.95371400  0.58508500  1
  Sr  Sr9  1  0.37233500  0.73776500  0.60254200  1
  Sr  Sr10  1  0.95257300  0.58418200  0.71720000  1
  Sr  Sr11  1  0.24031600  0.37348200  0.61211800  1
  Sr  Sr12  1  0.07910800  0.94452000  0.70543000  1
  Sr  Sr13  1  0.60269000  0.37247200  0.74448600  1
  Sr  Sr14  1  0.58203200  0.71139900  0.95368900  1
  Sr  Sr15  1  0.04128700  0.27485300  0.90850400  1
  Sr  Sr16  1  0.70228600  0.08114900  0.94605400  1
  Ta  Ta17  1  0.71751900  0.38421600  0.05000200  1
  Ta  Ta18  1  0.54989000  0.88450500  0.22169600  1
  Ta  Ta19  1  0.17706700  0.17140300  0.15910100  1
  Ta  Ta20  1  0.35502100  0.35369900  0.35292200  1
  Ta  Ta21  1  0.04814600  0.72269800  0.38402600  1
  Ta  Ta22  1  0.88549300  0.22153300  0.54826900  1
  Ta  Ta23  1  0.66811000  0.66748500  0.66825300  1
  Ta  Ta24  1  0.85474900  0.85656200  0.85699800  1
  Ta  Ta25  1  0.38659100  0.04743000  0.72090900  1
  Ta  Ta26  1  0.21931200  0.54954600  0.88380700  1
  S  S27  1  0.81646700  0.89476900  0.03929700  1
  S  S28  1  0.52634200  0.94071800  0.05232100  1
  S  S29  1  0.33945600  0.67547400  0.00524600  1
  S  S30  1  0.99184500  0.21195500  0.12609300  1
  S  S31  1  0.84034800  0.50690400  0.17319400  1
  S  S32  1  0.66182000  0.23616000  0.13348800  1
  S  S33  1  0.60633400  0.71401700  0.20059300  1
  S  S34  1  0.13007300  0.99056000  0.20803800  1
  S  S35  1  0.24575000  0.37493900  0.17053000  1
  S  S36  1  0.90039300  0.80020200  0.31551400  1
  S  S37  1  0.38031700  0.86082400  0.27849100  1
  S  S38  1  0.12983300  0.65677800  0.23717300  1
  S  S39  1  0.37525400  0.17070800  0.24474800  1
  S  S40  1  0.52071700  0.44436700  0.30960800  1
  S  S41  1  0.86195600  0.28052400  0.38063400  1
  S  S42  1  0.67560200  0.00583200  0.34032800  1
  S  S43  1  0.97968300  0.57701200  0.46507400  1
  S  S44  1  0.16553800  0.24593500  0.38364000  1
  S  S45  1  0.29196700  0.51780200  0.43636300  1
  S  S46  1  0.58992800  0.72709800  0.50734900  1
  S  S47  1  0.17206800  0.84225700  0.50599400  1
  S  S48  1  0.46447900  0.97810100  0.57241100  1
  S  S49  1  0.94340900  0.05185900  0.52357900  1
  S  S50  1  0.72696800  0.50563300  0.58994100  1
  S  S51  1  0.43719500  0.29050200  0.51617700  1
  S  S52  1  0.85805000  0.78324100  0.64942300  1
  S  S53  1  0.71464300  0.20026500  0.60380900  1
  S  S54  1  0.23886400  0.13038000  0.65863500  1
  S  S55  1  0.50496600  0.58788500  0.72593900  1
  S  S56  1  0.64928300  0.85633200  0.78401500  1
  S  S57  1  0.19834100  0.60571500  0.71307900  1
  S  S58  1  0.00573600  0.34120800  0.67365900  1
  S  S59  1  0.31632900  0.89806900  0.79763900  1
  S  S60  1  0.78218600  0.64949200  0.85700400  1
  S  S61  1  0.89290700  0.03889300  0.81519200  1
  S  S62  1  0.50878600  0.16895200  0.83747200  1
  S  S63  1  0.79563500  0.31620200  0.90012600  1
  S  S64  1  0.27660500  0.38307700  0.86235700  1
  S  S65  1  0.03757700  0.81534200  0.89328400  1
  S  S66  1  0.57330200  0.46487200  0.98328500  1
  S  S67  1  0.04938300  0.52436600  0.94319400  1
  S  S68  1  0.20299200  0.12267800  0.98078200  1
