# generated using pymatgen
data_RbZnB(PO4)2
_symmetry_space_group_name_H-M   'P 1'
_cell_length_a   7.54680880
_cell_length_b   7.75712880
_cell_length_c   7.95980811
_cell_angle_alpha   118.62841234
_cell_angle_beta   101.66163192
_cell_angle_gamma   103.70877336
_symmetry_Int_Tables_number   1
_chemical_formula_structural   RbZnB(PO4)2
_chemical_formula_sum   'Rb2 Zn2 B2 P4 O16'
_cell_volume   369.12953517
_cell_formula_units_Z   2
loop_
 _symmetry_equiv_pos_site_id
 _symmetry_equiv_pos_as_xyz
  1  'x, y, z'
loop_
 _atom_site_type_symbol
 _atom_site_label
 _atom_site_symmetry_multiplicity
 _atom_site_fract_x
 _atom_site_fract_y
 _atom_site_fract_z
 _atom_site_occupancy
  Rb  Rb0  1  0.27500315  0.24469678  0.41692046  1
  Rb  Rb1  1  0.72499685  0.75530322  0.58307954  1
  Zn  Zn2  1  0.19842864  0.55323058  0.74108252  1
  Zn  Zn3  1  0.80157136  0.44676942  0.25891748  1
  B  B4  1  0.29773292  0.00426806  0.06931379  1
  B  B5  1  0.70226708  0.99573194  0.93068621  1
  P  P6  1  0.03475284  0.83451991  0.27539553  1
  P  P7  1  0.44968751  0.69718753  0.08142112  1
  P  P8  1  0.55031249  0.30281247  0.91857888  1
  P  P9  1  0.96524716  0.16548009  0.72460447  1
  O  O10  1  0.19980630  0.98233576  0.20338915  1
  O  O11  1  0.26190733  0.60487041  0.97568348  1
  O  O12  1  0.08440496  0.80054454  0.49571460  1
  O  O13  1  0.98143156  0.35162732  0.74963384  1
  O  O14  1  0.80019370  0.01766424  0.79661085  1
  O  O15  1  0.44713492  0.16769149  0.07776991  1
  O  O16  1  0.59578794  0.17783959  0.83727656  1
  O  O17  1  0.16202459  0.04844059  0.85649464  1
  O  O18  1  0.83797541  0.95155941  0.14350536  1
  O  O19  1  0.40929210  0.46049528  0.72440520  1
  O  O20  1  0.91559504  0.19945546  0.50428540  1
  O  O21  1  0.01856844  0.64837268  0.25036616  1
  O  O22  1  0.55286508  0.83230851  0.92223009  1
  O  O23  1  0.59070790  0.53950472  0.27559480  1
  O  O24  1  0.40421206  0.82216041  0.16272344  1
  O  O25  1  0.73809267  0.39512959  0.02431652  1
