# generated using pymatgen
data_AlTlF4
_symmetry_space_group_name_H-M   'P 1'
_cell_length_a   5.20596800
_cell_length_b   5.20596800
_cell_length_c   12.97716800
_cell_angle_alpha   90.00000000
_cell_angle_beta   90.00000000
_cell_angle_gamma   90.00000000
_symmetry_Int_Tables_number   1
_chemical_formula_structural   AlTlF4
_chemical_formula_sum   'Al4 Tl4 F16'
_cell_volume   351.70854141
_cell_formula_units_Z   4
loop_
 _symmetry_equiv_pos_site_id
 _symmetry_equiv_pos_as_xyz
  1  'x, y, z'
loop_
 _atom_site_type_symbol
 _atom_site_label
 _atom_site_symmetry_multiplicity
 _atom_site_fract_x
 _atom_site_fract_y
 _atom_site_fract_z
 _atom_site_occupancy
  Al  Al0  1  0.50000000  0.50000000  0.00000000  1
  Al  Al1  1  0.00000000  0.00000000  0.00000000  1
  Al  Al2  1  0.00000000  0.00000000  0.50000000  1
  Al  Al3  1  0.50000000  0.50000000  0.50000000  1
  Tl  Tl4  1  0.00000000  0.50000000  0.25000000  1
  Tl  Tl5  1  0.50000000  0.00000000  0.25000000  1
  Tl  Tl6  1  0.50000000  0.00000000  0.75000000  1
  Tl  Tl7  1  0.00000000  0.50000000  0.75000000  1
  F  F8  1  0.50000000  0.50000000  0.13833500  1
  F  F9  1  0.72290900  0.77709100  0.00000000  1
  F  F10  1  0.50000000  0.50000000  0.36166500  1
  F  F11  1  0.00000000  0.00000000  0.36166500  1
  F  F12  1  0.77709100  0.27709100  0.00000000  1
  F  F13  1  0.27709100  0.22290900  0.00000000  1
  F  F14  1  0.22290900  0.72290900  0.00000000  1
  F  F15  1  0.00000000  0.00000000  0.13833500  1
  F  F16  1  0.00000000  0.00000000  0.63833500  1
  F  F17  1  0.22290900  0.27709100  0.50000000  1
  F  F18  1  0.00000000  0.00000000  0.86166500  1
  F  F19  1  0.50000000  0.50000000  0.86166500  1
  F  F20  1  0.27709100  0.77709100  0.50000000  1
  F  F21  1  0.77709100  0.72290900  0.50000000  1
  F  F22  1  0.72290900  0.22290900  0.50000000  1
  F  F23  1  0.50000000  0.50000000  0.63833500  1
