# generated using pymatgen
data_Hg4Se4O9
_symmetry_space_group_name_H-M   'P 1'
_cell_length_a   9.97520100
_cell_length_b   10.56629300
_cell_length_c   15.29665178
_cell_angle_alpha   90.00000000
_cell_angle_beta   126.70365908
_cell_angle_gamma   90.00000000
_symmetry_Int_Tables_number   1
_chemical_formula_structural   Hg4Se4O9
_chemical_formula_sum   'Hg16 Se16 O36'
_cell_volume   1292.62594918
_cell_formula_units_Z   4
loop_
 _symmetry_equiv_pos_site_id
 _symmetry_equiv_pos_as_xyz
  1  'x, y, z'
loop_
 _atom_site_type_symbol
 _atom_site_label
 _atom_site_symmetry_multiplicity
 _atom_site_fract_x
 _atom_site_fract_y
 _atom_site_fract_z
 _atom_site_occupancy
  Hg  Hg0  1  0.46913600  0.28129800  0.42868700  1
  Hg  Hg1  1  0.53086400  0.71870200  0.57131300  1
  Hg  Hg2  1  0.94810400  0.29058100  0.71567800  1
  Hg  Hg3  1  0.33803800  0.54579900  0.79669500  1
  Hg  Hg4  1  0.05189600  0.79058100  0.78432200  1
  Hg  Hg5  1  0.66196200  0.04579900  0.70330500  1
  Hg  Hg6  1  0.66196200  0.45420100  0.20330500  1
  Hg  Hg7  1  0.62777400  0.40976600  0.73742800  1
  Hg  Hg8  1  0.05189600  0.70941900  0.28432200  1
  Hg  Hg9  1  0.33803800  0.95420100  0.29669500  1
  Hg  Hg10  1  0.94810400  0.20941900  0.21567800  1
  Hg  Hg11  1  0.46913600  0.21870200  0.92868700  1
  Hg  Hg12  1  0.37222600  0.90976600  0.76257200  1
  Hg  Hg13  1  0.37222600  0.59023400  0.26257200  1
  Hg  Hg14  1  0.53086400  0.78129800  0.07131300  1
  Hg  Hg15  1  0.62777400  0.09023400  0.23742800  1
  Se  Se16  1  0.21046300  0.24440900  0.65978700  1
  Se  Se17  1  0.73368900  0.97378900  0.99760400  1
  Se  Se18  1  0.78953700  0.75559100  0.34021300  1
  Se  Se19  1  0.21046300  0.25559100  0.15978700  1
  Se  Se20  1  0.26631100  0.02621100  0.00239600  1
  Se  Se21  1  0.84461800  0.26567900  0.32591700  1
  Se  Se22  1  0.23198000  0.99267300  0.47451400  1
  Se  Se23  1  0.76802000  0.49267300  0.02548600  1
  Se  Se24  1  0.76802000  0.00732700  0.52548600  1
  Se  Se25  1  0.73368900  0.52621100  0.49760400  1
  Se  Se26  1  0.84461800  0.23432100  0.82591700  1
  Se  Se27  1  0.15538200  0.73432100  0.67408300  1
  Se  Se28  1  0.15538200  0.76567900  0.17408300  1
  Se  Se29  1  0.26631100  0.47378900  0.50239600  1
  Se  Se30  1  0.78953700  0.74440900  0.84021300  1
  Se  Se31  1  0.23198000  0.50732700  0.97451400  1
  O  O32  1  0.37673800  0.03301100  0.61113200  1
  O  O33  1  0.70138800  0.92734300  0.59275200  1
  O  O34  1  0.39629100  0.18348500  0.26969100  1
  O  O35  1  0.60370900  0.81651500  0.73030900  1
  O  O36  1  0.29757500  0.93557200  0.92365300  1
  O  O37  1  0.70242500  0.06442800  0.07634700  1
  O  O38  1  0.64084200  0.67053100  0.48275500  1
  O  O39  1  0.81136700  0.62470000  0.77545000  1
  O  O40  1  0.60370900  0.68348500  0.23030900  1
  O  O41  1  0.57971900  0.45851000  0.36696400  1
  O  O42  1  0.39629100  0.31651500  0.76969100  1
  O  O43  1  0.06319200  0.14499300  0.14126800  1
  O  O44  1  0.72571800  0.33745700  0.03550700  1
  O  O45  1  0.62326200  0.96698900  0.38886800  1
  O  O46  1  0.27428200  0.66254300  0.96449300  1
  O  O47  1  0.29861200  0.42734300  0.90724800  1
  O  O48  1  0.27428200  0.83745700  0.46449300  1
  O  O49  1  0.62326200  0.53301100  0.88886800  1
  O  O50  1  0.70138800  0.57265700  0.09275200  1
  O  O51  1  0.35915800  0.17053100  0.01724500  1
  O  O52  1  0.29757500  0.56442800  0.42365300  1
  O  O53  1  0.64084200  0.82946900  0.98275500  1
  O  O54  1  0.70242500  0.43557200  0.57634700  1
  O  O55  1  0.81136700  0.87530000  0.27545000  1
  O  O56  1  0.06319200  0.35500700  0.64126800  1
  O  O57  1  0.18863300  0.12470000  0.72455000  1
  O  O58  1  0.93680800  0.85500700  0.85873200  1
  O  O59  1  0.29861200  0.07265700  0.40724800  1
  O  O60  1  0.42028100  0.54149000  0.63303600  1
  O  O61  1  0.18863300  0.37530000  0.22455000  1
  O  O62  1  0.35915800  0.32946900  0.51724500  1
  O  O63  1  0.42028100  0.95851000  0.13303600  1
  O  O64  1  0.93680800  0.64499300  0.35873200  1
  O  O65  1  0.72571800  0.16254300  0.53550700  1
  O  O66  1  0.37673800  0.46698900  0.11113200  1
  O  O67  1  0.57971900  0.04149000  0.86696400  1
