# generated using pymatgen
data_LaNbO4
_symmetry_space_group_name_H-M   'P 1'
_cell_length_a   7.57135000
_cell_length_b   11.70067600
_cell_length_c   5.36072059
_cell_angle_alpha   90.00000000
_cell_angle_beta   133.26146787
_cell_angle_gamma   90.00000000
_symmetry_Int_Tables_number   1
_chemical_formula_structural   LaNbO4
_chemical_formula_sum   'La4 Nb4 O16'
_cell_volume   345.84244149
_cell_formula_units_Z   4
loop_
 _symmetry_equiv_pos_site_id
 _symmetry_equiv_pos_as_xyz
  1  'x, y, z'
loop_
 _atom_site_type_symbol
 _atom_site_label
 _atom_site_symmetry_multiplicity
 _atom_site_fract_x
 _atom_site_fract_y
 _atom_site_fract_z
 _atom_site_occupancy
  La  La0  1  0.50000000  0.37328500  0.75000000  1
  La  La1  1  0.00000000  0.12671500  0.25000000  1
  La  La2  1  0.00000000  0.87328500  0.75000000  1
  La  La3  1  0.50000000  0.62671500  0.25000000  1
  Nb  Nb4  1  0.00000000  0.38488700  0.75000000  1
  Nb  Nb5  1  0.50000000  0.11511300  0.25000000  1
  Nb  Nb6  1  0.50000000  0.88488700  0.75000000  1
  Nb  Nb7  1  0.00000000  0.61511300  0.25000000  1
  O  O8  1  0.34509900  0.20802200  0.33781800  1
  O  O9  1  0.65490100  0.20802200  0.16218200  1
  O  O10  1  0.15490100  0.29197800  0.66218200  1
  O  O11  1  0.84509900  0.29197800  0.83781800  1
  O  O12  1  0.24419250  0.46422050  0.17239500  1
  O  O13  1  0.75580750  0.46422050  0.32760500  1
  O  O14  1  0.25580750  0.03577950  0.82760500  1
  O  O15  1  0.74419250  0.03577950  0.67239500  1
  O  O16  1  0.84509900  0.70802200  0.33781800  1
  O  O17  1  0.15490100  0.70802200  0.16218200  1
  O  O18  1  0.65490100  0.79197800  0.66218200  1
  O  O19  1  0.34509900  0.79197800  0.83781800  1
  O  O20  1  0.74419250  0.96422050  0.17239500  1
  O  O21  1  0.25580750  0.96422050  0.32760500  1
  O  O22  1  0.75580750  0.53577950  0.82760500  1
  O  O23  1  0.24419250  0.53577950  0.67239500  1
