# generated using pymatgen
data_Li2Ca3Be3Si3(O6F)2
_symmetry_space_group_name_H-M   'P 1'
_cell_length_a   13.00109000
_cell_length_b   13.00109000
_cell_length_c   13.00109000
_cell_angle_alpha   90.00000000
_cell_angle_beta   90.00000000
_cell_angle_gamma   90.00000000
_symmetry_Int_Tables_number   1
_chemical_formula_structural   Li2Ca3Be3Si3(O6F)2
_chemical_formula_sum   'Li16 Ca24 Be24 Si24 O96 F16'
_cell_volume   2197.55267634
_cell_formula_units_Z   8
loop_
 _symmetry_equiv_pos_site_id
 _symmetry_equiv_pos_as_xyz
  1  'x, y, z'
loop_
 _atom_site_type_symbol
 _atom_site_label
 _atom_site_symmetry_multiplicity
 _atom_site_fract_x
 _atom_site_fract_y
 _atom_site_fract_z
 _atom_site_occupancy
  Li  Li0  1  0.26972150  0.23027850  0.76972150  1
  Li  Li1  1  0.76972150  0.26972150  0.23027850  1
  Li  Li2  1  0.23027850  0.76972150  0.26972150  1
  Li  Li3  1  0.97856650  0.02143350  0.52143350  1
  Li  Li4  1  0.02143350  0.52143350  0.97856650  1
  Li  Li5  1  0.47856650  0.47856650  0.47856650  1
  Li  Li6  1  0.23027850  0.23027850  0.23027850  1
  Li  Li7  1  0.52143350  0.97856650  0.02143350  1
  Li  Li8  1  0.76972150  0.73027850  0.26972150  1
  Li  Li9  1  0.26972150  0.76972150  0.73027850  1
  Li  Li10  1  0.73027850  0.26972150  0.76972150  1
  Li  Li11  1  0.47856650  0.52143350  0.02143350  1
  Li  Li12  1  0.52143350  0.02143350  0.47856650  1
  Li  Li13  1  0.97856650  0.97856650  0.97856650  1
  Li  Li14  1  0.73027850  0.73027850  0.73027850  1
  Li  Li15  1  0.02143350  0.47856650  0.52143350  1
  Ca  Ca16  1  0.50000000  0.25000000  0.91398200  1
  Ca  Ca17  1  0.25000000  0.34414400  0.50000000  1
  Ca  Ca18  1  0.00000000  0.25000000  0.65585600  1
  Ca  Ca19  1  0.50000000  0.25000000  0.34414400  1
  Ca  Ca20  1  0.25000000  0.91398200  0.50000000  1
  Ca  Ca21  1  0.00000000  0.25000000  0.08601800  1
  Ca  Ca22  1  0.34414400  0.50000000  0.25000000  1
  Ca  Ca23  1  0.65585600  0.00000000  0.25000000  1
  Ca  Ca24  1  0.08601800  0.00000000  0.25000000  1
  Ca  Ca25  1  0.91398200  0.50000000  0.25000000  1
  Ca  Ca26  1  0.25000000  0.65585600  0.00000000  1
  Ca  Ca27  1  0.25000000  0.08601800  0.00000000  1
  Ca  Ca28  1  0.00000000  0.75000000  0.41398200  1
  Ca  Ca29  1  0.75000000  0.84414400  0.00000000  1
  Ca  Ca30  1  0.50000000  0.75000000  0.15585600  1
  Ca  Ca31  1  0.00000000  0.75000000  0.84414400  1
  Ca  Ca32  1  0.75000000  0.41398200  0.00000000  1
  Ca  Ca33  1  0.50000000  0.75000000  0.58601800  1
  Ca  Ca34  1  0.84414400  0.00000000  0.75000000  1
  Ca  Ca35  1  0.15585600  0.50000000  0.75000000  1
  Ca  Ca36  1  0.58601800  0.50000000  0.75000000  1
  Ca  Ca37  1  0.41398200  0.00000000  0.75000000  1
  Ca  Ca38  1  0.75000000  0.15585600  0.50000000  1
  Ca  Ca39  1  0.75000000  0.58601800  0.50000000  1
  Be  Be40  1  0.33040300  0.09401700  0.37072400  1
  Be  Be41  1  0.09401700  0.62927600  0.16959700  1
  Be  Be42  1  0.40598300  0.37072400  0.66959700  1
  Be  Be43  1  0.37072400  0.66959700  0.40598300  1
  Be  Be44  1  0.37072400  0.33040300  0.09401700  1
  Be  Be45  1  0.90598300  0.12927600  0.33040300  1
  Be  Be46  1  0.09401700  0.37072400  0.33040300  1
  Be  Be47  1  0.33040300  0.90598300  0.12927600  1
  Be  Be48  1  0.62927600  0.16959700  0.09401700  1
  Be  Be49  1  0.66959700  0.40598300  0.37072400  1
  Be  Be50  1  0.16959700  0.09401700  0.62927600  1
  Be  Be51  1  0.12927600  0.33040300  0.90598300  1
  Be  Be52  1  0.83040300  0.59401700  0.87072400  1
  Be  Be53  1  0.59401700  0.12927600  0.66959700  1
  Be  Be54  1  0.90598300  0.87072400  0.16959700  1
  Be  Be55  1  0.87072400  0.16959700  0.90598300  1
  Be  Be56  1  0.87072400  0.83040300  0.59401700  1
  Be  Be57  1  0.40598300  0.62927600  0.83040300  1
  Be  Be58  1  0.59401700  0.87072400  0.83040300  1
  Be  Be59  1  0.83040300  0.40598300  0.62927600  1
  Be  Be60  1  0.12927600  0.66959700  0.59401700  1
  Be  Be61  1  0.16959700  0.90598300  0.87072400  1
  Be  Be62  1  0.66959700  0.59401700  0.12927600  1
  Be  Be63  1  0.62927600  0.83040300  0.40598300  1
  Si  Si64  1  0.15547400  0.57993700  0.37612600  1
  Si  Si65  1  0.12387400  0.84452600  0.07993700  1
  Si  Si66  1  0.07993700  0.12387400  0.84452600  1
  Si  Si67  1  0.12387400  0.15547400  0.42006300  1
  Si  Si68  1  0.15547400  0.42006300  0.12387400  1
  Si  Si69  1  0.34452600  0.42006300  0.87612600  1
  Si  Si70  1  0.57993700  0.37612600  0.15547400  1
  Si  Si71  1  0.37612600  0.15547400  0.57993700  1
  Si  Si72  1  0.42006300  0.87612600  0.34452600  1
  Si  Si73  1  0.84452600  0.07993700  0.12387400  1
  Si  Si74  1  0.87612600  0.34452600  0.42006300  1
  Si  Si75  1  0.42006300  0.12387400  0.15547400  1
  Si  Si76  1  0.65547400  0.07993700  0.87612600  1
  Si  Si77  1  0.62387400  0.34452600  0.57993700  1
  Si  Si78  1  0.57993700  0.62387400  0.34452600  1
  Si  Si79  1  0.62387400  0.65547400  0.92006300  1
  Si  Si80  1  0.65547400  0.92006300  0.62387400  1
  Si  Si81  1  0.84452600  0.92006300  0.37612600  1
  Si  Si82  1  0.07993700  0.87612600  0.65547400  1
  Si  Si83  1  0.87612600  0.65547400  0.07993700  1
  Si  Si84  1  0.92006300  0.37612600  0.84452600  1
  Si  Si85  1  0.34452600  0.57993700  0.62387400  1
  Si  Si86  1  0.37612600  0.84452600  0.92006300  1
  Si  Si87  1  0.92006300  0.62387400  0.65547400  1
  O  O88  1  0.36716800  0.18175300  0.45690500  1
  O  O89  1  0.18175300  0.54309500  0.13283200  1
  O  O90  1  0.61770350  0.29233050  0.06783250  1
  O  O91  1  0.54309500  0.13283200  0.18175300  1
  O  O92  1  0.13283200  0.81824700  0.95690500  1
  O  O93  1  0.86716800  0.31824700  0.54309500  1
  O  O94  1  0.06783250  0.61770350  0.29233050  1
  O  O95  1  0.35056000  0.26231700  0.64163700  1
  O  O96  1  0.26231700  0.64163700  0.35056000  1
  O  O97  1  0.20766950  0.93216750  0.11770350  1
  O  O98  1  0.39714300  0.39290500  0.98765300  1
  O  O99  1  0.43216750  0.38229650  0.79233050  1
  O  O100  1  0.45690500  0.36716800  0.18175300  1
  O  O101  1  0.38229650  0.20766950  0.06783250  1
  O  O102  1  0.29233050  0.06783250  0.61770350  1
  O  O103  1  0.39290500  0.01234700  0.10285700  1
  O  O104  1  0.01234700  0.10285700  0.39290500  1
  O  O105  1  0.64163700  0.35056000  0.26231700  1
  O  O106  1  0.35836300  0.85056000  0.23768300  1
  O  O107  1  0.93216750  0.11770350  0.20766950  1
  O  O108  1  0.60709500  0.51234700  0.39714300  1
  O  O109  1  0.95690500  0.13283200  0.81824700  1
  O  O110  1  0.35836300  0.14944000  0.26231700  1
  O  O111  1  0.98765300  0.39714300  0.39290500  1
  O  O112  1  0.39290500  0.98765300  0.39714300  1
  O  O113  1  0.60285700  0.10709500  0.98765300  1
  O  O114  1  0.23768300  0.35836300  0.85056000  1
  O  O115  1  0.31824700  0.54309500  0.86716800  1
  O  O116  1  0.20766950  0.06783250  0.38229650  1
  O  O117  1  0.98765300  0.60285700  0.10709500  1
  O  O118  1  0.54309500  0.86716800  0.31824700  1
  O  O119  1  0.14944000  0.26231700  0.35836300  1
  O  O120  1  0.14944000  0.73768300  0.14163700  1
  O  O121  1  0.85056000  0.23768300  0.35836300  1
  O  O122  1  0.81824700  0.95690500  0.13283200  1
  O  O123  1  0.10285700  0.39290500  0.01234700  1
  O  O124  1  0.26231700  0.35836300  0.14944000  1
  O  O125  1  0.39714300  0.60709500  0.51234700  1
  O  O126  1  0.38229650  0.79233050  0.43216750  1
  O  O127  1  0.06783250  0.38229650  0.20766950  1
  O  O128  1  0.73768300  0.14163700  0.14944000  1
  O  O129  1  0.11770350  0.20766950  0.93216750  1
  O  O130  1  0.10709500  0.98765300  0.60285700  1
  O  O131  1  0.13283200  0.18175300  0.54309500  1
  O  O132  1  0.18175300  0.45690500  0.36716800  1
  O  O133  1  0.79233050  0.43216750  0.38229650  1
  O  O134  1  0.51234700  0.39714300  0.60709500  1
  O  O135  1  0.14163700  0.14944000  0.73768300  1
  O  O136  1  0.86716800  0.68175300  0.95690500  1
  O  O137  1  0.68175300  0.04309500  0.63283200  1
  O  O138  1  0.11770350  0.79233050  0.56783250  1
  O  O139  1  0.04309500  0.63283200  0.68175300  1
  O  O140  1  0.63283200  0.31824700  0.45690500  1
  O  O141  1  0.36716800  0.81824700  0.04309500  1
  O  O142  1  0.56783250  0.11770350  0.79233050  1
  O  O143  1  0.85056000  0.76231700  0.14163700  1
  O  O144  1  0.76231700  0.14163700  0.85056000  1
  O  O145  1  0.70766950  0.43216750  0.61770350  1
  O  O146  1  0.89714300  0.89290500  0.48765300  1
  O  O147  1  0.93216750  0.88229650  0.29233050  1
  O  O148  1  0.95690500  0.86716800  0.68175300  1
  O  O149  1  0.88229650  0.70766950  0.56783250  1
  O  O150  1  0.79233050  0.56783250  0.11770350  1
  O  O151  1  0.89290500  0.51234700  0.60285700  1
  O  O152  1  0.51234700  0.60285700  0.89290500  1
  O  O153  1  0.14163700  0.85056000  0.76231700  1
  O  O154  1  0.85836300  0.35056000  0.73768300  1
  O  O155  1  0.43216750  0.61770350  0.70766950  1
  O  O156  1  0.10709500  0.01234700  0.89714300  1
  O  O157  1  0.45690500  0.63283200  0.31824700  1
  O  O158  1  0.85836300  0.64944000  0.76231700  1
  O  O159  1  0.48765300  0.89714300  0.89290500  1
  O  O160  1  0.89290500  0.48765300  0.89714300  1
  O  O161  1  0.10285700  0.60709500  0.48765300  1
  O  O162  1  0.73768300  0.85836300  0.35056000  1
  O  O163  1  0.81824700  0.04309500  0.36716800  1
  O  O164  1  0.70766950  0.56783250  0.88229650  1
  O  O165  1  0.48765300  0.10285700  0.60709500  1
  O  O166  1  0.04309500  0.36716800  0.81824700  1
  O  O167  1  0.64944000  0.76231700  0.85836300  1
  O  O168  1  0.64944000  0.23768300  0.64163700  1
  O  O169  1  0.35056000  0.73768300  0.85836300  1
  O  O170  1  0.31824700  0.45690500  0.63283200  1
  O  O171  1  0.60285700  0.89290500  0.51234700  1
  O  O172  1  0.76231700  0.85836300  0.64944000  1
  O  O173  1  0.89714300  0.10709500  0.01234700  1
  O  O174  1  0.88229650  0.29233050  0.93216750  1
  O  O175  1  0.56783250  0.88229650  0.70766950  1
  O  O176  1  0.23768300  0.64163700  0.64944000  1
  O  O177  1  0.61770350  0.70766950  0.43216750  1
  O  O178  1  0.60709500  0.48765300  0.10285700  1
  O  O179  1  0.63283200  0.68175300  0.04309500  1
  O  O180  1  0.68175300  0.95690500  0.86716800  1
  O  O181  1  0.29233050  0.93216750  0.88229650  1
  O  O182  1  0.01234700  0.89714300  0.10709500  1
  O  O183  1  0.64163700  0.64944000  0.23768300  1
  F  F184  1  0.35501550  0.14498450  0.85501550  1
  F  F185  1  0.89497800  0.10502200  0.60502200  1
  F  F186  1  0.10502200  0.60502200  0.89497800  1
  F  F187  1  0.60502200  0.89497800  0.10502200  1
  F  F188  1  0.14498450  0.85501550  0.35501550  1
  F  F189  1  0.85501550  0.35501550  0.14498450  1
  F  F190  1  0.14498450  0.14498450  0.14498450  1
  F  F191  1  0.39497800  0.39497800  0.39497800  1
  F  F192  1  0.85501550  0.64498450  0.35501550  1
  F  F193  1  0.39497800  0.60502200  0.10502200  1
  F  F194  1  0.60502200  0.10502200  0.39497800  1
  F  F195  1  0.10502200  0.39497800  0.60502200  1
  F  F196  1  0.64498450  0.35501550  0.85501550  1
  F  F197  1  0.35501550  0.85501550  0.64498450  1
  F  F198  1  0.64498450  0.64498450  0.64498450  1
  F  F199  1  0.89497800  0.89497800  0.89497800  1
