# generated using pymatgen
data_Ca3Nb4(O6F)2
_symmetry_space_group_name_H-M   'P 1'
_cell_length_a   10.58895100
_cell_length_b   10.58895100
_cell_length_c   10.58895100
_cell_angle_alpha   90.00000000
_cell_angle_beta   90.00000000
_cell_angle_gamma   90.00000000
_symmetry_Int_Tables_number   1
_chemical_formula_structural   Ca3Nb4(O6F)2
_chemical_formula_sum   'Ca12 Nb16 O48 F8'
_cell_volume   1187.29548389
_cell_formula_units_Z   4
loop_
 _symmetry_equiv_pos_site_id
 _symmetry_equiv_pos_as_xyz
  1  'x, y, z'
loop_
 _atom_site_type_symbol
 _atom_site_label
 _atom_site_symmetry_multiplicity
 _atom_site_fract_x
 _atom_site_fract_y
 _atom_site_fract_z
 _atom_site_occupancy
  Ca  Ca0  1  0.87500000  0.86383500  0.61383500  1
  Ca  Ca1  1  0.88616500  0.12500000  0.36383500  1
  Ca  Ca2  1  0.63616500  0.38616500  0.37500000  1
  Ca  Ca3  1  0.86383500  0.61383500  0.87500000  1
  Ca  Ca4  1  0.37500000  0.63616500  0.38616500  1
  Ca  Ca5  1  0.12500000  0.36383500  0.88616500  1
  Ca  Ca6  1  0.36383500  0.88616500  0.12500000  1
  Ca  Ca7  1  0.62500000  0.13616500  0.11383500  1
  Ca  Ca8  1  0.11383500  0.62500000  0.13616500  1
  Ca  Ca9  1  0.61383500  0.87500000  0.86383500  1
  Ca  Ca10  1  0.13616500  0.11383500  0.62500000  1
  Ca  Ca11  1  0.38616500  0.37500000  0.63616500  1
  Nb  Nb12  1  0.87500000  0.12384900  0.87384900  1
  Nb  Nb13  1  0.87384900  0.87500000  0.12384900  1
  Nb  Nb14  1  0.37384900  0.62500000  0.87615100  1
  Nb  Nb15  1  0.87500000  0.62500000  0.37500000  1
  Nb  Nb16  1  0.62615100  0.12500000  0.62384900  1
  Nb  Nb17  1  0.37500000  0.37615100  0.12615100  1
  Nb  Nb18  1  0.37500000  0.87500000  0.62500000  1
  Nb  Nb19  1  0.12615100  0.37500000  0.37615100  1
  Nb  Nb20  1  0.12384900  0.87384900  0.87500000  1
  Nb  Nb21  1  0.12500000  0.62384900  0.62615100  1
  Nb  Nb22  1  0.62500000  0.37500000  0.87500000  1
  Nb  Nb23  1  0.62384900  0.62615100  0.12500000  1
  Nb  Nb24  1  0.37615100  0.12615100  0.37500000  1
  Nb  Nb25  1  0.87615100  0.37384900  0.62500000  1
  Nb  Nb26  1  0.62500000  0.87615100  0.37384900  1
  Nb  Nb27  1  0.12500000  0.12500000  0.12500000  1
  O  O28  1  0.00165300  0.49531300  0.69713600  1
  O  O29  1  0.31234000  0.01009000  0.50823600  1
  O  O30  1  0.49176400  0.81234000  0.48991000  1
  O  O31  1  0.25165300  0.44713600  0.25468700  1
  O  O32  1  0.06234000  0.24176400  0.26009000  1
  O  O33  1  0.98991000  0.00823600  0.18766000  1
  O  O34  1  0.05286400  0.74531300  0.75165300  1
  O  O35  1  0.73991000  0.56234000  0.25823600  1
  O  O36  1  0.99176400  0.68766000  0.51009000  1
  O  O37  1  0.74176400  0.23991000  0.93766000  1
  O  O38  1  0.49531300  0.69713600  0.00165300  1
  O  O39  1  0.00468700  0.30286400  0.50165300  1
  O  O40  1  0.50165300  0.00468700  0.30286400  1
  O  O41  1  0.68766000  0.51009000  0.99176400  1
  O  O42  1  0.99531300  0.80286400  0.99834700  1
  O  O43  1  0.49834700  0.50468700  0.19713600  1
  O  O44  1  0.80286400  0.99834700  0.99531300  1
  O  O45  1  0.24176400  0.26009000  0.06234000  1
  O  O46  1  0.75823600  0.76009000  0.43766000  1
  O  O47  1  0.30286400  0.50165300  0.00468700  1
  O  O48  1  0.25468700  0.25165300  0.44713600  1
  O  O49  1  0.93766000  0.74176400  0.23991000  1
  O  O50  1  0.24834700  0.55286400  0.75468700  1
  O  O51  1  0.50468700  0.19713600  0.49834700  1
  O  O52  1  0.43766000  0.75823600  0.76009000  1
  O  O53  1  0.69713600  0.00165300  0.49531300  1
  O  O54  1  0.99834700  0.99531300  0.80286400  1
  O  O55  1  0.23991000  0.93766000  0.74176400  1
  O  O56  1  0.24531300  0.74834700  0.94713600  1
  O  O57  1  0.74531300  0.75165300  0.05286400  1
  O  O58  1  0.19713600  0.49834700  0.50468700  1
  O  O59  1  0.18766000  0.98991000  0.00823600  1
  O  O60  1  0.56234000  0.25823600  0.73991000  1
  O  O61  1  0.25823600  0.73991000  0.56234000  1
  O  O62  1  0.48991000  0.49176400  0.81234000  1
  O  O63  1  0.75165300  0.05286400  0.74531300  1
  O  O64  1  0.44713600  0.25468700  0.25165300  1
  O  O65  1  0.76009000  0.43766000  0.75823600  1
  O  O66  1  0.75468700  0.24834700  0.55286400  1
  O  O67  1  0.01009000  0.50823600  0.31234000  1
  O  O68  1  0.55286400  0.75468700  0.24834700  1
  O  O69  1  0.94713600  0.24531300  0.74834700  1
  O  O70  1  0.26009000  0.06234000  0.24176400  1
  O  O71  1  0.74834700  0.94713600  0.24531300  1
  O  O72  1  0.51009000  0.99176400  0.68766000  1
  O  O73  1  0.50823600  0.31234000  0.01009000  1
  O  O74  1  0.81234000  0.48991000  0.49176400  1
  O  O75  1  0.00823600  0.18766000  0.98991000  1
  F  F76  1  0.51165800  0.98834200  0.01165800  1
  F  F77  1  0.01165800  0.51165800  0.98834200  1
  F  F78  1  0.48834200  0.48834200  0.48834200  1
  F  F79  1  0.26165800  0.73834200  0.23834200  1
  F  F80  1  0.73834200  0.23834200  0.26165800  1
  F  F81  1  0.98834200  0.01165800  0.51165800  1
  F  F82  1  0.23834200  0.26165800  0.73834200  1
  F  F83  1  0.76165800  0.76165800  0.76165800  1
