# generated using pymatgen
data_Ag4HgGe2S7
_symmetry_space_group_name_H-M   'P 1'
_cell_length_a   17.83212200
_cell_length_b   6.94876600
_cell_length_c   10.66264830
_cell_angle_alpha   90.00000000
_cell_angle_beta   93.09416465
_cell_angle_gamma   90.00000000
_symmetry_Int_Tables_number   1
_chemical_formula_structural   Ag4HgGe2S7
_chemical_formula_sum   'Ag16 Hg4 Ge8 S28'
_cell_volume   1319.29589164
_cell_formula_units_Z   4
loop_
 _symmetry_equiv_pos_site_id
 _symmetry_equiv_pos_as_xyz
  1  'x, y, z'
loop_
 _atom_site_type_symbol
 _atom_site_label
 _atom_site_symmetry_multiplicity
 _atom_site_fract_x
 _atom_site_fract_y
 _atom_site_fract_z
 _atom_site_occupancy
  Ag  Ag0  1  0.50427800  0.67533300  0.99929300  1
  Ag  Ag1  1  0.50427800  0.32466700  0.49929300  1
  Ag  Ag2  1  0.93561500  0.32560700  0.61295000  1
  Ag  Ag3  1  0.93561500  0.67439300  0.11295000  1
  Ag  Ag4  1  0.78807300  0.31772000  0.90221800  1
  Ag  Ag5  1  0.78807300  0.68228000  0.40221800  1
  Ag  Ag6  1  0.72558850  0.12635050  0.55464700  1
  Ag  Ag7  1  0.72558850  0.87364950  0.05464700  1
  Ag  Ag8  1  0.00427800  0.17533300  0.99929300  1
  Ag  Ag9  1  0.00427800  0.82466700  0.49929300  1
  Ag  Ag10  1  0.43561500  0.82560700  0.61295000  1
  Ag  Ag11  1  0.43561500  0.17439300  0.11295000  1
  Ag  Ag12  1  0.28807300  0.81772000  0.90221800  1
  Ag  Ag13  1  0.28807300  0.18228000  0.40221800  1
  Ag  Ag14  1  0.22558850  0.62635050  0.55464700  1
  Ag  Ag15  1  0.22558850  0.37364950  0.05464700  1
  Hg  Hg16  1  0.65057950  0.68387850  0.71286700  1
  Hg  Hg17  1  0.65057950  0.31612150  0.21286700  1
  Hg  Hg18  1  0.15057950  0.18387850  0.71286700  1
  Hg  Hg19  1  0.15057950  0.81612150  0.21286700  1
  Ge  Ge20  1  0.57283200  0.17237400  0.82946000  1
  Ge  Ge21  1  0.57283200  0.82762600  0.32946000  1
  Ge  Ge22  1  0.86314850  0.82700350  0.75548900  1
  Ge  Ge23  1  0.86314850  0.17299650  0.25548900  1
  Ge  Ge24  1  0.07283200  0.67237400  0.82946000  1
  Ge  Ge25  1  0.07283200  0.32762600  0.32946000  1
  Ge  Ge26  1  0.36314850  0.32700350  0.75548900  1
  Ge  Ge27  1  0.36314850  0.67299650  0.25548900  1
  S  S28  1  0.96921200  0.16914100  0.40348100  1
  S  S29  1  0.96921200  0.83085900  0.90348100  1
  S  S30  1  0.83453200  0.13286500  0.71712100  1
  S  S31  1  0.83453200  0.86713500  0.21712100  1
  S  S32  1  0.77011950  0.68222350  0.85894300  1
  S  S33  1  0.77011950  0.31777650  0.35894300  1
  S  S34  1  0.66513850  0.19188250  0.98138100  1
  S  S35  1  0.66513850  0.80811750  0.48138100  1
  S  S36  1  0.61483950  0.32031050  0.65889700  1
  S  S37  1  0.61483950  0.67968950  0.15889700  1
  S  S38  1  0.53741700  0.13555700  0.29545800  1
  S  S39  1  0.53741700  0.86444300  0.79545800  1
  S  S40  1  0.88852700  0.67096100  0.58239500  1
  S  S41  1  0.88852700  0.32903900  0.08239500  1
  S  S42  1  0.46921200  0.66914100  0.40348100  1
  S  S43  1  0.46921200  0.33085900  0.90348100  1
  S  S44  1  0.33453200  0.63286500  0.71712100  1
  S  S45  1  0.33453200  0.36713500  0.21712100  1
  S  S46  1  0.27011950  0.18222350  0.85894300  1
  S  S47  1  0.27011950  0.81777650  0.35894300  1
  S  S48  1  0.16513850  0.69188250  0.98138100  1
  S  S49  1  0.16513850  0.30811750  0.48138100  1
  S  S50  1  0.11483950  0.82031050  0.65889700  1
  S  S51  1  0.11483950  0.17968950  0.15889700  1
  S  S52  1  0.03741700  0.63555700  0.29545800  1
  S  S53  1  0.03741700  0.36444300  0.79545800  1
  S  S54  1  0.38852700  0.17096100  0.58239500  1
  S  S55  1  0.38852700  0.82903900  0.08239500  1
