# generated using pymatgen
data_Ba9Sm6Cl34
_symmetry_space_group_name_H-M   'P 1'
_cell_length_a   11.34706800
_cell_length_b   11.34706800
_cell_length_c   21.65702600
_cell_angle_alpha   90.00000000
_cell_angle_beta   90.00000000
_cell_angle_gamma   90.00000000
_symmetry_Int_Tables_number   1
_chemical_formula_structural   Ba9Sm6Cl34
_chemical_formula_sum   'Ba18 Sm12 Cl68'
_cell_volume   2788.47100438
_cell_formula_units_Z   2
loop_
 _symmetry_equiv_pos_site_id
 _symmetry_equiv_pos_as_xyz
  1  'x, y, z'
loop_
 _atom_site_type_symbol
 _atom_site_label
 _atom_site_symmetry_multiplicity
 _atom_site_fract_x
 _atom_site_fract_y
 _atom_site_fract_z
 _atom_site_occupancy
  Ba  Ba0  1  0.63628850  0.18301250  0.15747150  1
  Ba  Ba1  1  0.68301250  0.86371150  0.34252850  1
  Ba  Ba2  1  0.31698750  0.13628850  0.34252850  1
  Ba  Ba3  1  0.86371150  0.31698750  0.34252850  1
  Ba  Ba4  1  0.13628850  0.68301250  0.34252850  1
  Ba  Ba5  1  0.81698750  0.63628850  0.15747150  1
  Ba  Ba6  1  0.50000000  0.50000000  0.00000000  1
  Ba  Ba7  1  0.18301250  0.36371150  0.15747150  1
  Ba  Ba8  1  0.36371150  0.81698750  0.15747150  1
  Ba  Ba9  1  0.13628850  0.68301250  0.65747150  1
  Ba  Ba10  1  0.18301250  0.36371150  0.84252850  1
  Ba  Ba11  1  0.81698750  0.63628850  0.84252850  1
  Ba  Ba12  1  0.36371150  0.81698750  0.84252850  1
  Ba  Ba13  1  0.63628850  0.18301250  0.84252850  1
  Ba  Ba14  1  0.31698750  0.13628850  0.65747150  1
  Ba  Ba15  1  0.00000000  0.00000000  0.50000000  1
  Ba  Ba16  1  0.68301250  0.86371150  0.65747150  1
  Ba  Ba17  1  0.86371150  0.31698750  0.65747150  1
  Sm  Sm18  1  0.50000000  0.50000000  0.31447500  1
  Sm  Sm19  1  0.18151850  0.39433550  0.50000000  1
  Sm  Sm20  1  0.31848150  0.10566450  0.00000000  1
  Sm  Sm21  1  0.00000000  0.00000000  0.18552500  1
  Sm  Sm22  1  0.10566450  0.68151850  0.00000000  1
  Sm  Sm23  1  0.89433550  0.31848150  0.00000000  1
  Sm  Sm24  1  0.00000000  0.00000000  0.81447500  1
  Sm  Sm25  1  0.68151850  0.89433550  0.00000000  1
  Sm  Sm26  1  0.81848150  0.60566450  0.50000000  1
  Sm  Sm27  1  0.50000000  0.50000000  0.68552500  1
  Sm  Sm28  1  0.60566450  0.18151850  0.50000000  1
  Sm  Sm29  1  0.39433550  0.81848150  0.50000000  1
  Cl  Cl30  1  0.30926300  0.58838800  0.24112800  1
  Cl  Cl31  1  0.50000000  0.00000000  0.42440400  1
  Cl  Cl32  1  0.00000000  0.50000000  0.07559600  1
  Cl  Cl33  1  0.91125450  0.78545850  0.42014250  1
  Cl  Cl34  1  0.14079200  0.27697500  0.00000000  1
  Cl  Cl35  1  0.19073700  0.91161200  0.25887200  1
  Cl  Cl36  1  0.72302500  0.14079200  0.00000000  1
  Cl  Cl37  1  0.20955750  0.07010350  0.12075850  1
  Cl  Cl38  1  0.41161200  0.30926300  0.24112800  1
  Cl  Cl39  1  0.79044250  0.92989650  0.12075850  1
  Cl  Cl40  1  0.91161200  0.80926300  0.25887200  1
  Cl  Cl41  1  0.08838800  0.19073700  0.25887200  1
  Cl  Cl42  1  0.50000000  0.00000000  0.07559600  1
  Cl  Cl43  1  0.41125450  0.28545850  0.07985750  1
  Cl  Cl44  1  0.57010350  0.29044250  0.37924150  1
  Cl  Cl45  1  0.58874550  0.71454150  0.07985750  1
  Cl  Cl46  1  0.07010350  0.79044250  0.12075850  1
  Cl  Cl47  1  0.00000000  0.50000000  0.42440400  1
  Cl  Cl48  1  0.27697500  0.85920800  0.00000000  1
  Cl  Cl49  1  0.92989650  0.20955750  0.12075850  1
  Cl  Cl50  1  0.00000000  0.50000000  0.25000000  1
  Cl  Cl51  1  0.80926300  0.08838800  0.25887200  1
  Cl  Cl52  1  0.08874550  0.21454150  0.42014250  1
  Cl  Cl53  1  0.78545850  0.08874550  0.42014250  1
  Cl  Cl54  1  0.42989650  0.70955750  0.37924150  1
  Cl  Cl55  1  0.85920800  0.72302500  0.00000000  1
  Cl  Cl56  1  0.70955750  0.57010350  0.37924150  1
  Cl  Cl57  1  0.71454150  0.41125450  0.07985750  1
  Cl  Cl58  1  0.29044250  0.42989650  0.37924150  1
  Cl  Cl59  1  0.28545850  0.58874550  0.07985750  1
  Cl  Cl60  1  0.21454150  0.91125450  0.42014250  1
  Cl  Cl61  1  0.58838800  0.69073700  0.24112800  1
  Cl  Cl62  1  0.69073700  0.41161200  0.24112800  1
  Cl  Cl63  1  0.50000000  0.00000000  0.25000000  1
  Cl  Cl64  1  0.80926300  0.08838800  0.74112800  1
  Cl  Cl65  1  0.00000000  0.50000000  0.92440400  1
  Cl  Cl66  1  0.50000000  0.00000000  0.57559600  1
  Cl  Cl67  1  0.41125450  0.28545850  0.92014250  1
  Cl  Cl68  1  0.64079200  0.77697500  0.50000000  1
  Cl  Cl69  1  0.69073700  0.41161200  0.75887200  1
  Cl  Cl70  1  0.22302500  0.64079200  0.50000000  1
  Cl  Cl71  1  0.70955750  0.57010350  0.62075850  1
  Cl  Cl72  1  0.91161200  0.80926300  0.74112800  1
  Cl  Cl73  1  0.29044250  0.42989650  0.62075850  1
  Cl  Cl74  1  0.41161200  0.30926300  0.75887200  1
  Cl  Cl75  1  0.58838800  0.69073700  0.75887200  1
  Cl  Cl76  1  0.00000000  0.50000000  0.57559600  1
  Cl  Cl77  1  0.91125450  0.78545850  0.57985750  1
  Cl  Cl78  1  0.07010350  0.79044250  0.87924150  1
  Cl  Cl79  1  0.08874550  0.21454150  0.57985750  1
  Cl  Cl80  1  0.57010350  0.29044250  0.62075850  1
  Cl  Cl81  1  0.50000000  0.00000000  0.92440400  1
  Cl  Cl82  1  0.77697500  0.35920800  0.50000000  1
  Cl  Cl83  1  0.42989650  0.70955750  0.62075850  1
  Cl  Cl84  1  0.50000000  0.00000000  0.75000000  1
  Cl  Cl85  1  0.30926300  0.58838800  0.75887200  1
  Cl  Cl86  1  0.58874550  0.71454150  0.92014250  1
  Cl  Cl87  1  0.28545850  0.58874550  0.92014250  1
  Cl  Cl88  1  0.92989650  0.20955750  0.87924150  1
  Cl  Cl89  1  0.35920800  0.22302500  0.50000000  1
  Cl  Cl90  1  0.20955750  0.07010350  0.87924150  1
  Cl  Cl91  1  0.21454150  0.91125450  0.57985750  1
  Cl  Cl92  1  0.79044250  0.92989650  0.87924150  1
  Cl  Cl93  1  0.78545850  0.08874550  0.57985750  1
  Cl  Cl94  1  0.71454150  0.41125450  0.92014250  1
  Cl  Cl95  1  0.08838800  0.19073700  0.74112800  1
  Cl  Cl96  1  0.19073700  0.91161200  0.74112800  1
  Cl  Cl97  1  0.00000000  0.50000000  0.75000000  1
