# generated using pymatgen
data_Hg3ClO
_symmetry_space_group_name_H-M   'P 1'
_cell_length_a   19.82369800
_cell_length_b   9.24996000
_cell_length_c   17.41277246
_cell_angle_alpha   90.00000000
_cell_angle_beta   110.77966813
_cell_angle_gamma   90.00000000
_symmetry_Int_Tables_number   1
_chemical_formula_structural   Hg3ClO
_chemical_formula_sum   'Hg72 Cl24 O24'
_cell_volume   2985.25610947
_cell_formula_units_Z   24
loop_
 _symmetry_equiv_pos_site_id
 _symmetry_equiv_pos_as_xyz
  1  'x, y, z'
loop_
 _atom_site_type_symbol
 _atom_site_label
 _atom_site_symmetry_multiplicity
 _atom_site_fract_x
 _atom_site_fract_y
 _atom_site_fract_z
 _atom_site_occupancy
  Hg  Hg0  1  0.16221050  0.34762550  0.34305000  1
  Hg  Hg1  1  0.76790300  0.51777700  0.38884500  1
  Hg  Hg2  1  0.00966850  0.61811850  0.17855700  1
  Hg  Hg3  1  0.06915000  0.02734600  0.79793100  1
  Hg  Hg4  1  0.40429550  0.04318550  0.96454000  1
  Hg  Hg5  1  0.67117850  0.61806250  0.17938100  1
  Hg  Hg6  1  0.83607650  0.62938350  0.13437600  1
  Hg  Hg7  1  0.82882150  0.11806250  0.32061900  1
  Hg  Hg8  1  0.98435450  0.85955450  0.49009800  1
  Hg  Hg9  1  0.59570450  0.95681450  0.03546000  1
  Hg  Hg10  1  0.23209700  0.48222300  0.61115500  1
  Hg  Hg11  1  0.83778950  0.34762550  0.15695000  1
  Hg  Hg12  1  0.26790300  0.98222300  0.88884500  1
  Hg  Hg13  1  0.93085000  0.02734600  0.70206900  1
  Hg  Hg14  1  0.51564550  0.35955450  0.00990200  1
  Hg  Hg15  1  0.01564550  0.14044550  0.50990200  1
  Hg  Hg16  1  0.17117850  0.88193750  0.67938100  1
  Hg  Hg17  1  0.33476050  0.38500550  0.97342500  1
  Hg  Hg18  1  0.93085000  0.97265400  0.20206900  1
  Hg  Hg19  1  0.90429550  0.45681450  0.46454000  1
  Hg  Hg20  1  0.16523950  0.88500550  0.52657500  1
  Hg  Hg21  1  0.09570450  0.54318550  0.53546000  1
  Hg  Hg22  1  0.66523950  0.61499450  0.02657500  1
  Hg  Hg23  1  0.16392350  0.37061650  0.86562400  1
  Hg  Hg24  1  0.06915000  0.97265400  0.29793100  1
  Hg  Hg25  1  0.00966850  0.38188150  0.67855700  1
  Hg  Hg26  1  0.48435450  0.64044550  0.99009800  1
  Hg  Hg27  1  0.99033150  0.61811850  0.32144300  1
  Hg  Hg28  1  0.73209700  0.01777700  0.11115500  1
  Hg  Hg29  1  0.83607650  0.37061650  0.63437600  1
  Hg  Hg30  1  0.83778950  0.65237450  0.65695000  1
  Hg  Hg31  1  0.32882150  0.38193750  0.82061900  1
  Hg  Hg32  1  0.83476050  0.11499450  0.47342500  1
  Hg  Hg33  1  0.16392350  0.62938350  0.36562400  1
  Hg  Hg34  1  0.16221050  0.65237450  0.84305000  1
  Hg  Hg35  1  0.99033150  0.38188150  0.82144300  1
  Hg  Hg36  1  0.66221050  0.84762550  0.34305000  1
  Hg  Hg37  1  0.26790300  0.01777700  0.38884500  1
  Hg  Hg38  1  0.50966850  0.11811850  0.17855700  1
  Hg  Hg39  1  0.56915000  0.52734600  0.79793100  1
  Hg  Hg40  1  0.90429550  0.54318550  0.96454000  1
  Hg  Hg41  1  0.17117850  0.11806250  0.17938100  1
  Hg  Hg42  1  0.33607650  0.12938350  0.13437600  1
  Hg  Hg43  1  0.32882150  0.61806250  0.32061900  1
  Hg  Hg44  1  0.48435450  0.35955450  0.49009800  1
  Hg  Hg45  1  0.09570450  0.45681450  0.03546000  1
  Hg  Hg46  1  0.73209700  0.98222300  0.61115500  1
  Hg  Hg47  1  0.33778950  0.84762550  0.15695000  1
  Hg  Hg48  1  0.76790300  0.48222300  0.88884500  1
  Hg  Hg49  1  0.43085000  0.52734600  0.70206900  1
  Hg  Hg50  1  0.01564550  0.85955450  0.00990200  1
  Hg  Hg51  1  0.51564550  0.64044550  0.50990200  1
  Hg  Hg52  1  0.67117850  0.38193750  0.67938100  1
  Hg  Hg53  1  0.83476050  0.88500550  0.97342500  1
  Hg  Hg54  1  0.43085000  0.47265400  0.20206900  1
  Hg  Hg55  1  0.40429550  0.95681450  0.46454000  1
  Hg  Hg56  1  0.66523950  0.38500550  0.52657500  1
  Hg  Hg57  1  0.59570450  0.04318550  0.53546000  1
  Hg  Hg58  1  0.16523950  0.11499450  0.02657500  1
  Hg  Hg59  1  0.66392350  0.87061650  0.86562400  1
  Hg  Hg60  1  0.56915000  0.47265400  0.29793100  1
  Hg  Hg61  1  0.50966850  0.88188150  0.67855700  1
  Hg  Hg62  1  0.98435450  0.14044550  0.99009800  1
  Hg  Hg63  1  0.49033150  0.11811850  0.32144300  1
  Hg  Hg64  1  0.23209700  0.51777700  0.11115500  1
  Hg  Hg65  1  0.33607650  0.87061650  0.63437600  1
  Hg  Hg66  1  0.33778950  0.15237450  0.65695000  1
  Hg  Hg67  1  0.82882150  0.88193750  0.82061900  1
  Hg  Hg68  1  0.33476050  0.61499450  0.47342500  1
  Hg  Hg69  1  0.66392350  0.12938350  0.36562400  1
  Hg  Hg70  1  0.66221050  0.15237450  0.84305000  1
  Hg  Hg71  1  0.49033150  0.88188150  0.82144300  1
  Cl  Cl72  1  0.14926100  0.18960500  0.48453900  1
  Cl  Cl73  1  0.33786800  0.71943100  0.78191300  1
  Cl  Cl74  1  0.85073900  0.81039500  0.51546100  1
  Cl  Cl75  1  0.95927650  0.31094950  0.34499200  1
  Cl  Cl76  1  0.04072350  0.31094950  0.15500800  1
  Cl  Cl77  1  0.83786800  0.78056900  0.28191300  1
  Cl  Cl78  1  0.04072350  0.68905050  0.65500800  1
  Cl  Cl79  1  0.14926100  0.81039500  0.98453900  1
  Cl  Cl80  1  0.66213200  0.28056900  0.21808700  1
  Cl  Cl81  1  0.85073900  0.18960500  0.01546100  1
  Cl  Cl82  1  0.95927650  0.68905050  0.84499200  1
  Cl  Cl83  1  0.16213200  0.21943100  0.71808700  1
  Cl  Cl84  1  0.64926100  0.68960500  0.48453900  1
  Cl  Cl85  1  0.83786800  0.21943100  0.78191300  1
  Cl  Cl86  1  0.35073900  0.31039500  0.51546100  1
  Cl  Cl87  1  0.45927650  0.81094950  0.34499200  1
  Cl  Cl88  1  0.54072350  0.81094950  0.15500800  1
  Cl  Cl89  1  0.33786800  0.28056900  0.28191300  1
  Cl  Cl90  1  0.54072350  0.18905050  0.65500800  1
  Cl  Cl91  1  0.64926100  0.31039500  0.98453900  1
  Cl  Cl92  1  0.16213200  0.78056900  0.21808700  1
  Cl  Cl93  1  0.35073900  0.68960500  0.01546100  1
  Cl  Cl94  1  0.45927650  0.18905050  0.84499200  1
  Cl  Cl95  1  0.66213200  0.71943100  0.71808700  1
  O  O96  1  0.16988300  0.87594600  0.80414500  1
  O  O97  1  0.00660800  0.36381300  0.55267300  1
  O  O98  1  0.33011700  0.37594600  0.69585500  1
  O  O99  1  0.99339200  0.63618700  0.44732700  1
  O  O100  1  0.00660800  0.63618700  0.05267300  1
  O  O101  1  0.83011700  0.12405400  0.19585500  1
  O  O102  1  0.83923250  0.14632950  0.59739600  1
  O  O103  1  0.16076750  0.14632950  0.90260400  1
  O  O104  1  0.66988300  0.62405400  0.30414500  1
  O  O105  1  0.83923250  0.85367050  0.09739600  1
  O  O106  1  0.16076750  0.85367050  0.40260400  1
  O  O107  1  0.99339200  0.36381300  0.94732700  1
  O  O108  1  0.66988300  0.37594600  0.80414500  1
  O  O109  1  0.50660800  0.86381300  0.55267300  1
  O  O110  1  0.83011700  0.87594600  0.69585500  1
  O  O111  1  0.49339200  0.13618700  0.44732700  1
  O  O112  1  0.50660800  0.13618700  0.05267300  1
  O  O113  1  0.33011700  0.62405400  0.19585500  1
  O  O114  1  0.33923250  0.64632950  0.59739600  1
  O  O115  1  0.66076750  0.64632950  0.90260400  1
  O  O116  1  0.16988300  0.12405400  0.30414500  1
  O  O117  1  0.33923250  0.35367050  0.09739600  1
  O  O118  1  0.66076750  0.35367050  0.40260400  1
  O  O119  1  0.49339200  0.86381300  0.94732700  1
