# generated using pymatgen
data_NdOF
_symmetry_space_group_name_H-M   'P 1'
_cell_length_a   3.98742636
_cell_length_b   3.98742636
_cell_length_c   19.90943525
_cell_angle_alpha   90.00000000
_cell_angle_beta   90.00000000
_cell_angle_gamma   120.00000000
_symmetry_Int_Tables_number   1
_chemical_formula_structural   NdOF
_chemical_formula_sum   'Nd6 O6 F6'
_cell_volume   274.14158799
_cell_formula_units_Z   6
loop_
 _symmetry_equiv_pos_site_id
 _symmetry_equiv_pos_as_xyz
  1  'x, y, z'
loop_
 _atom_site_type_symbol
 _atom_site_label
 _atom_site_symmetry_multiplicity
 _atom_site_fract_x
 _atom_site_fract_y
 _atom_site_fract_z
 _atom_site_occupancy
  Nd  Nd0  1  0.66666667  0.33333333  0.07487233  1
  Nd  Nd1  1  0.00000000  0.00000000  0.25846100  1
  Nd  Nd2  1  0.33333333  0.66666667  0.40820567  1
  Nd  Nd3  1  0.66666667  0.33333333  0.59179433  1
  Nd  Nd4  1  0.00000000  0.00000000  0.74153900  1
  Nd  Nd5  1  0.33333333  0.66666667  0.92512767  1
  O  O6  1  0.33333333  0.66666667  0.28864067  1
  O  O7  1  0.33333333  0.66666667  0.04469267  1
  O  O8  1  0.00000000  0.00000000  0.62197400  1
  O  O9  1  0.00000000  0.00000000  0.37802600  1
  O  O10  1  0.66666667  0.33333333  0.95530733  1
  O  O11  1  0.66666667  0.33333333  0.71135933  1
  F  F12  1  0.66666667  0.33333333  0.20328933  1
  F  F13  1  0.00000000  0.00000000  0.13004400  1
  F  F14  1  0.33333333  0.66666667  0.53662267  1
  F  F15  1  0.66666667  0.33333333  0.46337733  1
  F  F16  1  0.00000000  0.00000000  0.86995600  1
  F  F17  1  0.33333333  0.66666667  0.79671067  1
