# generated using pymatgen
data_Zr3Pb(O2F3)2
_symmetry_space_group_name_H-M   'P 1'
_cell_length_a   11.08875800
_cell_length_b   11.08875800
_cell_length_c   11.08875800
_cell_angle_alpha   90.00000000
_cell_angle_beta   90.00000000
_cell_angle_gamma   90.00000000
_symmetry_Int_Tables_number   1
_chemical_formula_structural   Zr3Pb(O2F3)2
_chemical_formula_sum   'Zr24 Pb8 O32 F48'
_cell_volume   1363.47982666
_cell_formula_units_Z   8
loop_
 _symmetry_equiv_pos_site_id
 _symmetry_equiv_pos_as_xyz
  1  'x, y, z'
loop_
 _atom_site_type_symbol
 _atom_site_label
 _atom_site_symmetry_multiplicity
 _atom_site_fract_x
 _atom_site_fract_y
 _atom_site_fract_z
 _atom_site_occupancy
  Zr  Zr0  1  0.50000000  0.00000000  0.72288400  1
  Zr  Zr1  1  0.77711600  0.00000000  0.00000000  1
  Zr  Zr2  1  0.22288400  0.00000000  0.00000000  1
  Zr  Zr3  1  0.50000000  0.72288400  0.00000000  1
  Zr  Zr4  1  0.50000000  0.27711600  0.00000000  1
  Zr  Zr5  1  0.00000000  0.00000000  0.77711600  1
  Zr  Zr6  1  0.50000000  0.50000000  0.22288400  1
  Zr  Zr7  1  0.77711600  0.50000000  0.50000000  1
  Zr  Zr8  1  0.22288400  0.50000000  0.50000000  1
  Zr  Zr9  1  0.50000000  0.22288400  0.50000000  1
  Zr  Zr10  1  0.50000000  0.77711600  0.50000000  1
  Zr  Zr11  1  0.00000000  0.50000000  0.27711600  1
  Zr  Zr12  1  0.00000000  0.00000000  0.22288400  1
  Zr  Zr13  1  0.27711600  0.00000000  0.50000000  1
  Zr  Zr14  1  0.72288400  0.00000000  0.50000000  1
  Zr  Zr15  1  0.00000000  0.72288400  0.50000000  1
  Zr  Zr16  1  0.00000000  0.27711600  0.50000000  1
  Zr  Zr17  1  0.50000000  0.00000000  0.27711600  1
  Zr  Zr18  1  0.00000000  0.50000000  0.72288400  1
  Zr  Zr19  1  0.27711600  0.50000000  0.00000000  1
  Zr  Zr20  1  0.72288400  0.50000000  0.00000000  1
  Zr  Zr21  1  0.00000000  0.22288400  0.00000000  1
  Zr  Zr22  1  0.00000000  0.77711600  0.00000000  1
  Zr  Zr23  1  0.50000000  0.50000000  0.77711600  1
  Pb  Pb24  1  0.25000000  0.25000000  0.75000000  1
  Pb  Pb25  1  0.25000000  0.75000000  0.75000000  1
  Pb  Pb26  1  0.25000000  0.75000000  0.25000000  1
  Pb  Pb27  1  0.25000000  0.25000000  0.25000000  1
  Pb  Pb28  1  0.75000000  0.25000000  0.25000000  1
  Pb  Pb29  1  0.75000000  0.75000000  0.25000000  1
  Pb  Pb30  1  0.75000000  0.75000000  0.75000000  1
  Pb  Pb31  1  0.75000000  0.25000000  0.75000000  1
  O  O32  1  0.11577067  0.38422933  0.61577067  1
  O  O33  1  0.38422933  0.88422933  0.61577067  1
  O  O34  1  0.11577067  0.88422933  0.88422933  1
  O  O35  1  0.11577067  0.61577067  0.61577067  1
  O  O36  1  0.38422933  0.11577067  0.61577067  1
  O  O37  1  0.38422933  0.38422933  0.88422933  1
  O  O38  1  0.11577067  0.11577067  0.88422933  1
  O  O39  1  0.38422933  0.61577067  0.88422933  1
  O  O40  1  0.11577067  0.88422933  0.11577067  1
  O  O41  1  0.38422933  0.38422933  0.11577067  1
  O  O42  1  0.11577067  0.38422933  0.38422933  1
  O  O43  1  0.11577067  0.11577067  0.11577067  1
  O  O44  1  0.38422933  0.61577067  0.11577067  1
  O  O45  1  0.38422933  0.88422933  0.38422933  1
  O  O46  1  0.11577067  0.61577067  0.38422933  1
  O  O47  1  0.38422933  0.11577067  0.38422933  1
  O  O48  1  0.61577067  0.38422933  0.11577067  1
  O  O49  1  0.88422933  0.88422933  0.11577067  1
  O  O50  1  0.61577067  0.88422933  0.38422933  1
  O  O51  1  0.61577067  0.61577067  0.11577067  1
  O  O52  1  0.88422933  0.11577067  0.11577067  1
  O  O53  1  0.88422933  0.38422933  0.38422933  1
  O  O54  1  0.61577067  0.11577067  0.38422933  1
  O  O55  1  0.88422933  0.61577067  0.38422933  1
  O  O56  1  0.61577067  0.88422933  0.61577067  1
  O  O57  1  0.88422933  0.38422933  0.61577067  1
  O  O58  1  0.61577067  0.38422933  0.88422933  1
  O  O59  1  0.61577067  0.11577067  0.61577067  1
  O  O60  1  0.88422933  0.61577067  0.61577067  1
  O  O61  1  0.88422933  0.88422933  0.88422933  1
  O  O62  1  0.61577067  0.61577067  0.88422933  1
  O  O63  1  0.88422933  0.11577067  0.88422933  1
  F  F64  1  0.66401250  0.83598750  0.00000000  1
  F  F65  1  0.00000000  0.83598750  0.66401250  1
  F  F66  1  0.50000000  0.83598750  0.83598750  1
  F  F67  1  0.66401250  0.16401250  0.00000000  1
  F  F68  1  0.33598750  0.83598750  0.00000000  1
  F  F69  1  0.16401250  0.00000000  0.66401250  1
  F  F70  1  0.66401250  0.00000000  0.83598750  1
  F  F71  1  0.00000000  0.16401250  0.66401250  1
  F  F72  1  0.33598750  0.00000000  0.83598750  1
  F  F73  1  0.83598750  0.00000000  0.66401250  1
  F  F74  1  0.50000000  0.16401250  0.83598750  1
  F  F75  1  0.33598750  0.16401250  0.00000000  1
  F  F76  1  0.66401250  0.33598750  0.50000000  1
  F  F77  1  0.00000000  0.33598750  0.16401250  1
  F  F78  1  0.50000000  0.33598750  0.33598750  1
  F  F79  1  0.66401250  0.66401250  0.50000000  1
  F  F80  1  0.33598750  0.33598750  0.50000000  1
  F  F81  1  0.16401250  0.50000000  0.16401250  1
  F  F82  1  0.66401250  0.50000000  0.33598750  1
  F  F83  1  0.00000000  0.66401250  0.16401250  1
  F  F84  1  0.33598750  0.50000000  0.33598750  1
  F  F85  1  0.83598750  0.50000000  0.16401250  1
  F  F86  1  0.50000000  0.66401250  0.33598750  1
  F  F87  1  0.33598750  0.66401250  0.50000000  1
  F  F88  1  0.16401250  0.83598750  0.50000000  1
  F  F89  1  0.50000000  0.83598750  0.16401250  1
  F  F90  1  0.00000000  0.83598750  0.33598750  1
  F  F91  1  0.16401250  0.16401250  0.50000000  1
  F  F92  1  0.83598750  0.83598750  0.50000000  1
  F  F93  1  0.66401250  0.00000000  0.16401250  1
  F  F94  1  0.16401250  0.00000000  0.33598750  1
  F  F95  1  0.50000000  0.16401250  0.16401250  1
  F  F96  1  0.83598750  0.00000000  0.33598750  1
  F  F97  1  0.33598750  0.00000000  0.16401250  1
  F  F98  1  0.00000000  0.16401250  0.33598750  1
  F  F99  1  0.83598750  0.16401250  0.50000000  1
  F  F100  1  0.16401250  0.33598750  0.00000000  1
  F  F101  1  0.50000000  0.33598750  0.66401250  1
  F  F102  1  0.00000000  0.33598750  0.83598750  1
  F  F103  1  0.16401250  0.66401250  0.00000000  1
  F  F104  1  0.83598750  0.33598750  0.00000000  1
  F  F105  1  0.66401250  0.50000000  0.66401250  1
  F  F106  1  0.16401250  0.50000000  0.83598750  1
  F  F107  1  0.50000000  0.66401250  0.66401250  1
  F  F108  1  0.83598750  0.50000000  0.83598750  1
  F  F109  1  0.33598750  0.50000000  0.66401250  1
  F  F110  1  0.00000000  0.66401250  0.83598750  1
  F  F111  1  0.83598750  0.66401250  0.00000000  1
