# generated using pymatgen
data_CsNdHgSe3
_symmetry_space_group_name_H-M   'P 1'
_cell_length_a   4.40936400
_cell_length_b   16.36795400
_cell_length_c   11.41265500
_cell_angle_alpha   90.00000000
_cell_angle_beta   90.00000000
_cell_angle_gamma   90.00000000
_symmetry_Int_Tables_number   1
_chemical_formula_structural   CsNdHgSe3
_chemical_formula_sum   'Cs4 Nd4 Hg4 Se12'
_cell_volume   823.67718522
_cell_formula_units_Z   4
loop_
 _symmetry_equiv_pos_site_id
 _symmetry_equiv_pos_as_xyz
  1  'x, y, z'
loop_
 _atom_site_type_symbol
 _atom_site_label
 _atom_site_symmetry_multiplicity
 _atom_site_fract_x
 _atom_site_fract_y
 _atom_site_fract_z
 _atom_site_occupancy
  Cs  Cs0  1  0.00000000  0.25635700  0.75000000  1
  Cs  Cs1  1  0.50000000  0.24364300  0.25000000  1
  Cs  Cs2  1  0.50000000  0.75635700  0.75000000  1
  Cs  Cs3  1  0.00000000  0.74364300  0.25000000  1
  Nd  Nd4  1  0.00000000  0.00000000  0.50000000  1
  Nd  Nd5  1  0.00000000  0.00000000  0.00000000  1
  Nd  Nd6  1  0.50000000  0.50000000  0.50000000  1
  Nd  Nd7  1  0.50000000  0.50000000  0.00000000  1
  Hg  Hg8  1  0.00000000  0.45606900  0.25000000  1
  Hg  Hg9  1  0.50000000  0.04393100  0.75000000  1
  Hg  Hg10  1  0.50000000  0.95606900  0.25000000  1
  Hg  Hg11  1  0.00000000  0.54393100  0.75000000  1
  Se  Se12  1  0.50000000  0.12135500  0.95292100  1
  Se  Se13  1  0.50000000  0.43873500  0.75000000  1
  Se  Se14  1  0.00000000  0.06126500  0.25000000  1
  Se  Se15  1  0.00000000  0.37864500  0.04707900  1
  Se  Se16  1  0.50000000  0.12135500  0.54707900  1
  Se  Se17  1  0.00000000  0.37864500  0.45292100  1
  Se  Se18  1  0.00000000  0.62135500  0.95292100  1
  Se  Se19  1  0.00000000  0.93873500  0.75000000  1
  Se  Se20  1  0.50000000  0.56126500  0.25000000  1
  Se  Se21  1  0.50000000  0.87864500  0.04707900  1
  Se  Se22  1  0.00000000  0.62135500  0.54707900  1
  Se  Se23  1  0.50000000  0.87864500  0.45292100  1
