# generated using pymatgen
data_KTeHOF4
_symmetry_space_group_name_H-M   'P 1'
_cell_length_a   5.04108200
_cell_length_b   6.93790600
_cell_length_c   7.90542256
_cell_angle_alpha   90.00000000
_cell_angle_beta   106.46689988
_cell_angle_gamma   90.00000000
_symmetry_Int_Tables_number   1
_chemical_formula_structural   KTeHOF4
_chemical_formula_sum   'K2 Te2 H2 O2 F8'
_cell_volume   265.14806735
_cell_formula_units_Z   2
loop_
 _symmetry_equiv_pos_site_id
 _symmetry_equiv_pos_as_xyz
  1  'x, y, z'
loop_
 _atom_site_type_symbol
 _atom_site_label
 _atom_site_symmetry_multiplicity
 _atom_site_fract_x
 _atom_site_fract_y
 _atom_site_fract_z
 _atom_site_occupancy
  K  K0  1  0.63049200  0.10412400  0.29221900  1
  K  K1  1  0.36950800  0.60412400  0.70778100  1
  Te  Te2  1  0.94127800  0.12857200  0.81935100  1
  Te  Te3  1  0.05872200  0.62857200  0.18064900  1
  H  H4  1  0.75269900  0.60901100  0.37393500  1
  H  H5  1  0.24730100  0.10901100  0.62606500  1
  O  O6  1  0.94781700  0.65265600  0.39353100  1
  O  O7  1  0.05218300  0.15265600  0.60646900  1
  F  F8  1  0.92964800  0.35005100  0.17445200  1
  F  F9  1  0.66747300  0.71133200  0.05721100  1
  F  F10  1  0.42979600  0.54728900  0.36562300  1
  F  F11  1  0.57020400  0.04728900  0.63437700  1
  F  F12  1  0.84230500  0.41196600  0.77134000  1
  F  F13  1  0.07035200  0.85005100  0.82554800  1
  F  F14  1  0.15769500  0.91196600  0.22866000  1
  F  F15  1  0.33252700  0.21133200  0.94278900  1
