# generated using pymatgen
data_NaLiY2F8
_symmetry_space_group_name_H-M   'P 1'
_cell_length_a   8.40070200
_cell_length_b   10.59973600
_cell_length_c   7.12761500
_cell_angle_alpha   90.00000000
_cell_angle_beta   90.00000000
_cell_angle_gamma   90.00000000
_symmetry_Int_Tables_number   1
_chemical_formula_structural   NaLiY2F8
_chemical_formula_sum   'Na4 Li4 Y8 F32'
_cell_volume   634.68007009
_cell_formula_units_Z   4
loop_
 _symmetry_equiv_pos_site_id
 _symmetry_equiv_pos_as_xyz
  1  'x, y, z'
loop_
 _atom_site_type_symbol
 _atom_site_label
 _atom_site_symmetry_multiplicity
 _atom_site_fract_x
 _atom_site_fract_y
 _atom_site_fract_z
 _atom_site_occupancy
  Na  Na0  1  0.65800100  0.00000000  0.25000000  1
  Na  Na1  1  0.34199900  0.00000000  0.75000000  1
  Na  Na2  1  0.15800100  0.50000000  0.25000000  1
  Na  Na3  1  0.84199900  0.50000000  0.75000000  1
  Li  Li4  1  0.00000000  0.00000000  0.00000000  1
  Li  Li5  1  0.00000000  0.00000000  0.50000000  1
  Li  Li6  1  0.50000000  0.50000000  0.00000000  1
  Li  Li7  1  0.50000000  0.50000000  0.50000000  1
  Y  Y8  1  0.73664100  0.18668700  0.75000000  1
  Y  Y9  1  0.73664100  0.81331300  0.75000000  1
  Y  Y10  1  0.26335900  0.81331300  0.25000000  1
  Y  Y11  1  0.26335900  0.18668700  0.25000000  1
  Y  Y12  1  0.23664100  0.68668700  0.75000000  1
  Y  Y13  1  0.23664100  0.31331300  0.75000000  1
  Y  Y14  1  0.76335900  0.31331300  0.25000000  1
  Y  Y15  1  0.76335900  0.68668700  0.25000000  1
  F  F16  1  0.47275950  0.78143350  0.75000000  1
  F  F17  1  0.52724050  0.78143350  0.25000000  1
  F  F18  1  0.20158150  0.86240350  0.55084000  1
  F  F19  1  0.79841850  0.13759650  0.44916000  1
  F  F20  1  0.52724050  0.21856650  0.25000000  1
  F  F21  1  0.20158150  0.13759650  0.55084000  1
  F  F22  1  0.79841850  0.13759650  0.05084000  1
  F  F23  1  0.47275950  0.21856650  0.75000000  1
  F  F24  1  0.08793200  0.00000000  0.25000000  1
  F  F25  1  0.60878900  0.00000000  0.75000000  1
  F  F26  1  0.20158150  0.13759650  0.94916000  1
  F  F27  1  0.91206800  0.00000000  0.75000000  1
  F  F28  1  0.79841850  0.86240350  0.44916000  1
  F  F29  1  0.39121100  0.00000000  0.25000000  1
  F  F30  1  0.20158150  0.86240350  0.94916000  1
  F  F31  1  0.79841850  0.86240350  0.05084000  1
  F  F32  1  0.97275950  0.28143350  0.75000000  1
  F  F33  1  0.02724050  0.28143350  0.25000000  1
  F  F34  1  0.70158150  0.36240350  0.55084000  1
  F  F35  1  0.29841850  0.63759650  0.44916000  1
  F  F36  1  0.02724050  0.71856650  0.25000000  1
  F  F37  1  0.70158150  0.63759650  0.55084000  1
  F  F38  1  0.29841850  0.63759650  0.05084000  1
  F  F39  1  0.97275950  0.71856650  0.75000000  1
  F  F40  1  0.58793200  0.50000000  0.25000000  1
  F  F41  1  0.10878900  0.50000000  0.75000000  1
  F  F42  1  0.70158150  0.63759650  0.94916000  1
  F  F43  1  0.41206800  0.50000000  0.75000000  1
  F  F44  1  0.29841850  0.36240350  0.44916000  1
  F  F45  1  0.89121100  0.50000000  0.25000000  1
  F  F46  1  0.70158150  0.36240350  0.94916000  1
  F  F47  1  0.29841850  0.36240350  0.05084000  1
