# generated using pymatgen
data_Rb4U5O17
_symmetry_space_group_name_H-M   'P 1'
_cell_length_a   7.09497200
_cell_length_b   14.58358800
_cell_length_c   18.86611200
_cell_angle_alpha   90.00000000
_cell_angle_beta   90.00000000
_cell_angle_gamma   90.00000000
_symmetry_Int_Tables_number   1
_chemical_formula_structural   Rb4U5O17
_chemical_formula_sum   'Rb16 U20 O68'
_cell_volume   1952.07941063
_cell_formula_units_Z   4
loop_
 _symmetry_equiv_pos_site_id
 _symmetry_equiv_pos_as_xyz
  1  'x, y, z'
loop_
 _atom_site_type_symbol
 _atom_site_label
 _atom_site_symmetry_multiplicity
 _atom_site_fract_x
 _atom_site_fract_y
 _atom_site_fract_z
 _atom_site_occupancy
  Rb  Rb0  1  0.76790800  0.52740400  0.05475800  1
  Rb  Rb1  1  0.20444900  0.05976200  0.31025700  1
  Rb  Rb2  1  0.70444900  0.44023800  0.81025700  1
  Rb  Rb3  1  0.76790800  0.97259600  0.94524200  1
  Rb  Rb4  1  0.26790800  0.52740400  0.44524200  1
  Rb  Rb5  1  0.79555100  0.94023800  0.68974300  1
  Rb  Rb6  1  0.29555100  0.55976200  0.18974300  1
  Rb  Rb7  1  0.70444900  0.05976200  0.18974300  1
  Rb  Rb8  1  0.29555100  0.94023800  0.81025700  1
  Rb  Rb9  1  0.79555100  0.55976200  0.31025700  1
  Rb  Rb10  1  0.73209200  0.02740400  0.44524200  1
  Rb  Rb11  1  0.73209200  0.47259600  0.55475800  1
  Rb  Rb12  1  0.23209200  0.02740400  0.05475800  1
  Rb  Rb13  1  0.23209200  0.47259600  0.94524200  1
  Rb  Rb14  1  0.20444900  0.44023800  0.68974300  1
  Rb  Rb15  1  0.26790800  0.97259600  0.55475800  1
  U  U16  1  0.02566100  0.81780200  0.18865300  1
  U  U17  1  0.07538600  0.70645600  0.60264100  1
  U  U18  1  0.62548800  0.75000000  0.50000000  1
  U  U19  1  0.52566100  0.68219800  0.68865300  1
  U  U20  1  0.92461400  0.20645600  0.60264100  1
  U  U21  1  0.02566100  0.68219800  0.81134700  1
  U  U22  1  0.42461400  0.29354400  0.10264100  1
  U  U23  1  0.97433900  0.18219800  0.81134700  1
  U  U24  1  0.42461400  0.20645600  0.89735900  1
  U  U25  1  0.57538600  0.70645600  0.89735900  1
  U  U26  1  0.57538600  0.79354400  0.10264100  1
  U  U27  1  0.37451200  0.25000000  0.50000000  1
  U  U28  1  0.12548800  0.75000000  0.00000000  1
  U  U29  1  0.47433900  0.31780200  0.31134700  1
  U  U30  1  0.52566100  0.81780200  0.31134700  1
  U  U31  1  0.87451200  0.25000000  0.00000000  1
  U  U32  1  0.47433900  0.18219800  0.68865300  1
  U  U33  1  0.97433900  0.31780200  0.18865300  1
  U  U34  1  0.07538600  0.79354400  0.39735900  1
  U  U35  1  0.92461400  0.29354400  0.39735900  1
  O  O36  1  0.29596000  0.33422800  0.20975600  1
  O  O37  1  0.56950900  0.91819800  0.07800600  1
  O  O38  1  0.99503900  0.30557800  0.78983700  1
  O  O39  1  0.49503900  0.30557800  0.71016300  1
  O  O40  1  0.12543000  0.62992800  0.03199800  1
  O  O41  1  0.61004200  0.29054200  0.42006200  1
  O  O42  1  0.37457000  0.12992800  0.46800200  1
  O  O43  1  0.45687400  0.44497400  0.32356500  1
  O  O44  1  0.38995800  0.70945800  0.57993800  1
  O  O45  1  0.58476600  0.67052000  0.12853500  1
  O  O46  1  0.26105600  0.79578200  0.11558600  1
  O  O47  1  0.43049100  0.41819800  0.07800600  1
  O  O48  1  0.54312600  0.94497400  0.32356500  1
  O  O49  1  0.88995800  0.70945800  0.92006200  1
  O  O50  1  0.03996200  0.25000000  0.50000000  1
  O  O51  1  0.91523400  0.32948000  0.62853500  1
  O  O52  1  0.95687400  0.05502600  0.82356500  1
  O  O53  1  0.20404000  0.83422800  0.29024400  1
  O  O54  1  0.38995800  0.79054200  0.42006200  1
  O  O55  1  0.61004200  0.20945800  0.57993800  1
  O  O56  1  0.87457000  0.37007200  0.96800200  1
  O  O57  1  0.37457000  0.37007200  0.53199800  1
  O  O58  1  0.06950900  0.58180200  0.57800600  1
  O  O59  1  0.53996200  0.25000000  0.00000000  1
  O  O60  1  0.76105600  0.70421800  0.61558600  1
  O  O61  1  0.11004200  0.29054200  0.07993800  1
  O  O62  1  0.23894400  0.20421800  0.61558600  1
  O  O63  1  0.20404000  0.66577200  0.70975600  1
  O  O64  1  0.49503900  0.19442200  0.28983700  1
  O  O65  1  0.56950900  0.58180200  0.92199400  1
  O  O66  1  0.54312600  0.55502600  0.67643500  1
  O  O67  1  0.23894400  0.29578200  0.38441400  1
  O  O68  1  0.79596000  0.16577200  0.70975600  1
  O  O69  1  0.93049100  0.08180200  0.57800600  1
  O  O70  1  0.95687400  0.44497400  0.17643500  1
  O  O71  1  0.08476600  0.67052000  0.37146500  1
  O  O72  1  0.26105600  0.70421800  0.88441400  1
  O  O73  1  0.00496100  0.80557800  0.78983700  1
  O  O74  1  0.91523400  0.17052000  0.37146500  1
  O  O75  1  0.04312600  0.94497400  0.17643500  1
  O  O76  1  0.76105600  0.79578200  0.38441400  1
  O  O77  1  0.99503900  0.19442200  0.21016300  1
  O  O78  1  0.88995800  0.79054200  0.07993800  1
  O  O79  1  0.08476600  0.82948000  0.62853500  1
  O  O80  1  0.41523400  0.17052000  0.12853500  1
  O  O81  1  0.93049100  0.41819800  0.42199400  1
  O  O82  1  0.29596000  0.16577200  0.79024400  1
  O  O83  1  0.11004200  0.20945800  0.92006200  1
  O  O84  1  0.12543000  0.87007200  0.96800200  1
  O  O85  1  0.00496100  0.69442200  0.21016300  1
  O  O86  1  0.50496100  0.69442200  0.28983700  1
  O  O87  1  0.41523400  0.32948000  0.87146500  1
  O  O88  1  0.73894400  0.20421800  0.88441400  1
  O  O89  1  0.62543000  0.62992800  0.46800200  1
  O  O90  1  0.58476600  0.82948000  0.87146500  1
  O  O91  1  0.50496100  0.80557800  0.71016300  1
  O  O92  1  0.06950900  0.91819800  0.42199400  1
  O  O93  1  0.87457000  0.12992800  0.03199800  1
  O  O94  1  0.62543000  0.87007200  0.53199800  1
  O  O95  1  0.96003800  0.75000000  0.50000000  1
  O  O96  1  0.79596000  0.33422800  0.29024400  1
  O  O97  1  0.45687400  0.05502600  0.67643500  1
  O  O98  1  0.70404000  0.83422800  0.20975600  1
  O  O99  1  0.73894400  0.29578200  0.11558600  1
  O  O100  1  0.43049100  0.08180200  0.92199400  1
  O  O101  1  0.70404000  0.66577200  0.79024400  1
  O  O102  1  0.46003800  0.75000000  0.00000000  1
  O  O103  1  0.04312600  0.55502600  0.82356500  1
