# generated using pymatgen
data_Ba(BO2)2
_symmetry_space_group_name_H-M   'P 1'
_cell_length_a   12.67177776
_cell_length_b   12.67177776
_cell_length_c   13.09367018
_cell_angle_alpha   90.00000000
_cell_angle_beta   90.00000000
_cell_angle_gamma   120.00000000
_symmetry_Int_Tables_number   1
_chemical_formula_structural   Ba(BO2)2
_chemical_formula_sum   'Ba18 B36 O72'
_cell_volume   1820.82045705
_cell_formula_units_Z   18
loop_
 _symmetry_equiv_pos_site_id
 _symmetry_equiv_pos_as_xyz
  1  'x, y, z'
loop_
 _atom_site_type_symbol
 _atom_site_label
 _atom_site_symmetry_multiplicity
 _atom_site_fract_x
 _atom_site_fract_y
 _atom_site_fract_z
 _atom_site_occupancy
  Ba  Ba0  1  0.99642633  0.64188167  0.38306767  1
  Ba  Ba1  1  0.64545533  0.00357367  0.38306767  1
  Ba  Ba2  1  0.35811833  0.35454467  0.38306767  1
  Ba  Ba3  1  0.32975967  0.02121133  0.54973433  1
  Ba  Ba4  1  0.69145167  0.67024033  0.54973433  1
  Ba  Ba5  1  0.97878867  0.30854833  0.54973433  1
  Ba  Ba6  1  0.66309300  0.97521500  0.71640100  1
  Ba  Ba7  1  0.31212200  0.33690700  0.71640100  1
  Ba  Ba8  1  0.02478500  0.68787800  0.71640100  1
  Ba  Ba9  1  0.99642633  0.35454467  0.88306767  1
  Ba  Ba10  1  0.35811833  0.00357367  0.88306767  1
  Ba  Ba11  1  0.64545533  0.64188167  0.88306767  1
  Ba  Ba12  1  0.32975967  0.30854833  0.04973433  1
  Ba  Ba13  1  0.97878867  0.67024033  0.04973433  1
  Ba  Ba14  1  0.69145167  0.02121133  0.04973433  1
  Ba  Ba15  1  0.66309300  0.68787800  0.21640100  1
  Ba  Ba16  1  0.02478500  0.33690700  0.21640100  1
  Ba  Ba17  1  0.31212200  0.97521500  0.21640100  1
  B  B18  1  0.70892100  0.46273400  0.34000200  1
  B  B19  1  0.75381300  0.29107900  0.34000200  1
  B  B20  1  0.53726600  0.24618700  0.34000200  1
  B  B21  1  0.04225433  0.91285367  0.50666867  1
  B  B22  1  0.87059933  0.95774567  0.50666867  1
  B  B23  1  0.08714633  0.12940067  0.50666867  1
  B  B24  1  0.02280800  0.89944300  0.24368400  1
  B  B25  1  0.10055700  0.12336500  0.24368400  1
  B  B26  1  0.87663500  0.97719200  0.24368400  1
  B  B27  1  0.10055700  0.97719200  0.74368400  1
  B  B28  1  0.02280800  0.12336500  0.74368400  1
  B  B29  1  0.87663500  0.89944300  0.74368400  1
  B  B30  1  0.37558767  0.79606733  0.67333533  1
  B  B31  1  0.42047967  0.62441233  0.67333533  1
  B  B32  1  0.20393267  0.57952033  0.67333533  1
  B  B33  1  0.70892100  0.24618700  0.84000200  1
  B  B34  1  0.53726600  0.29107900  0.84000200  1
  B  B35  1  0.75381300  0.46273400  0.84000200  1
  B  B36  1  0.68947467  0.23277633  0.57701733  1
  B  B37  1  0.76722367  0.45669833  0.57701733  1
  B  B38  1  0.54330167  0.31052533  0.57701733  1
  B  B39  1  0.76722367  0.31052533  0.07701733  1
  B  B40  1  0.68947467  0.45669833  0.07701733  1
  B  B41  1  0.54330167  0.23277633  0.07701733  1
  B  B42  1  0.04225433  0.12940067  0.00666867  1
  B  B43  1  0.08714633  0.95774567  0.00666867  1
  B  B44  1  0.87059933  0.91285367  0.00666867  1
  B  B45  1  0.37558767  0.57952033  0.17333533  1
  B  B46  1  0.20393267  0.62441233  0.17333533  1
  B  B47  1  0.42047967  0.79606733  0.17333533  1
  B  B48  1  0.35614133  0.56610967  0.91035067  1
  B  B49  1  0.43389033  0.79003167  0.91035067  1
  B  B50  1  0.20996833  0.64385867  0.91035067  1
  B  B51  1  0.43389033  0.64385867  0.41035067  1
  B  B52  1  0.35614133  0.79003167  0.41035067  1
  B  B53  1  0.20996833  0.56610967  0.41035067  1
  O  O54  1  0.95889233  0.08304267  0.50476267  1
  O  O55  1  0.91695733  0.87584967  0.50476267  1
  O  O56  1  0.12415033  0.04110767  0.50476267  1
  O  O57  1  0.25029067  0.70777433  0.67142933  1
  O  O58  1  0.29222567  0.54251633  0.67142933  1
  O  O59  1  0.45748367  0.74970933  0.67142933  1
  O  O60  1  0.71439800  0.14273800  0.57132800  1
  O  O61  1  0.85726200  0.57166000  0.57132800  1
  O  O62  1  0.42834000  0.28560200  0.57132800  1
  O  O63  1  0.19059533  0.95226867  0.73799467  1
  O  O64  1  0.04773133  0.23832667  0.73799467  1
  O  O65  1  0.76167333  0.80940467  0.73799467  1
  O  O66  1  0.11894800  0.02248200  0.24582700  1
  O  O67  1  0.97751800  0.09646600  0.24582700  1
  O  O68  1  0.90353400  0.88105200  0.24582700  1
  O  O69  1  0.97751800  0.88105200  0.74582700  1
  O  O70  1  0.11894800  0.09646600  0.74582700  1
  O  O71  1  0.90353400  0.02248200  0.74582700  1
  O  O72  1  0.16369700  0.24863700  0.51135900  1
  O  O73  1  0.75136300  0.91506000  0.51135900  1
  O  O74  1  0.08494000  0.83630300  0.51135900  1
  O  O75  1  0.41802967  0.16963633  0.34469233  1
  O  O76  1  0.83036367  0.24839333  0.34469233  1
  O  O77  1  0.75160667  0.58197033  0.34469233  1
  O  O78  1  0.62555900  0.41637600  0.83809600  1
  O  O79  1  0.58362400  0.20918300  0.83809600  1
  O  O80  1  0.79081700  0.37444100  0.83809600  1
  O  O81  1  0.91695733  0.04110767  0.00476267  1
  O  O82  1  0.95889233  0.87584967  0.00476267  1
  O  O83  1  0.12415033  0.08304267  0.00476267  1
  O  O84  1  0.38106467  0.47607133  0.90466133  1
  O  O85  1  0.52392867  0.90499333  0.90466133  1
  O  O86  1  0.09500667  0.61893533  0.90466133  1
  O  O87  1  0.85726200  0.28560200  0.07132800  1
  O  O88  1  0.71439800  0.57166000  0.07132800  1
  O  O89  1  0.42834000  0.14273800  0.07132800  1
  O  O90  1  0.78561467  0.35581533  0.57916033  1
  O  O91  1  0.64418467  0.42979933  0.57916033  1
  O  O92  1  0.57020067  0.21438533  0.57916033  1
  O  O93  1  0.64418467  0.21438533  0.07916033  1
  O  O94  1  0.78561467  0.42979933  0.07916033  1
  O  O95  1  0.57020067  0.35581533  0.07916033  1
  O  O96  1  0.83036367  0.58197033  0.84469233  1
  O  O97  1  0.41802967  0.24839333  0.84469233  1
  O  O98  1  0.75160667  0.16963633  0.84469233  1
  O  O99  1  0.08469633  0.50296967  0.67802567  1
  O  O100  1  0.49703033  0.58172667  0.67802567  1
  O  O101  1  0.41827333  0.91530367  0.67802567  1
  O  O102  1  0.29222567  0.74970933  0.17142933  1
  O  O103  1  0.25029067  0.54251633  0.17142933  1
  O  O104  1  0.45748367  0.70777433  0.17142933  1
  O  O105  1  0.58362400  0.37444100  0.33809600  1
  O  O106  1  0.62555900  0.20918300  0.33809600  1
  O  O107  1  0.79081700  0.41637600  0.33809600  1
  O  O108  1  0.04773133  0.80940467  0.23799467  1
  O  O109  1  0.19059533  0.23832667  0.23799467  1
  O  O110  1  0.76167333  0.95226867  0.23799467  1
  O  O111  1  0.52392867  0.61893533  0.40466133  1
  O  O112  1  0.38106467  0.90499333  0.40466133  1
  O  O113  1  0.09500667  0.47607133  0.40466133  1
  O  O114  1  0.45228133  0.68914867  0.91249367  1
  O  O115  1  0.31085133  0.76313267  0.91249367  1
  O  O116  1  0.23686733  0.54771867  0.91249367  1
  O  O117  1  0.31085133  0.54771867  0.41249367  1
  O  O118  1  0.45228133  0.76313267  0.41249367  1
  O  O119  1  0.23686733  0.68914867  0.41249367  1
  O  O120  1  0.49703033  0.91530367  0.17802567  1
  O  O121  1  0.08469633  0.58172667  0.17802567  1
  O  O122  1  0.41827333  0.50296967  0.17802567  1
  O  O123  1  0.75136300  0.83630300  0.01135900  1
  O  O124  1  0.16369700  0.91506000  0.01135900  1
  O  O125  1  0.08494000  0.24863700  0.01135900  1
