# generated using pymatgen
data_La4Pb3
_symmetry_space_group_name_H-M   'P 1'
_cell_length_a   9.92454800
_cell_length_b   9.92454800
_cell_length_c   9.92454800
_cell_angle_alpha   90.00000000
_cell_angle_beta   90.00000000
_cell_angle_gamma   90.00000000
_symmetry_Int_Tables_number   1
_chemical_formula_structural   La4Pb3
_chemical_formula_sum   'La16 Pb12'
_cell_volume   977.53476058
_cell_formula_units_Z   4
loop_
 _symmetry_equiv_pos_site_id
 _symmetry_equiv_pos_as_xyz
  1  'x, y, z'
loop_
 _atom_site_type_symbol
 _atom_site_label
 _atom_site_symmetry_multiplicity
 _atom_site_fract_x
 _atom_site_fract_y
 _atom_site_fract_z
 _atom_site_occupancy
  La  La0  1  0.92871350  0.42871350  0.07128650  1
  La  La1  1  0.17871350  0.67871350  0.82128650  1
  La  La2  1  0.32128650  0.32128650  0.32128650  1
  La  La3  1  0.42871350  0.07128650  0.92871350  1
  La  La4  1  0.07128650  0.07128650  0.07128650  1
  La  La5  1  0.82128650  0.17871350  0.67871350  1
  La  La6  1  0.67871350  0.82128650  0.17871350  1
  La  La7  1  0.07128650  0.92871350  0.42871350  1
  La  La8  1  0.42871350  0.92871350  0.57128650  1
  La  La9  1  0.67871350  0.17871350  0.32128650  1
  La  La10  1  0.82128650  0.82128650  0.82128650  1
  La  La11  1  0.92871350  0.57128650  0.42871350  1
  La  La12  1  0.57128650  0.57128650  0.57128650  1
  La  La13  1  0.32128650  0.67871350  0.17871350  1
  La  La14  1  0.17871350  0.32128650  0.67871350  1
  La  La15  1  0.57128650  0.42871350  0.92871350  1
  Pb  Pb16  1  0.75000000  0.12500000  0.00000000  1
  Pb  Pb17  1  0.00000000  0.75000000  0.12500000  1
  Pb  Pb18  1  0.00000000  0.25000000  0.37500000  1
  Pb  Pb19  1  0.25000000  0.37500000  0.00000000  1
  Pb  Pb20  1  0.12500000  0.00000000  0.75000000  1
  Pb  Pb21  1  0.37500000  0.00000000  0.25000000  1
  Pb  Pb22  1  0.25000000  0.62500000  0.50000000  1
  Pb  Pb23  1  0.50000000  0.25000000  0.62500000  1
  Pb  Pb24  1  0.50000000  0.75000000  0.87500000  1
  Pb  Pb25  1  0.75000000  0.87500000  0.50000000  1
  Pb  Pb26  1  0.62500000  0.50000000  0.25000000  1
  Pb  Pb27  1  0.87500000  0.50000000  0.75000000  1
