# generated using pymatgen
data_Ba(BO2)2
_symmetry_space_group_name_H-M   'P 1'
_cell_length_a   7.32599237
_cell_length_b   7.32599237
_cell_length_c   40.15333804
_cell_angle_alpha   90.00000000
_cell_angle_beta   90.00000000
_cell_angle_gamma   120.00000000
_symmetry_Int_Tables_number   1
_chemical_formula_structural   Ba(BO2)2
_chemical_formula_sum   'Ba18 B36 O72'
_cell_volume   1866.31613328
_cell_formula_units_Z   18
loop_
 _symmetry_equiv_pos_site_id
 _symmetry_equiv_pos_as_xyz
  1  'x, y, z'
loop_
 _atom_site_type_symbol
 _atom_site_label
 _atom_site_symmetry_multiplicity
 _atom_site_fract_x
 _atom_site_fract_y
 _atom_site_fract_z
 _atom_site_occupancy
  Ba  Ba0  1  0.00000000  0.00000000  0.15096400  1
  Ba  Ba1  1  0.33333333  0.66666667  0.01570267  1
  Ba  Ba2  1  0.66666667  0.33333333  0.18236933  1
  Ba  Ba3  1  0.33333333  0.66666667  0.31763067  1
  Ba  Ba4  1  0.00000000  0.00000000  0.25000000  1
  Ba  Ba5  1  0.66666667  0.33333333  0.08333333  1
  Ba  Ba6  1  0.66666667  0.33333333  0.48429733  1
  Ba  Ba7  1  0.00000000  0.00000000  0.34903600  1
  Ba  Ba8  1  0.33333333  0.66666667  0.51570267  1
  Ba  Ba9  1  0.00000000  0.00000000  0.65096400  1
  Ba  Ba10  1  0.66666667  0.33333333  0.58333333  1
  Ba  Ba11  1  0.33333333  0.66666667  0.41666667  1
  Ba  Ba12  1  0.33333333  0.66666667  0.81763067  1
  Ba  Ba13  1  0.66666667  0.33333333  0.68236933  1
  Ba  Ba14  1  0.00000000  0.00000000  0.84903600  1
  Ba  Ba15  1  0.66666667  0.33333333  0.98429733  1
  Ba  Ba16  1  0.33333333  0.66666667  0.91666667  1
  Ba  Ba17  1  0.00000000  0.00000000  0.75000000  1
  B  B18  1  0.36677800  0.48995100  0.12813100  1
  B  B19  1  0.51004900  0.87682700  0.12813100  1
  B  B20  1  0.12317300  0.63322200  0.12813100  1
  B  B21  1  0.21016033  0.17671567  0.03853567  1
  B  B22  1  0.82328433  0.03344467  0.03853567  1
  B  B23  1  0.96655533  0.78983967  0.03853567  1
  B  B24  1  0.29988867  0.84338233  0.20520233  1
  B  B25  1  0.15661767  0.45650633  0.20520233  1
  B  B26  1  0.54349367  0.70011133  0.20520233  1
  B  B27  1  0.45650633  0.15661767  0.29479767  1
  B  B28  1  0.84338233  0.29988867  0.29479767  1
  B  B29  1  0.70011133  0.54349367  0.29479767  1
  B  B30  1  0.03344467  0.82328433  0.46146433  1
  B  B31  1  0.17671567  0.21016033  0.46146433  1
  B  B32  1  0.78983967  0.96655533  0.46146433  1
  B  B33  1  0.87682700  0.51004900  0.37186900  1
  B  B34  1  0.48995100  0.36677800  0.37186900  1
  B  B35  1  0.63322200  0.12317300  0.37186900  1
  B  B36  1  0.96655533  0.17671567  0.53853567  1
  B  B37  1  0.82328433  0.78983967  0.53853567  1
  B  B38  1  0.21016033  0.03344467  0.53853567  1
  B  B39  1  0.12317300  0.48995100  0.62813100  1
  B  B40  1  0.51004900  0.63322200  0.62813100  1
  B  B41  1  0.36677800  0.87682700  0.62813100  1
  B  B42  1  0.70011133  0.15661767  0.79479767  1
  B  B43  1  0.84338233  0.54349367  0.79479767  1
  B  B44  1  0.45650633  0.29988867  0.79479767  1
  B  B45  1  0.54349367  0.84338233  0.70520233  1
  B  B46  1  0.15661767  0.70011133  0.70520233  1
  B  B47  1  0.29988867  0.45650633  0.70520233  1
  B  B48  1  0.63322200  0.51004900  0.87186900  1
  B  B49  1  0.48995100  0.12317300  0.87186900  1
  B  B50  1  0.87682700  0.36677800  0.87186900  1
  B  B51  1  0.78983967  0.82328433  0.96146433  1
  B  B52  1  0.17671567  0.96655533  0.96146433  1
  B  B53  1  0.03344467  0.21016033  0.96146433  1
  O  O54  1  0.16150333  0.46256867  0.12703167  1
  O  O55  1  0.53743133  0.69893467  0.12703167  1
  O  O56  1  0.30106533  0.83849667  0.12703167  1
  O  O57  1  0.03226800  0.20409800  0.03963500  1
  O  O58  1  0.79590200  0.82817000  0.03963500  1
  O  O59  1  0.17183000  0.96773200  0.03963500  1
  O  O60  1  0.50516333  0.87076467  0.20630167  1
  O  O61  1  0.12923533  0.63439867  0.20630167  1
  O  O62  1  0.36560133  0.49483667  0.20630167  1
  O  O63  1  0.63439867  0.12923533  0.29369833  1
  O  O64  1  0.87076467  0.50516333  0.29369833  1
  O  O65  1  0.49483667  0.36560133  0.29369833  1
  O  O66  1  0.92948133  0.60577467  0.13040867  1
  O  O67  1  0.39422533  0.32370667  0.13040867  1
  O  O68  1  0.67629333  0.07051867  0.13040867  1
  O  O69  1  0.65704000  0.06089200  0.03625800  1
  O  O70  1  0.93910800  0.59614800  0.03625800  1
  O  O71  1  0.40385200  0.34296000  0.03625800  1
  O  O72  1  0.73718533  0.72755867  0.20292467  1
  O  O73  1  0.27244133  0.00962667  0.20292467  1
  O  O74  1  0.99037333  0.26281467  0.20292467  1
  O  O75  1  0.00962667  0.27244133  0.29707533  1
  O  O76  1  0.72755867  0.73718533  0.29707533  1
  O  O77  1  0.26281467  0.99037333  0.29707533  1
  O  O78  1  0.82817000  0.79590200  0.46036500  1
  O  O79  1  0.20409800  0.03226800  0.46036500  1
  O  O80  1  0.96773200  0.17183000  0.46036500  1
  O  O81  1  0.69893467  0.53743133  0.37296833  1
  O  O82  1  0.46256867  0.16150333  0.37296833  1
  O  O83  1  0.83849667  0.30106533  0.37296833  1
  O  O84  1  0.17183000  0.20409800  0.53963500  1
  O  O85  1  0.79590200  0.96773200  0.53963500  1
  O  O86  1  0.03226800  0.82817000  0.53963500  1
  O  O87  1  0.30106533  0.46256867  0.62703167  1
  O  O88  1  0.53743133  0.83849667  0.62703167  1
  O  O89  1  0.16150333  0.69893467  0.62703167  1
  O  O90  1  0.59614800  0.93910800  0.46374200  1
  O  O91  1  0.06089200  0.65704000  0.46374200  1
  O  O92  1  0.34296000  0.40385200  0.46374200  1
  O  O93  1  0.32370667  0.39422533  0.36959133  1
  O  O94  1  0.60577467  0.92948133  0.36959133  1
  O  O95  1  0.07051867  0.67629333  0.36959133  1
  O  O96  1  0.40385200  0.06089200  0.53625800  1
  O  O97  1  0.93910800  0.34296000  0.53625800  1
  O  O98  1  0.65704000  0.59614800  0.53625800  1
  O  O99  1  0.67629333  0.60577467  0.63040867  1
  O  O100  1  0.39422533  0.07051867  0.63040867  1
  O  O101  1  0.92948133  0.32370667  0.63040867  1
  O  O102  1  0.49483667  0.12923533  0.79369833  1
  O  O103  1  0.87076467  0.36560133  0.79369833  1
  O  O104  1  0.63439867  0.50516333  0.79369833  1
  O  O105  1  0.36560133  0.87076467  0.70630167  1
  O  O106  1  0.12923533  0.49483667  0.70630167  1
  O  O107  1  0.50516333  0.63439867  0.70630167  1
  O  O108  1  0.83849667  0.53743133  0.87296833  1
  O  O109  1  0.46256867  0.30106533  0.87296833  1
  O  O110  1  0.69893467  0.16150333  0.87296833  1
  O  O111  1  0.96773200  0.79590200  0.96036500  1
  O  O112  1  0.20409800  0.17183000  0.96036500  1
  O  O113  1  0.82817000  0.03226800  0.96036500  1
  O  O114  1  0.26281467  0.27244133  0.79707533  1
  O  O115  1  0.72755867  0.99037333  0.79707533  1
  O  O116  1  0.00962667  0.73718533  0.79707533  1
  O  O117  1  0.99037333  0.72755867  0.70292467  1
  O  O118  1  0.27244133  0.26281467  0.70292467  1
  O  O119  1  0.73718533  0.00962667  0.70292467  1
  O  O120  1  0.07051867  0.39422533  0.86959133  1
  O  O121  1  0.60577467  0.67629333  0.86959133  1
  O  O122  1  0.32370667  0.92948133  0.86959133  1
  O  O123  1  0.34296000  0.93910800  0.96374200  1
  O  O124  1  0.06089200  0.40385200  0.96374200  1
  O  O125  1  0.59614800  0.65704000  0.96374200  1
