# generated using pymatgen
data_LaP5Cl18O17
_symmetry_space_group_name_H-M   'P 1'
_cell_length_a   10.41995700
_cell_length_b   18.00634400
_cell_length_c   10.60773086
_cell_angle_alpha   90.00000000
_cell_angle_beta   90.07813016
_cell_angle_gamma   90.00000000
_symmetry_Int_Tables_number   1
_chemical_formula_structural   LaP5Cl18O17
_chemical_formula_sum   'La2 P10 Cl36 O34'
_cell_volume   1990.27715537
_cell_formula_units_Z   2
loop_
 _symmetry_equiv_pos_site_id
 _symmetry_equiv_pos_as_xyz
  1  'x, y, z'
loop_
 _atom_site_type_symbol
 _atom_site_label
 _atom_site_symmetry_multiplicity
 _atom_site_fract_x
 _atom_site_fract_y
 _atom_site_fract_z
 _atom_site_occupancy
  La  La0  1  0.78063400  0.75178100  0.28972100  1
  La  La1  1  0.21936600  0.25178100  0.71027900  1
  P  P2  1  0.11599400  0.79839700  0.45589100  1
  P  P3  1  0.39500800  0.09697700  0.90957300  1
  P  P4  1  0.00088300  0.77087500  0.98331700  1
  P  P5  1  0.60499200  0.59697700  0.09042700  1
  P  P6  1  0.16987700  0.47856400  0.73077900  1
  P  P7  1  0.99911700  0.27087500  0.01668300  1
  P  P8  1  0.37069200  0.35948100  0.40852900  1
  P  P9  1  0.83012300  0.97856400  0.26922100  1
  P  P10  1  0.88400600  0.29839700  0.54410900  1
  P  P11  1  0.62930800  0.85948100  0.59147100  1
  Cl  Cl12  1  0.83628100  0.01076900  0.09010100  1
  Cl  Cl13  1  0.24325800  0.42935400  0.33328400  1
  Cl  Cl14  1  0.90350000  0.71497700  0.85264000  1
  Cl  Cl15  1  0.68116700  0.03381900  0.34176600  1
  Cl  Cl16  1  0.12459800  0.88555300  0.57081300  1
  Cl  Cl17  1  0.75674200  0.92935400  0.66671600  1
  Cl  Cl18  1  0.87540200  0.38555300  0.42918700  1
  Cl  Cl19  1  0.55204500  0.82768300  0.11790200  1
  Cl  Cl20  1  0.31883300  0.53381900  0.65823400  1
  Cl  Cl21  1  0.59065600  0.59323500  0.90331900  1
  Cl  Cl22  1  0.56154000  0.80111800  0.73617700  1
  Cl  Cl23  1  0.67236700  0.49775300  0.14124200  1
  Cl  Cl24  1  0.18019300  0.73301400  0.97529600  1
  Cl  Cl25  1  0.51762000  0.42310900  0.46226900  1
  Cl  Cl26  1  0.42557300  0.59986500  0.15484600  1
  Cl  Cl27  1  0.40934400  0.09323500  0.09668100  1
  Cl  Cl28  1  0.98736300  0.08903200  0.76978300  1
  Cl  Cl29  1  0.43846000  0.30111800  0.26382300  1
  Cl  Cl30  1  0.48238000  0.92310900  0.53773100  1
  Cl  Cl31  1  0.81980700  0.23301400  0.02470400  1
  Cl  Cl32  1  0.01521600  0.52422600  0.65135500  1
  Cl  Cl33  1  0.01263700  0.58903200  0.23021700  1
  Cl  Cl34  1  0.57442700  0.09986500  0.84515400  1
  Cl  Cl35  1  0.76409500  0.32116200  0.68450300  1
  Cl  Cl36  1  0.98667100  0.37409700  0.08473900  1
  Cl  Cl37  1  0.09650000  0.21497700  0.14736000  1
  Cl  Cl38  1  0.68739400  0.62253200  0.52873900  1
  Cl  Cl39  1  0.44795500  0.32768300  0.88209800  1
  Cl  Cl40  1  0.31260600  0.12253200  0.47126100  1
  Cl  Cl41  1  0.80128600  0.21547700  0.44947400  1
  Cl  Cl42  1  0.16371900  0.51076900  0.90989900  1
  Cl  Cl43  1  0.23590500  0.82116200  0.31549700  1
  Cl  Cl44  1  0.19871400  0.71547700  0.55052600  1
  Cl  Cl45  1  0.01332900  0.87409700  0.91526100  1
  Cl  Cl46  1  0.32763300  0.99775300  0.85875800  1
  Cl  Cl47  1  0.98478400  0.02422600  0.34864500  1
  O  O48  1  0.68571000  0.65967800  0.13365000  1
  O  O49  1  0.01658800  0.28199800  0.58578200  1
  O  O50  1  0.47039400  0.78507300  0.03492900  1
  O  O51  1  0.14143200  0.61432000  0.26016300  1
  O  O52  1  0.57878400  0.63029600  0.61319700  1
  O  O53  1  0.31429000  0.15967800  0.86635000  1
  O  O54  1  0.17662400  0.39721200  0.71249400  1
  O  O55  1  0.82337600  0.89721200  0.28750600  1
  O  O56  1  0.35114700  0.15339700  0.59781500  1
  O  O57  1  0.45360700  0.29623700  0.75148600  1
  O  O58  1  0.31545700  0.31408800  0.51120500  1
  O  O59  1  0.98341200  0.78199800  0.41421800  1
  O  O60  1  0.48484900  0.40477500  0.87984400  1
  O  O61  1  0.64885300  0.65339700  0.40218500  1
  O  O62  1  0.42121600  0.13029600  0.38680300  1
  O  O63  1  0.27854800  0.04507700  0.48665900  1
  O  O64  1  0.52960600  0.28507300  0.96507100  1
  O  O65  1  0.01186800  0.09333500  0.90444200  1
  O  O66  1  0.20285900  0.16572600  0.42734400  1
  O  O67  1  0.85856800  0.11432000  0.73983700  1
  O  O68  1  0.54639300  0.79623700  0.24851400  1
  O  O69  1  0.79714100  0.66572600  0.57265600  1
  O  O70  1  0.31134100  0.31972700  0.91954600  1
  O  O71  1  0.72145200  0.54507700  0.51334100  1
  O  O72  1  0.08086000  0.13799100  0.70274200  1
  O  O73  1  0.94535100  0.76814900  0.11172200  1
  O  O74  1  0.51515100  0.90477500  0.12015600  1
  O  O75  1  0.98813200  0.59333500  0.09555800  1
  O  O76  1  0.91914000  0.63799100  0.29725800  1
  O  O77  1  0.68865900  0.81972700  0.08045400  1
  O  O78  1  0.05464900  0.26814900  0.88827800  1
  O  O79  1  0.00684900  0.01356900  0.72484800  1
  O  O80  1  0.99315100  0.51356900  0.27515200  1
  O  O81  1  0.68454300  0.81408800  0.48879500  1
