# generated using pymatgen
data_K2Sr(PO3)4
_symmetry_space_group_name_H-M   'P 1'
_cell_length_a   7.56635000
_cell_length_b   7.56635000
_cell_length_c   10.29811400
_cell_angle_alpha   90.00000000
_cell_angle_beta   90.00000000
_cell_angle_gamma   90.00000000
_symmetry_Int_Tables_number   1
_chemical_formula_structural   K2Sr(PO3)4
_chemical_formula_sum   'K4 Sr2 P8 O24'
_cell_volume   589.56344608
_cell_formula_units_Z   2
loop_
 _symmetry_equiv_pos_site_id
 _symmetry_equiv_pos_as_xyz
  1  'x, y, z'
loop_
 _atom_site_type_symbol
 _atom_site_label
 _atom_site_symmetry_multiplicity
 _atom_site_fract_x
 _atom_site_fract_y
 _atom_site_fract_z
 _atom_site_occupancy
  K  K0  1  0.00000000  0.00000000  0.32589600  1
  K  K1  1  0.00000000  0.00000000  0.67410400  1
  K  K2  1  0.50000000  0.50000000  0.82589600  1
  K  K3  1  0.50000000  0.50000000  0.17410400  1
  Sr  Sr4  1  0.50000000  0.00000000  0.25000000  1
  Sr  Sr5  1  0.00000000  0.50000000  0.75000000  1
  P  P6  1  0.34254600  0.28190500  0.53289200  1
  P  P7  1  0.78190500  0.15745400  0.96710800  1
  P  P8  1  0.71809500  0.34254600  0.46710800  1
  P  P9  1  0.15745400  0.21809500  0.03289200  1
  P  P10  1  0.84254600  0.78190500  0.03289200  1
  P  P11  1  0.28190500  0.65745400  0.46710800  1
  P  P12  1  0.21809500  0.84254600  0.96710800  1
  P  P13  1  0.65745400  0.71809500  0.53289200  1
  O  O14  1  0.69403450  0.55268850  0.43469450  1
  O  O15  1  0.30596550  0.44731150  0.43469450  1
  O  O16  1  0.94731150  0.19403450  0.06530550  1
  O  O17  1  0.88289450  0.31039950  0.54368450  1
  O  O18  1  0.61710550  0.18960050  0.04368450  1
  O  O19  1  0.25212050  0.31035150  0.66113550  1
  O  O20  1  0.24787950  0.18964850  0.16113550  1
  O  O21  1  0.31035150  0.74787950  0.33886450  1
  O  O22  1  0.31039950  0.11710550  0.45631550  1
  O  O23  1  0.18964850  0.75212050  0.83886450  1
  O  O24  1  0.05268850  0.80596550  0.06530550  1
  O  O25  1  0.18960050  0.38289450  0.95631550  1
  O  O26  1  0.19403450  0.05268850  0.93469450  1
  O  O27  1  0.80596550  0.94731150  0.93469450  1
  O  O28  1  0.44731150  0.69403450  0.56530550  1
  O  O29  1  0.38289450  0.81039950  0.04368450  1
  O  O30  1  0.11710550  0.68960050  0.54368450  1
  O  O31  1  0.75212050  0.81035150  0.16113550  1
  O  O32  1  0.74787950  0.68964850  0.66113550  1
  O  O33  1  0.81035150  0.24787950  0.83886450  1
  O  O34  1  0.81039950  0.61710550  0.95631550  1
  O  O35  1  0.68964850  0.25212050  0.33886450  1
  O  O36  1  0.55268850  0.30596550  0.56530550  1
  O  O37  1  0.68960050  0.88289450  0.45631550  1
