# generated using pymatgen
data_Sb4RuC6(O3F11)2
_symmetry_space_group_name_H-M   'P 1'
_cell_length_a   9.99189100
_cell_length_b   12.78376800
_cell_length_c   11.81301542
_cell_angle_alpha   90.00000000
_cell_angle_beta   121.45962847
_cell_angle_gamma   90.00000000
_symmetry_Int_Tables_number   1
_chemical_formula_structural   Sb4RuC6(O3F11)2
_chemical_formula_sum   'Sb8 Ru2 C12 O12 F44'
_cell_volume   1287.12433444
_cell_formula_units_Z   2
loop_
 _symmetry_equiv_pos_site_id
 _symmetry_equiv_pos_as_xyz
  1  'x, y, z'
loop_
 _atom_site_type_symbol
 _atom_site_label
 _atom_site_symmetry_multiplicity
 _atom_site_fract_x
 _atom_site_fract_y
 _atom_site_fract_z
 _atom_site_occupancy
  Sb  Sb0  1  0.60016700  0.70021500  0.00351100  1
  Sb  Sb1  1  0.39983300  0.20021500  0.49648900  1
  Sb  Sb2  1  0.24125000  0.86837800  0.72652600  1
  Sb  Sb3  1  0.75875000  0.36837800  0.77347400  1
  Sb  Sb4  1  0.60016700  0.79978500  0.50351100  1
  Sb  Sb5  1  0.24125000  0.63162200  0.22652600  1
  Sb  Sb6  1  0.75875000  0.13162200  0.27347400  1
  Sb  Sb7  1  0.39983300  0.29978500  0.99648900  1
  Ru  Ru8  1  0.00000000  0.00000000  0.00000000  1
  Ru  Ru9  1  0.00000000  0.50000000  0.50000000  1
  C  C10  1  0.76955700  0.47691400  0.42621100  1
  C  C11  1  0.97014600  0.44668500  0.32754500  1
  C  C12  1  0.95003500  0.85331300  0.92645200  1
  C  C13  1  0.23044300  0.52308600  0.57378900  1
  C  C14  1  0.04996500  0.35331300  0.57354800  1
  C  C15  1  0.02985400  0.55331500  0.67245500  1
  C  C16  1  0.95003500  0.64668700  0.42645200  1
  C  C17  1  0.23044300  0.97691400  0.07378900  1
  C  C18  1  0.02985400  0.94668500  0.17245500  1
  C  C19  1  0.76955700  0.02308600  0.92621100  1
  C  C20  1  0.97014600  0.05331500  0.82754500  1
  C  C21  1  0.04996500  0.14668700  0.07354800  1
  O  O22  1  0.08206400  0.22883600  0.11611400  1
  O  O23  1  0.91793600  0.72883600  0.38388600  1
  O  O24  1  0.08206400  0.27116400  0.61611400  1
  O  O25  1  0.36154800  0.96651400  0.11862300  1
  O  O26  1  0.36154800  0.53348600  0.61862300  1
  O  O27  1  0.04788300  0.58319600  0.77000700  1
  O  O28  1  0.91793600  0.77116400  0.88388600  1
  O  O29  1  0.95211700  0.41680400  0.22999300  1
  O  O30  1  0.63845200  0.46651400  0.38137700  1
  O  O31  1  0.95211700  0.08319600  0.72999300  1
  O  O32  1  0.63845200  0.03348600  0.88137700  1
  O  O33  1  0.04788300  0.91680400  0.27000700  1
  F  F34  1  0.46513700  0.26620800  0.38995900  1
  F  F35  1  0.70240300  0.00443600  0.17568800  1
  F  F36  1  0.58227300  0.38480300  0.07933000  1
  F  F37  1  0.53598900  0.31579700  0.63706000  1
  F  F38  1  0.79426700  0.27008200  0.34743800  1
  F  F39  1  0.03450900  0.91080000  0.59875500  1
  F  F40  1  0.20573300  0.72991800  0.65256200  1
  F  F41  1  0.34827400  0.34750800  0.12060200  1
  F  F42  1  0.53598900  0.18420300  0.13706000  1
  F  F43  1  0.03450900  0.58920000  0.09875500  1
  F  F44  1  0.82169000  0.31821800  0.65518100  1
  F  F45  1  0.73121200  0.60393000  0.14062000  1
  F  F46  1  0.20573300  0.77008200  0.15256200  1
  F  F47  1  0.66836100  0.08896600  0.37190200  1
  F  F48  1  0.76379300  0.69740100  0.55879600  1
  F  F49  1  0.82169000  0.18178200  0.15518100  1
  F  F50  1  0.73121200  0.89607000  0.64062000  1
  F  F51  1  0.96549100  0.08920000  0.40124500  1
  F  F52  1  0.41772700  0.88480300  0.42067000  1
  F  F53  1  0.58227300  0.11519700  0.57933000  1
  F  F54  1  0.46401100  0.81579700  0.86294000  1
  F  F55  1  0.23620700  0.19740100  0.94120400  1
  F  F56  1  0.70240300  0.49556400  0.67568800  1
  F  F57  1  0.29759700  0.50443600  0.32431200  1
  F  F58  1  0.17831000  0.68178200  0.34481900  1
  F  F59  1  0.46513700  0.23379200  0.88995900  1
  F  F60  1  0.33163900  0.58896600  0.12809800  1
  F  F61  1  0.79426700  0.22991800  0.84743800  1
  F  F62  1  0.76379300  0.80259900  0.05879600  1
  F  F63  1  0.66836100  0.41103400  0.87190200  1
  F  F64  1  0.65172600  0.84750800  0.37939800  1
  F  F65  1  0.53486300  0.76620800  0.11004100  1
  F  F66  1  0.29759700  0.99556400  0.82431200  1
  F  F67  1  0.96549100  0.41080000  0.90124500  1
  F  F68  1  0.23620700  0.30259900  0.44120400  1
  F  F69  1  0.46401100  0.68420300  0.36294000  1
  F  F70  1  0.33163900  0.91103400  0.62809800  1
  F  F71  1  0.26878800  0.39607000  0.85938000  1
  F  F72  1  0.53486300  0.73379200  0.61004100  1
  F  F73  1  0.17831000  0.81821800  0.84481900  1
  F  F74  1  0.26878800  0.10393000  0.35938000  1
  F  F75  1  0.65172600  0.65249200  0.87939800  1
  F  F76  1  0.41772700  0.61519700  0.92067000  1
  F  F77  1  0.34827400  0.15249200  0.62060200  1
