# generated using pymatgen
data_Sm3Si2S8I
_symmetry_space_group_name_H-M   'P 1'
_cell_length_a   15.90130200
_cell_length_b   7.78922000
_cell_length_c   10.80343671
_cell_angle_alpha   90.00000000
_cell_angle_beta   98.40395775
_cell_angle_gamma   90.00000000
_symmetry_Int_Tables_number   1
_chemical_formula_structural   Sm3Si2S8I
_chemical_formula_sum   'Sm12 Si8 S32 I4'
_cell_volume   1323.73185670
_cell_formula_units_Z   4
loop_
 _symmetry_equiv_pos_site_id
 _symmetry_equiv_pos_as_xyz
  1  'x, y, z'
loop_
 _atom_site_type_symbol
 _atom_site_label
 _atom_site_symmetry_multiplicity
 _atom_site_fract_x
 _atom_site_fract_y
 _atom_site_fract_z
 _atom_site_occupancy
  Sm  Sm0  1  0.69999850  0.62403650  0.18140000  1
  Sm  Sm1  1  0.80000150  0.87596350  0.81860000  1
  Sm  Sm2  1  0.69999850  0.37596350  0.68140000  1
  Sm  Sm3  1  0.00000000  0.60326000  0.25000000  1
  Sm  Sm4  1  0.80000150  0.12403650  0.31860000  1
  Sm  Sm5  1  0.00000000  0.39674000  0.75000000  1
  Sm  Sm6  1  0.19999850  0.12403650  0.18140000  1
  Sm  Sm7  1  0.30000150  0.37596350  0.81860000  1
  Sm  Sm8  1  0.19999850  0.87596350  0.68140000  1
  Sm  Sm9  1  0.50000000  0.10326000  0.25000000  1
  Sm  Sm10  1  0.30000150  0.62403650  0.31860000  1
  Sm  Sm11  1  0.50000000  0.89674000  0.75000000  1
  Si  Si12  1  0.84082050  0.53739950  0.47228600  1
  Si  Si13  1  0.65917950  0.03739950  0.02771400  1
  Si  Si14  1  0.84082050  0.46260050  0.97228600  1
  Si  Si15  1  0.65917950  0.96260050  0.52771400  1
  Si  Si16  1  0.34082050  0.03739950  0.47228600  1
  Si  Si17  1  0.15917950  0.53739950  0.02771400  1
  Si  Si18  1  0.34082050  0.96260050  0.97228600  1
  Si  Si19  1  0.15917950  0.46260050  0.52771400  1
  S  S20  1  0.85585150  0.25195350  0.85302100  1
  S  S21  1  0.85134600  0.40184600  0.16566800  1
  S  S22  1  0.71758350  0.56885050  0.91379200  1
  S  S23  1  0.64865400  0.90184600  0.33433200  1
  S  S24  1  0.64414850  0.24804650  0.14697900  1
  S  S25  1  0.78241650  0.93114950  0.08620800  1
  S  S26  1  0.85585150  0.74804650  0.35302100  1
  S  S27  1  0.64865400  0.09815400  0.83433200  1
  S  S28  1  0.78241650  0.06885050  0.58620800  1
  S  S29  1  0.71758350  0.43114950  0.41379200  1
  S  S30  1  0.93216700  0.34217700  0.46002700  1
  S  S31  1  0.56783300  0.15782300  0.53997300  1
  S  S32  1  0.85134600  0.59815400  0.66566800  1
  S  S33  1  0.64414850  0.75195350  0.64697900  1
  S  S34  1  0.56783300  0.84217700  0.03997300  1
  S  S35  1  0.93216700  0.65782300  0.96002700  1
  S  S36  1  0.35585150  0.75195350  0.85302100  1
  S  S37  1  0.35134600  0.90184600  0.16566800  1
  S  S38  1  0.21758350  0.06885050  0.91379200  1
  S  S39  1  0.14865400  0.40184600  0.33433200  1
  S  S40  1  0.14414850  0.74804650  0.14697900  1
  S  S41  1  0.28241650  0.43114950  0.08620800  1
  S  S42  1  0.35585150  0.24804650  0.35302100  1
  S  S43  1  0.14865400  0.59815400  0.83433200  1
  S  S44  1  0.28241650  0.56885050  0.58620800  1
  S  S45  1  0.21758350  0.93114950  0.41379200  1
  S  S46  1  0.43216700  0.84217700  0.46002700  1
  S  S47  1  0.06783300  0.65782300  0.53997300  1
  S  S48  1  0.35134600  0.09815400  0.66566800  1
  S  S49  1  0.14414850  0.25195350  0.64697900  1
  S  S50  1  0.06783300  0.34217700  0.03997300  1
  S  S51  1  0.43216700  0.15782300  0.96002700  1
  I  I52  1  0.00000000  0.01513800  0.25000000  1
  I  I53  1  0.00000000  0.98486200  0.75000000  1
  I  I54  1  0.50000000  0.51513800  0.25000000  1
  I  I55  1  0.50000000  0.48486200  0.75000000  1
