# generated using pymatgen
data_P2O5
_symmetry_space_group_name_H-M   'P 1'
_cell_length_a   10.75223790
_cell_length_b   10.75223790
_cell_length_c   13.94203552
_cell_angle_alpha   90.00000000
_cell_angle_beta   90.00000000
_cell_angle_gamma   120.00000000
_symmetry_Int_Tables_number   1
_chemical_formula_structural   P2O5
_chemical_formula_sum   'P24 O60'
_cell_volume   1395.90076775
_cell_formula_units_Z   12
loop_
 _symmetry_equiv_pos_site_id
 _symmetry_equiv_pos_as_xyz
  1  'x, y, z'
loop_
 _atom_site_type_symbol
 _atom_site_label
 _atom_site_symmetry_multiplicity
 _atom_site_fract_x
 _atom_site_fract_y
 _atom_site_fract_z
 _atom_site_occupancy
  P  P0  1  0.33333333  0.66666667  0.54131167  1
  P  P1  1  0.33333333  0.66666667  0.04131167  1
  P  P2  1  0.34924167  0.52284333  0.20734533  1
  P  P3  1  0.47715667  0.82639833  0.20734533  1
  P  P4  1  0.17360167  0.65075833  0.20734533  1
  P  P5  1  0.01590833  0.15973167  0.04067867  1
  P  P6  1  0.84026833  0.85617667  0.04067867  1
  P  P7  1  0.14382333  0.98409167  0.04067867  1
  P  P8  1  0.00000000  0.00000000  0.87464500  1
  P  P9  1  0.00000000  0.00000000  0.37464500  1
  P  P10  1  0.01590833  0.85617667  0.54067867  1
  P  P11  1  0.14382333  0.15973167  0.54067867  1
  P  P12  1  0.84026833  0.98409167  0.54067867  1
  P  P13  1  0.68257500  0.49306500  0.37401200  1
  P  P14  1  0.50693500  0.18951000  0.37401200  1
  P  P15  1  0.81049000  0.31742500  0.37401200  1
  P  P16  1  0.66666667  0.33333333  0.20797833  1
  P  P17  1  0.66666667  0.33333333  0.70797833  1
  P  P18  1  0.68257500  0.18951000  0.87401200  1
  P  P19  1  0.81049000  0.49306500  0.87401200  1
  P  P20  1  0.50693500  0.31742500  0.87401200  1
  P  P21  1  0.34924167  0.82639833  0.70734533  1
  P  P22  1  0.17360167  0.52284333  0.70734533  1
  P  P23  1  0.47715667  0.65075833  0.70734533  1
  O  O24  1  0.33333333  0.66666667  0.43734467  1
  O  O25  1  0.33333333  0.66666667  0.93734467  1
  O  O26  1  0.79364700  0.31709700  0.25835400  1
  O  O27  1  0.68290300  0.47655000  0.25835400  1
  O  O28  1  0.52345000  0.20635300  0.25835400  1
  O  O29  1  0.46031367  0.80988333  0.09168733  1
  O  O30  1  0.19011667  0.65043033  0.09168733  1
  O  O31  1  0.34956967  0.53968633  0.09168733  1
  O  O32  1  0.20549100  0.52480600  0.23902500  1
  O  O33  1  0.47519400  0.68068500  0.23902500  1
  O  O34  1  0.31931500  0.79450900  0.23902500  1
  O  O35  1  0.87215767  0.01401833  0.07235833  1
  O  O36  1  0.98598167  0.85813933  0.07235833  1
  O  O37  1  0.14186067  0.12784233  0.07235833  1
  O  O38  1  0.36129667  0.40314033  0.24370233  1
  O  O39  1  0.59685967  0.95815633  0.24370233  1
  O  O40  1  0.04184367  0.63870333  0.24370233  1
  O  O41  1  0.02796333  0.29148967  0.07703567  1
  O  O42  1  0.70851033  0.73647367  0.07703567  1
  O  O43  1  0.26352633  0.97203667  0.07703567  1
  O  O44  1  0.00000000  0.00000000  0.77067800  1
  O  O45  1  0.00000000  0.00000000  0.27067800  1
  O  O46  1  0.46031367  0.65043033  0.59168733  1
  O  O47  1  0.34956967  0.80988333  0.59168733  1
  O  O48  1  0.19011667  0.53968633  0.59168733  1
  O  O49  1  0.12698033  0.14321667  0.42502067  1
  O  O50  1  0.85678333  0.98376367  0.42502067  1
  O  O51  1  0.01623633  0.87301967  0.42502067  1
  O  O52  1  0.87215767  0.85813933  0.57235833  1
  O  O53  1  0.14186067  0.01401833  0.57235833  1
  O  O54  1  0.98598167  0.12784233  0.57235833  1
  O  O55  1  0.53882433  0.34735167  0.40569167  1
  O  O56  1  0.65264833  0.19147267  0.40569167  1
  O  O57  1  0.80852733  0.46117567  0.40569167  1
  O  O58  1  0.02796333  0.73647367  0.57703567  1
  O  O59  1  0.26352633  0.29148967  0.57703567  1
  O  O60  1  0.70851033  0.97203667  0.57703567  1
  O  O61  1  0.69463000  0.62482300  0.41036900  1
  O  O62  1  0.37517700  0.06980700  0.41036900  1
  O  O63  1  0.93019300  0.30537000  0.41036900  1
  O  O64  1  0.66666667  0.33333333  0.10401133  1
  O  O65  1  0.66666667  0.33333333  0.60401133  1
  O  O66  1  0.12698033  0.98376367  0.92502067  1
  O  O67  1  0.01623633  0.14321667  0.92502067  1
  O  O68  1  0.85678333  0.87301967  0.92502067  1
  O  O69  1  0.79364700  0.47655000  0.75835400  1
  O  O70  1  0.52345000  0.31709700  0.75835400  1
  O  O71  1  0.68290300  0.20635300  0.75835400  1
  O  O72  1  0.53882433  0.19147267  0.90569167  1
  O  O73  1  0.80852733  0.34735167  0.90569167  1
  O  O74  1  0.65264833  0.46117567  0.90569167  1
  O  O75  1  0.20549100  0.68068500  0.73902500  1
  O  O76  1  0.31931500  0.52480600  0.73902500  1
  O  O77  1  0.47519400  0.79450900  0.73902500  1
  O  O78  1  0.69463000  0.06980700  0.91036900  1
  O  O79  1  0.93019300  0.62482300  0.91036900  1
  O  O80  1  0.37517700  0.30537000  0.91036900  1
  O  O81  1  0.36129667  0.95815633  0.74370233  1
  O  O82  1  0.04184367  0.40314033  0.74370233  1
  O  O83  1  0.59685967  0.63870333  0.74370233  1
