# generated using pymatgen
data_Sb2(KrF4)5
_symmetry_space_group_name_H-M   'P 1'
_cell_length_a   8.26421100
_cell_length_b   31.79981800
_cell_length_c   8.37953908
_cell_angle_alpha   90.00000000
_cell_angle_beta   111.53332131
_cell_angle_gamma   90.00000000
_symmetry_Int_Tables_number   1
_chemical_formula_structural   Sb2(KrF4)5
_chemical_formula_sum   'Sb8 Kr20 F80'
_cell_volume   2048.44585481
_cell_formula_units_Z   4
loop_
 _symmetry_equiv_pos_site_id
 _symmetry_equiv_pos_as_xyz
  1  'x, y, z'
loop_
 _atom_site_type_symbol
 _atom_site_label
 _atom_site_symmetry_multiplicity
 _atom_site_fract_x
 _atom_site_fract_y
 _atom_site_fract_z
 _atom_site_occupancy
  Sb  Sb0  1  0.21042000  0.42420200  0.55754900  1
  Sb  Sb1  1  0.21042000  0.07579800  0.05754900  1
  Sb  Sb2  1  0.68476300  0.17596400  0.53784400  1
  Sb  Sb3  1  0.31523700  0.67596400  0.96215600  1
  Sb  Sb4  1  0.78958000  0.92420200  0.94245100  1
  Sb  Sb5  1  0.68476300  0.32403600  0.03784400  1
  Sb  Sb6  1  0.31523700  0.82403600  0.46215600  1
  Sb  Sb7  1  0.78958000  0.57579800  0.44245100  1
  Kr  Kr8  1  0.24310100  0.21906400  0.98059600  1
  Kr  Kr9  1  0.75689900  0.78093600  0.01940400  1
  Kr  Kr10  1  0.14427100  0.80495400  0.90559400  1
  Kr  Kr11  1  0.24310100  0.28093600  0.48059600  1
  Kr  Kr12  1  0.75994200  0.03064900  0.51215200  1
  Kr  Kr13  1  0.19612700  0.37611200  0.04434400  1
  Kr  Kr14  1  0.24005800  0.53064900  0.98784800  1
  Kr  Kr15  1  0.75994200  0.46935100  0.01215200  1
  Kr  Kr16  1  0.75689900  0.71906400  0.51940400  1
  Kr  Kr17  1  0.80387300  0.62388800  0.95565600  1
  Kr  Kr18  1  0.14427100  0.69504600  0.40559400  1
  Kr  Kr19  1  0.34104100  0.55880600  0.60404800  1
  Kr  Kr20  1  0.34104100  0.94119400  0.10404800  1
  Kr  Kr21  1  0.85572900  0.30495400  0.59440600  1
  Kr  Kr22  1  0.80387300  0.87611200  0.45565600  1
  Kr  Kr23  1  0.65895900  0.44119400  0.39595200  1
  Kr  Kr24  1  0.19612700  0.12388800  0.54434400  1
  Kr  Kr25  1  0.65895900  0.05880600  0.89595200  1
  Kr  Kr26  1  0.85572900  0.19504600  0.09440600  1
  Kr  Kr27  1  0.24005800  0.96935100  0.48784800  1
  F  F28  1  0.37216600  0.21761700  0.84026200  1
  F  F29  1  0.08780400  0.11931300  0.12679400  1
  F  F30  1  0.53277400  0.67301900  0.15130100  1
  F  F31  1  0.60790100  0.36477900  0.16471400  1
  F  F32  1  0.39643700  0.42265500  0.77697200  1
  F  F33  1  0.59292900  0.22054700  0.63510600  1
  F  F34  1  0.76922700  0.28326500  0.91762900  1
  F  F35  1  0.40707100  0.77945300  0.36489400  1
  F  F36  1  0.60187600  0.47059600  0.15674600  1
  F  F37  1  0.39643700  0.07734500  0.27697200  1
  F  F38  1  0.70045300  0.08365000  0.10647000  1
  F  F39  1  0.60356300  0.57734500  0.22302800  1
  F  F40  1  0.90222700  0.77648500  0.86180700  1
  F  F41  1  0.98030600  0.57266800  0.66027800  1
  F  F42  1  0.64430600  0.32927700  0.56699500  1
  F  F43  1  0.62783400  0.78238300  0.15973800  1
  F  F44  1  0.90222700  0.72351500  0.36180700  1
  F  F45  1  0.64430600  0.17072300  0.06699500  1
  F  F46  1  0.66688200  0.53254600  0.51288500  1
  F  F47  1  0.76922700  0.21673500  0.41762900  1
  F  F48  1  0.90114900  0.18079400  0.73202200  1
  F  F49  1  0.23077300  0.78326500  0.58237100  1
  F  F50  1  0.86543200  0.68180500  0.01980600  1
  F  F51  1  0.60356300  0.92265500  0.72302800  1
  F  F52  1  0.13456800  0.18180500  0.48019400  1
  F  F53  1  0.68067200  0.61788600  0.53383600  1
  F  F54  1  0.23077300  0.71673500  0.08237100  1
  F  F55  1  0.01969400  0.42733200  0.33972200  1
  F  F56  1  0.29954700  0.58365000  0.39353000  1
  F  F57  1  0.09885100  0.81920600  0.26797800  1
  F  F58  1  0.33311800  0.46745400  0.48711500  1
  F  F59  1  0.10941500  0.52993200  0.12685700  1
  F  F60  1  0.46722600  0.17301900  0.34869900  1
  F  F61  1  0.35569400  0.67072300  0.43300500  1
  F  F62  1  0.74130200  0.93398900  0.39032900  1
  F  F63  1  0.91219600  0.61931300  0.37320600  1
  F  F64  1  0.09777300  0.27648500  0.63819300  1
  F  F65  1  0.98030600  0.92733200  0.16027800  1
  F  F66  1  0.86543200  0.81819500  0.51980600  1
  F  F67  1  0.78058000  0.13127000  0.44562500  1
  F  F68  1  0.53277400  0.82698100  0.65130100  1
  F  F69  1  0.33311800  0.03254600  0.98711500  1
  F  F70  1  0.25869800  0.43398900  0.10967100  1
  F  F71  1  0.21942000  0.63127000  0.05437500  1
  F  F72  1  0.78058000  0.36873000  0.94562500  1
  F  F73  1  0.01969400  0.07266800  0.83972200  1
  F  F74  1  0.21942000  0.86873000  0.55437500  1
  F  F75  1  0.60187600  0.02940400  0.65674600  1
  F  F76  1  0.09885100  0.68079400  0.76797800  1
  F  F77  1  0.09636600  0.03388500  0.14499200  1
  F  F78  1  0.25869800  0.06601100  0.60967100  1
  F  F79  1  0.39209900  0.86477900  0.33528600  1
  F  F80  1  0.39812400  0.97059600  0.34325400  1
  F  F81  1  0.35569400  0.82927700  0.93300500  1
  F  F82  1  0.09777300  0.22351500  0.13819300  1
  F  F83  1  0.37216600  0.28238300  0.34026200  1
  F  F84  1  0.91219600  0.88068700  0.87320600  1
  F  F85  1  0.39812400  0.52940400  0.84325400  1
  F  F86  1  0.31932800  0.38211400  0.46616400  1
  F  F87  1  0.68067200  0.88211400  0.03383600  1
  F  F88  1  0.66688200  0.96745400  0.01288500  1
  F  F89  1  0.10941500  0.97006800  0.62685700  1
  F  F90  1  0.89058500  0.47006800  0.87314300  1
  F  F91  1  0.74130200  0.56601100  0.89032900  1
  F  F92  1  0.62783400  0.71761700  0.65973800  1
  F  F93  1  0.90363400  0.53388500  0.35500800  1
  F  F94  1  0.90114900  0.31920600  0.23202200  1
  F  F95  1  0.13456800  0.31819500  0.98019400  1
  F  F96  1  0.39209900  0.63522100  0.83528600  1
  F  F97  1  0.08780400  0.38068700  0.62679400  1
  F  F98  1  0.59292900  0.27945300  0.13510600  1
  F  F99  1  0.46722600  0.32698100  0.84869900  1
  F  F100  1  0.60790100  0.13522100  0.66471400  1
  F  F101  1  0.09636600  0.46611500  0.64499200  1
  F  F102  1  0.89058500  0.02993200  0.37314300  1
  F  F103  1  0.29954700  0.91635000  0.89353000  1
  F  F104  1  0.31932800  0.11788600  0.96616400  1
  F  F105  1  0.70045300  0.41635000  0.60647000  1
  F  F106  1  0.90363400  0.96611500  0.85500800  1
  F  F107  1  0.40707100  0.72054700  0.86489400  1
