# generated using pymatgen
data_Ti4P6PbO24
_symmetry_space_group_name_H-M   'P 1'
_cell_length_a   8.44579027
_cell_length_b   8.44579027
_cell_length_c   22.95681061
_cell_angle_alpha   90.00000000
_cell_angle_beta   90.00000000
_cell_angle_gamma   120.00000000
_symmetry_Int_Tables_number   1
_chemical_formula_structural   Ti4P6PbO24
_chemical_formula_sum   'Ti12 P18 Pb3 O72'
_cell_volume   1418.15195484
_cell_formula_units_Z   3
loop_
 _symmetry_equiv_pos_site_id
 _symmetry_equiv_pos_as_xyz
  1  'x, y, z'
loop_
 _atom_site_type_symbol
 _atom_site_label
 _atom_site_symmetry_multiplicity
 _atom_site_fract_x
 _atom_site_fract_y
 _atom_site_fract_z
 _atom_site_occupancy
  Ti  Ti0  1  0.00000000  0.00000000  0.15008900  1
  Ti  Ti1  1  0.66666667  0.33333333  0.18324433  1
  Ti  Ti2  1  0.33333333  0.66666667  0.31214667  1
  Ti  Ti3  1  0.33333333  0.66666667  0.02118667  1
  Ti  Ti4  1  0.66666667  0.33333333  0.48342233  1
  Ti  Ti5  1  0.33333333  0.66666667  0.51657767  1
  Ti  Ti6  1  0.00000000  0.00000000  0.64548000  1
  Ti  Ti7  1  0.00000000  0.00000000  0.35452000  1
  Ti  Ti8  1  0.33333333  0.66666667  0.81675567  1
  Ti  Ti9  1  0.00000000  0.00000000  0.84991100  1
  Ti  Ti10  1  0.66666667  0.33333333  0.97881333  1
  Ti  Ti11  1  0.66666667  0.33333333  0.68785333  1
  P  P12  1  0.28436333  0.28205567  0.25180767  1
  P  P13  1  0.66897433  0.61769667  0.08152567  1
  P  P14  1  0.38230333  0.05127767  0.08152567  1
  P  P15  1  0.99769233  0.71563667  0.25180767  1
  P  P16  1  0.94872233  0.33102567  0.08152567  1
  P  P17  1  0.71794433  0.00230767  0.25180767  1
  P  P18  1  0.95103000  0.61538900  0.58514100  1
  P  P19  1  0.33564100  0.95103000  0.41485900  1
  P  P20  1  0.04897000  0.38461100  0.41485900  1
  P  P21  1  0.66435900  0.04897000  0.58514100  1
  P  P22  1  0.61538900  0.66435900  0.41485900  1
  P  P23  1  0.38461100  0.33564100  0.58514100  1
  P  P24  1  0.61769667  0.94872233  0.91847433  1
  P  P25  1  0.00230767  0.28436333  0.74819233  1
  P  P26  1  0.71563667  0.71794433  0.74819233  1
  P  P27  1  0.33102567  0.38230333  0.91847433  1
  P  P28  1  0.28205567  0.99769233  0.74819233  1
  P  P29  1  0.05127767  0.66897433  0.91847433  1
  Pb  Pb30  1  0.00000000  0.00000000  0.00000000  1
  Pb  Pb31  1  0.66666667  0.33333333  0.33333333  1
  Pb  Pb32  1  0.33333333  0.66666667  0.66666667  1
  O  O33  1  0.81467833  0.82112167  0.09186167  1
  O  O34  1  0.73933133  0.54895767  0.03117367  1
  O  O35  1  0.17887833  0.99355667  0.09186167  1
  O  O36  1  0.54869033  0.81697167  0.26666367  1
  O  O37  1  0.86413433  0.35356267  0.13858467  1
  O  O38  1  0.17723833  0.19746767  0.19474867  1
  O  O39  1  0.00644333  0.18532167  0.09186167  1
  O  O40  1  0.48942833  0.13586567  0.13858467  1
  O  O41  1  0.48778833  0.33977667  0.24147167  1
  O  O42  1  0.21562433  0.14295967  0.30215967  1
  O  O43  1  0.64643733  0.51057167  0.13858467  1
  O  O44  1  0.02022933  0.82276167  0.19474867  1
  O  O45  1  0.39838533  0.88202367  0.06666967  1
  O  O46  1  0.85198833  0.51221167  0.24147167  1
  O  O47  1  0.26828133  0.45130967  0.26666367  1
  O  O48  1  0.80253233  0.97977067  0.19474867  1
  O  O49  1  0.85704033  0.07266467  0.30215967  1
  O  O50  1  0.18302833  0.73171867  0.26666367  1
  O  O51  1  0.48363833  0.60161467  0.06666967  1
  O  O52  1  0.45104233  0.19037367  0.03117367  1
  O  O53  1  0.92733533  0.78437567  0.30215967  1
  O  O54  1  0.66022333  0.14801167  0.24147167  1
  O  O55  1  0.80962633  0.26066867  0.03117367  1
  O  O56  1  0.11797633  0.51636167  0.06666967  1
  O  O57  1  0.48134500  0.15445500  0.42519500  1
  O  O58  1  0.40599800  0.88229100  0.36450700  1
  O  O59  1  0.84554500  0.32689000  0.42519500  1
  O  O60  1  0.21535700  0.15030500  0.59999700  1
  O  O61  1  0.53080100  0.68689600  0.47191800  1
  O  O62  1  0.84390500  0.53080100  0.52808200  1
  O  O63  1  0.67311000  0.51865500  0.42519500  1
  O  O64  1  0.15609500  0.46919900  0.47191800  1
  O  O65  1  0.15445500  0.67311000  0.57480500  1
  O  O66  1  0.88229100  0.47629300  0.63549300  1
  O  O67  1  0.31310400  0.84390500  0.47191800  1
  O  O68  1  0.68689600  0.15609500  0.52808200  1
  O  O69  1  0.06505200  0.21535700  0.40000300  1
  O  O70  1  0.51865500  0.84554500  0.57480500  1
  O  O71  1  0.93494800  0.78464300  0.59999700  1
  O  O72  1  0.46919900  0.31310400  0.52808200  1
  O  O73  1  0.52370700  0.40599800  0.63549300  1
  O  O74  1  0.84969500  0.06505200  0.59999700  1
  O  O75  1  0.15030500  0.93494800  0.40000300  1
  O  O76  1  0.11770900  0.52370700  0.36450700  1
  O  O77  1  0.59400200  0.11770900  0.63549300  1
  O  O78  1  0.32689000  0.48134500  0.57480500  1
  O  O79  1  0.47629300  0.59400200  0.36450700  1
  O  O80  1  0.78464300  0.84969500  0.40000300  1
  O  O81  1  0.14801167  0.48778833  0.75852833  1
  O  O82  1  0.07266467  0.21562433  0.69784033  1
  O  O83  1  0.51221167  0.66022333  0.75852833  1
  O  O84  1  0.88202367  0.48363833  0.93333033  1
  O  O85  1  0.19746767  0.02022933  0.80525133  1
  O  O86  1  0.51057167  0.86413433  0.86141533  1
  O  O87  1  0.33977667  0.85198833  0.75852833  1
  O  O88  1  0.82276167  0.80253233  0.80525133  1
  O  O89  1  0.82112167  0.00644333  0.90813833  1
  O  O90  1  0.54895767  0.80962633  0.96882633  1
  O  O91  1  0.97977067  0.17723833  0.80525133  1
  O  O92  1  0.35356267  0.48942833  0.86141533  1
  O  O93  1  0.73171867  0.54869033  0.73333633  1
  O  O94  1  0.18532167  0.17887833  0.90813833  1
  O  O95  1  0.60161467  0.11797633  0.93333033  1
  O  O96  1  0.13586567  0.64643733  0.86141533  1
  O  O97  1  0.19037367  0.73933133  0.96882633  1
  O  O98  1  0.51636167  0.39838533  0.93333033  1
  O  O99  1  0.81697167  0.26828133  0.73333633  1
  O  O100  1  0.78437567  0.85704033  0.69784033  1
  O  O101  1  0.26066867  0.45104233  0.96882633  1
  O  O102  1  0.99355667  0.81467833  0.90813833  1
  O  O103  1  0.14295967  0.92733533  0.69784033  1
  O  O104  1  0.45130967  0.18302833  0.73333633  1
