# generated using pymatgen
data_NClOF4
_symmetry_space_group_name_H-M   'P 1'
_cell_length_a   6.16281800
_cell_length_b   6.16281800
_cell_length_c   11.00585800
_cell_angle_alpha   90.00000000
_cell_angle_beta   90.00000000
_cell_angle_gamma   90.00000000
_symmetry_Int_Tables_number   1
_chemical_formula_structural   NClOF4
_chemical_formula_sum   'N4 Cl4 O4 F16'
_cell_volume   418.00607146
_cell_formula_units_Z   4
loop_
 _symmetry_equiv_pos_site_id
 _symmetry_equiv_pos_as_xyz
  1  'x, y, z'
loop_
 _atom_site_type_symbol
 _atom_site_label
 _atom_site_symmetry_multiplicity
 _atom_site_fract_x
 _atom_site_fract_y
 _atom_site_fract_z
 _atom_site_occupancy
  N  N0  1  0.00000000  0.00000000  0.32921400  1
  N  N1  1  0.50000000  0.50000000  0.32921400  1
  N  N2  1  0.50000000  0.50000000  0.82921400  1
  N  N3  1  0.00000000  0.00000000  0.82921400  1
  Cl  Cl4  1  0.00000000  0.50000000  0.00005300  1
  Cl  Cl5  1  0.50000000  0.00000000  0.00005300  1
  Cl  Cl6  1  0.50000000  0.00000000  0.50005300  1
  Cl  Cl7  1  0.00000000  0.50000000  0.50005300  1
  O  O8  1  0.50000000  0.50000000  0.22857100  1
  O  O9  1  0.00000000  0.00000000  0.22857100  1
  O  O10  1  0.00000000  0.00000000  0.72857100  1
  O  O11  1  0.50000000  0.50000000  0.72857100  1
  F  F12  1  0.64250800  0.85749200  0.11308800  1
  F  F13  1  0.65652550  0.15652550  0.37824250  1
  F  F14  1  0.35749200  0.14250800  0.11308800  1
  F  F15  1  0.84347450  0.65652550  0.37824250  1
  F  F16  1  0.85749200  0.35749200  0.11308800  1
  F  F17  1  0.15652550  0.34347450  0.37824250  1
  F  F18  1  0.14250800  0.64250800  0.11308800  1
  F  F19  1  0.34347450  0.84347450  0.37824250  1
  F  F20  1  0.14250800  0.35749200  0.61308800  1
  F  F21  1  0.15652550  0.65652550  0.87824250  1
  F  F22  1  0.85749200  0.64250800  0.61308800  1
  F  F23  1  0.34347450  0.15652550  0.87824250  1
  F  F24  1  0.35749200  0.85749200  0.61308800  1
  F  F25  1  0.65652550  0.84347450  0.87824250  1
  F  F26  1  0.64250800  0.14250800  0.61308800  1
  F  F27  1  0.84347450  0.34347450  0.87824250  1
