# generated using pymatgen
data_KZrH2OF5
_symmetry_space_group_name_H-M   'P 1'
_cell_length_a   7.73947200
_cell_length_b   12.36381500
_cell_length_c   11.21428451
_cell_angle_alpha   90.00000000
_cell_angle_beta   98.76778847
_cell_angle_gamma   90.00000000
_symmetry_Int_Tables_number   1
_chemical_formula_structural   KZrH2OF5
_chemical_formula_sum   'K8 Zr8 H16 O8 F40'
_cell_volume   1060.54829865
_cell_formula_units_Z   8
loop_
 _symmetry_equiv_pos_site_id
 _symmetry_equiv_pos_as_xyz
  1  'x, y, z'
loop_
 _atom_site_type_symbol
 _atom_site_label
 _atom_site_symmetry_multiplicity
 _atom_site_fract_x
 _atom_site_fract_y
 _atom_site_fract_z
 _atom_site_occupancy
  K  K0  1  0.20246000  0.03855900  0.14706200  1
  K  K1  1  0.70143700  0.52411500  0.87970900  1
  K  K2  1  0.79754000  0.53855900  0.35293800  1
  K  K3  1  0.79754000  0.96144100  0.85293800  1
  K  K4  1  0.29856300  0.47588500  0.12029100  1
  K  K5  1  0.29856300  0.02411500  0.62029100  1
  K  K6  1  0.20246000  0.46144100  0.64706200  1
  K  K7  1  0.70143700  0.97588500  0.37970900  1
  Zr  Zr8  1  0.02434000  0.26323400  0.87777600  1
  Zr  Zr9  1  0.02434000  0.23676600  0.37777600  1
  Zr  Zr10  1  0.52885100  0.75495000  0.60784000  1
  Zr  Zr11  1  0.97566000  0.73676600  0.12222400  1
  Zr  Zr12  1  0.47114900  0.25495000  0.89216000  1
  Zr  Zr13  1  0.52885100  0.74505000  0.10784000  1
  Zr  Zr14  1  0.97566000  0.76323400  0.62222400  1
  Zr  Zr15  1  0.47114900  0.24505000  0.39216000  1
  H  H16  1  0.74533800  0.14403100  0.04909700  1
  H  H17  1  0.41740000  0.85380000  0.87705700  1
  H  H18  1  0.58260000  0.35380000  0.62294300  1
  H  H19  1  0.24816400  0.66182000  0.79896800  1
  H  H20  1  0.25466200  0.64403100  0.45090300  1
  H  H21  1  0.24816400  0.83818000  0.29896800  1
  H  H22  1  0.92887100  0.34935200  0.14566200  1
  H  H23  1  0.07112900  0.84935200  0.35433800  1
  H  H24  1  0.07112900  0.65064800  0.85433800  1
  H  H25  1  0.74533800  0.35596900  0.54909700  1
  H  H26  1  0.75183600  0.16182000  0.70103200  1
  H  H27  1  0.92887100  0.15064800  0.64566200  1
  H  H28  1  0.58260000  0.14620000  0.12294300  1
  H  H29  1  0.41740000  0.64620000  0.37705700  1
  H  H30  1  0.75183600  0.33818000  0.20103200  1
  H  H31  1  0.25466200  0.85596900  0.95090300  1
  O  O32  1  0.87887400  0.34527000  0.22277500  1
  O  O33  1  0.87887400  0.15473000  0.72277500  1
  O  O34  1  0.61719600  0.14279200  0.04110300  1
  O  O35  1  0.38280400  0.64279200  0.45889700  1
  O  O36  1  0.61719600  0.35720800  0.54110300  1
  O  O37  1  0.12112600  0.84527000  0.27722500  1
  O  O38  1  0.38280400  0.85720800  0.95889700  1
  O  O39  1  0.12112600  0.65473000  0.77722500  1
  F  F40  1  0.06098500  0.61898600  0.24345500  1
  F  F41  1  0.51019100  0.85484300  0.75323000  1
  F  F42  1  0.74820200  0.27549600  0.88583200  1
  F  F43  1  0.74938200  0.62684000  0.11570900  1
  F  F44  1  0.47044100  0.62187400  0.70255400  1
  F  F45  1  0.01375000  0.13954300  0.52549700  1
  F  F46  1  0.71815700  0.79924800  0.00337100  1
  F  F47  1  0.74820200  0.22450400  0.38583200  1
  F  F48  1  0.28184300  0.20075200  0.99662900  1
  F  F49  1  0.03601800  0.62896400  0.52673700  1
  F  F50  1  0.96398200  0.37103600  0.47326300  1
  F  F51  1  0.51019100  0.64515700  0.25323000  1
  F  F52  1  0.44575900  0.63231200  0.97850600  1
  F  F53  1  0.25061800  0.12684000  0.38429100  1
  F  F54  1  0.98625000  0.86045700  0.47450300  1
  F  F55  1  0.98625000  0.63954300  0.97450300  1
  F  F56  1  0.96398200  0.12896400  0.97326300  1
  F  F57  1  0.93901500  0.38101400  0.75654500  1
  F  F58  1  0.71815700  0.70075200  0.50337100  1
  F  F59  1  0.52955900  0.12187400  0.79744600  1
  F  F60  1  0.44575900  0.86768800  0.47850600  1
  F  F61  1  0.55424100  0.36768800  0.02149400  1
  F  F62  1  0.25061800  0.37316000  0.88429100  1
  F  F63  1  0.48980900  0.14515700  0.24677000  1
  F  F64  1  0.47044100  0.87812600  0.20255400  1
  F  F65  1  0.74938200  0.87316000  0.61570900  1
  F  F66  1  0.25179800  0.77549600  0.61416800  1
  F  F67  1  0.21128100  0.29877700  0.27360500  1
  F  F68  1  0.21128100  0.20122300  0.77360500  1
  F  F69  1  0.28184300  0.29924800  0.49662900  1
  F  F70  1  0.93901500  0.11898600  0.25654500  1
  F  F71  1  0.03601800  0.87103600  0.02673700  1
  F  F72  1  0.55424100  0.13231200  0.52149400  1
  F  F73  1  0.52955900  0.37812600  0.29744600  1
  F  F74  1  0.06098500  0.88101400  0.74345500  1
  F  F75  1  0.01375000  0.36045700  0.02549700  1
  F  F76  1  0.78871900  0.79877700  0.22639500  1
  F  F77  1  0.78871900  0.70122300  0.72639500  1
  F  F78  1  0.25179800  0.72450400  0.11416800  1
  F  F79  1  0.48980900  0.35484300  0.74677000  1
