# generated using pymatgen
data_SrZr4(PO4)6
_symmetry_space_group_name_H-M   'P 1'
_cell_length_a   8.85716035
_cell_length_b   8.85716035
_cell_length_c   23.61582451
_cell_angle_alpha   90.00000000
_cell_angle_beta   90.00000000
_cell_angle_gamma   120.00000000
_symmetry_Int_Tables_number   1
_chemical_formula_structural   SrZr4(PO4)6
_chemical_formula_sum   'Sr3 Zr12 P18 O72'
_cell_volume   1604.43733537
_cell_formula_units_Z   3
loop_
 _symmetry_equiv_pos_site_id
 _symmetry_equiv_pos_as_xyz
  1  'x, y, z'
loop_
 _atom_site_type_symbol
 _atom_site_label
 _atom_site_symmetry_multiplicity
 _atom_site_fract_x
 _atom_site_fract_y
 _atom_site_fract_z
 _atom_site_occupancy
  Sr  Sr0  1  0.33333333  0.66666667  0.16666667  1
  Sr  Sr1  1  1.00000000  0.00000000  0.50000000  1
  Sr  Sr2  1  0.66666667  0.33333333  0.83333333  1
  Zr  Zr3  1  0.00000000  0.00000000  0.14383400  1
  Zr  Zr4  1  0.66666667  0.33333333  0.18949933  1
  Zr  Zr5  1  0.33333333  0.66666667  0.31641767  1
  Zr  Zr6  1  0.33333333  0.66666667  0.01691567  1
  Zr  Zr7  1  0.66666667  0.33333333  0.47716733  1
  Zr  Zr8  1  0.33333333  0.66666667  0.52283267  1
  Zr  Zr9  1  0.00000000  0.00000000  0.64975100  1
  Zr  Zr10  1  0.00000000  0.00000000  0.35024900  1
  Zr  Zr11  1  0.33333333  0.66666667  0.81050067  1
  Zr  Zr12  1  0.00000000  0.00000000  0.85616600  1
  Zr  Zr13  1  0.66666667  0.33333333  0.98308433  1
  Zr  Zr14  1  0.66666667  0.33333333  0.68358233  1
  P  P15  1  0.28381500  0.29107100  0.24783700  1
  P  P16  1  0.70892900  0.99274400  0.24783700  1
  P  P17  1  0.00725600  0.71618500  0.24783700  1
  P  P18  1  0.65941067  0.61714833  0.08549633  1
  P  P19  1  0.38285167  0.04226233  0.08549633  1
  P  P20  1  0.95773767  0.34058933  0.08549633  1
  P  P21  1  0.95048167  0.62440433  0.58117033  1
  P  P22  1  0.37559567  0.32607733  0.58117033  1
  P  P23  1  0.67392267  0.04951833  0.58117033  1
  P  P24  1  0.32607733  0.95048167  0.41882967  1
  P  P25  1  0.04951833  0.37559567  0.41882967  1
  P  P26  1  0.62440433  0.67392267  0.41882967  1
  P  P27  1  0.61714833  0.95773767  0.91450367  1
  P  P28  1  0.04226233  0.65941067  0.91450367  1
  P  P29  1  0.34058933  0.38285167  0.91450367  1
  P  P30  1  0.99274400  0.28381500  0.75216300  1
  P  P31  1  0.71618500  0.70892900  0.75216300  1
  P  P32  1  0.29107100  0.00725600  0.75216300  1
  O  O33  1  0.83131567  0.55019233  0.23749633  1
  O  O34  1  0.85799433  0.32887167  0.03043767  1
  O  O35  1  0.78319000  0.94115300  0.19715700  1
  O  O36  1  0.67112833  0.52912267  0.03043767  1
  O  O37  1  0.33293567  0.48547933  0.25452833  1
  O  O38  1  0.99553833  0.80421067  0.30289567  1
  O  O39  1  0.83535100  0.78314100  0.09583700  1
  O  O40  1  0.15796300  0.21681000  0.19715700  1
  O  O41  1  0.15254367  0.66706433  0.25452833  1
  O  O42  1  0.15214600  0.48587700  0.07880500  1
  O  O43  1  0.50870367  0.11652333  0.13617633  1
  O  O44  1  0.33373100  0.84785400  0.07880500  1
  O  O45  1  0.19578933  0.19132767  0.30289567  1
  O  O46  1  0.80867233  0.00446167  0.30289567  1
  O  O47  1  0.47087733  0.14200567  0.03043767  1
  O  O48  1  0.21685900  0.05221000  0.09583700  1
  O  O49  1  0.51452067  0.84745633  0.25452833  1
  O  O50  1  0.60781967  0.49129633  0.13617633  1
  O  O51  1  0.94779000  0.16464900  0.09583700  1
  O  O52  1  0.44980767  0.28112333  0.23749633  1
  O  O53  1  0.51412300  0.66626900  0.07880500  1
  O  O54  1  0.88347667  0.39218033  0.13617633  1
  O  O55  1  0.71887667  0.16868433  0.23749633  1
  O  O56  1  0.05884700  0.84203700  0.19715700  1
  O  O57  1  0.49798233  0.88352567  0.57082967  1
  O  O58  1  0.52466100  0.66220500  0.36377100  1
  O  O59  1  0.44985667  0.27448633  0.53049033  1
  O  O60  1  0.33779500  0.86245600  0.36377100  1
  O  O61  1  0.99960233  0.81881267  0.58786167  1
  O  O62  1  0.66220500  0.13754400  0.63622900  1
  O  O63  1  0.50201767  0.11647433  0.42917033  1
  O  O64  1  0.82462967  0.55014333  0.53049033  1
  O  O65  1  0.81921033  0.00039767  0.58786167  1
  O  O66  1  0.81881267  0.81921033  0.41213833  1
  O  O67  1  0.17537033  0.44985667  0.46950967  1
  O  O68  1  0.00039767  0.18118733  0.41213833  1
  O  O69  1  0.86245600  0.52466100  0.63622900  1
  O  O70  1  0.47533900  0.33779500  0.63622900  1
  O  O71  1  0.13754400  0.47533900  0.36377100  1
  O  O72  1  0.88352567  0.38554333  0.42917033  1
  O  O73  1  0.18118733  0.18078967  0.58786167  1
  O  O74  1  0.27448633  0.82462967  0.46950967  1
  O  O75  1  0.61445667  0.49798233  0.42917033  1
  O  O76  1  0.11647433  0.61445667  0.57082967  1
  O  O77  1  0.18078967  0.99960233  0.41213833  1
  O  O78  1  0.55014333  0.72551367  0.46950967  1
  O  O79  1  0.38554333  0.50201767  0.57082967  1
  O  O80  1  0.72551367  0.17537033  0.53049033  1
  O  O81  1  0.16464900  0.21685900  0.90416300  1
  O  O82  1  0.19132767  0.99553833  0.69710433  1
  O  O83  1  0.11652333  0.60781967  0.86382367  1
  O  O84  1  0.00446167  0.19578933  0.69710433  1
  O  O85  1  0.66626900  0.15214600  0.92119500  1
  O  O86  1  0.32887167  0.47087733  0.96956233  1
  O  O87  1  0.16868433  0.44980767  0.76250367  1
  O  O88  1  0.49129633  0.88347667  0.86382367  1
  O  O89  1  0.48587700  0.33373100  0.92119500  1
  O  O90  1  0.48547933  0.15254367  0.74547167  1
  O  O91  1  0.84203700  0.78319000  0.80284300  1
  O  O92  1  0.66706433  0.51452067  0.74547167  1
  O  O93  1  0.52912267  0.85799433  0.96956233  1
  O  O94  1  0.14200567  0.67112833  0.96956233  1
  O  O95  1  0.80421067  0.80867233  0.69710433  1
  O  O96  1  0.55019233  0.71887667  0.76250367  1
  O  O97  1  0.84785400  0.51412300  0.92119500  1
  O  O98  1  0.94115300  0.15796300  0.80284300  1
  O  O99  1  0.28112333  0.83131567  0.76250367  1
  O  O100  1  0.78314100  0.94779000  0.90416300  1
  O  O101  1  0.84745633  0.33293567  0.74547167  1
  O  O102  1  0.21681000  0.05884700  0.80284300  1
  O  O103  1  0.05221000  0.83535100  0.90416300  1
  O  O104  1  0.39218033  0.50870367  0.86382367  1
