# generated using pymatgen
data_Lu2(CN2)3
_symmetry_space_group_name_H-M   'P 1'
_cell_length_a   6.23472192
_cell_length_b   6.23472192
_cell_length_c   15.00769838
_cell_angle_alpha   90.00000000
_cell_angle_beta   90.00000000
_cell_angle_gamma   120.00000000
_symmetry_Int_Tables_number   1
_chemical_formula_structural   Lu2(CN2)3
_chemical_formula_sum   'Lu6 C9 N18'
_cell_volume   505.21809898
_cell_formula_units_Z   3
loop_
 _symmetry_equiv_pos_site_id
 _symmetry_equiv_pos_as_xyz
  1  'x, y, z'
loop_
 _atom_site_type_symbol
 _atom_site_label
 _atom_site_symmetry_multiplicity
 _atom_site_fract_x
 _atom_site_fract_y
 _atom_site_fract_z
 _atom_site_occupancy
  Lu  Lu0  1  0.33333333  0.66666667  0.83891467  1
  Lu  Lu1  1  0.33333333  0.66666667  0.49441867  1
  Lu  Lu2  1  0.00000000  0.00000000  0.17224800  1
  Lu  Lu3  1  1.00000000  0.00000000  0.82775200  1
  Lu  Lu4  1  0.66666667  0.33333333  0.50558133  1
  Lu  Lu5  1  0.66666667  0.33333333  0.16108533  1
  C  C6  1  0.95611467  0.33333333  0.33333333  1
  C  C7  1  0.00000000  0.28944800  0.00000000  1
  C  C8  1  0.71055200  0.71055200  0.00000000  1
  C  C9  1  0.62278133  0.66666667  0.66666667  1
  C  C10  1  0.66666667  0.62278133  0.33333333  1
  C  C11  1  0.37721867  0.04388533  0.33333333  1
  C  C12  1  0.28944800  0.00000000  0.00000000  1
  C  C13  1  0.33333333  0.95611467  0.66666667  1
  C  C14  1  0.04388533  0.37721867  0.66666667  1
  N  N15  1  0.24300133  0.91429267  0.92403667  1
  N  N16  1  0.42366533  0.00462467  0.40929667  1
  N  N17  1  0.99537533  0.41904067  0.40929667  1
  N  N18  1  0.08570733  0.32870867  0.92403667  1
  N  N19  1  0.58095933  0.57633467  0.40929667  1
  N  N20  1  0.67129133  0.75699867  0.92403667  1
  N  N21  1  0.90966800  0.24762600  0.25737000  1
  N  N22  1  0.09033200  0.33795800  0.74263000  1
  N  N23  1  0.66204200  0.75237400  0.74263000  1
  N  N24  1  0.75237400  0.66204200  0.25737000  1
  N  N25  1  0.24762600  0.90966800  0.74263000  1
  N  N26  1  0.33795800  0.09033200  0.25737000  1
  N  N27  1  0.57633467  0.58095933  0.59070333  1
  N  N28  1  0.75699867  0.67129133  0.07596333  1
  N  N29  1  0.32870867  0.08570733  0.07596333  1
  N  N30  1  0.41904067  0.99537533  0.59070333  1
  N  N31  1  0.91429267  0.24300133  0.07596333  1
  N  N32  1  0.00462467  0.42366533  0.59070333  1
