# generated using pymatgen
data_Cs2SiAs2
_symmetry_space_group_name_H-M   'P 1'
_cell_length_a   6.52214000
_cell_length_b   7.74002200
_cell_length_c   14.70017400
_cell_angle_alpha   90.00000000
_cell_angle_beta   90.00000000
_cell_angle_gamma   90.00000000
_symmetry_Int_Tables_number   1
_chemical_formula_structural   Cs2SiAs2
_chemical_formula_sum   'Cs8 Si4 As8'
_cell_volume   742.08693796
_cell_formula_units_Z   4
loop_
 _symmetry_equiv_pos_site_id
 _symmetry_equiv_pos_as_xyz
  1  'x, y, z'
loop_
 _atom_site_type_symbol
 _atom_site_label
 _atom_site_symmetry_multiplicity
 _atom_site_fract_x
 _atom_site_fract_y
 _atom_site_fract_z
 _atom_site_occupancy
  Cs  Cs0  1  0.50000000  0.83171850  0.14505250  1
  Cs  Cs1  1  0.00000000  0.16828150  0.14505250  1
  Cs  Cs2  1  0.50000000  0.33171850  0.35494750  1
  Cs  Cs3  1  0.00000000  0.66828150  0.35494750  1
  Cs  Cs4  1  0.00000000  0.33171850  0.64505250  1
  Cs  Cs5  1  0.50000000  0.66828150  0.64505250  1
  Cs  Cs6  1  0.00000000  0.83171850  0.85494750  1
  Cs  Cs7  1  0.50000000  0.16828150  0.85494750  1
  Si  Si8  1  0.25000000  0.50000000  0.00000000  1
  Si  Si9  1  0.75000000  0.50000000  0.00000000  1
  Si  Si10  1  0.75000000  0.00000000  0.50000000  1
  Si  Si11  1  0.25000000  0.00000000  0.50000000  1
  As  As12  1  0.50000000  0.34730500  0.09096000  1
  As  As13  1  0.00000000  0.15269500  0.40904000  1
  As  As14  1  0.50000000  0.84730500  0.40904000  1
  As  As15  1  0.00000000  0.65269500  0.09096000  1
  As  As16  1  0.00000000  0.84730500  0.59096000  1
  As  As17  1  0.50000000  0.65269500  0.90904000  1
  As  As18  1  0.00000000  0.34730500  0.90904000  1
  As  As19  1  0.50000000  0.15269500  0.59096000  1
