# generated using pymatgen
data_Na2TiSi4O11
_symmetry_space_group_name_H-M   'P 1'
_cell_length_a   10.88620400
_cell_length_b   10.88620400
_cell_length_c   7.90135400
_cell_angle_alpha   90.00000000
_cell_angle_beta   90.00000000
_cell_angle_gamma   90.00000000
_symmetry_Int_Tables_number   1
_chemical_formula_structural   Na2TiSi4O11
_chemical_formula_sum   'Na8 Ti4 Si16 O44'
_cell_volume   936.38501826
_cell_formula_units_Z   4
loop_
 _symmetry_equiv_pos_site_id
 _symmetry_equiv_pos_as_xyz
  1  'x, y, z'
loop_
 _atom_site_type_symbol
 _atom_site_label
 _atom_site_symmetry_multiplicity
 _atom_site_fract_x
 _atom_site_fract_y
 _atom_site_fract_z
 _atom_site_occupancy
  Na  Na0  1  0.63386000  0.31741600  0.00000000  1
  Na  Na1  1  0.18258400  0.13386000  0.50000000  1
  Na  Na2  1  0.36614000  0.68258400  0.00000000  1
  Na  Na3  1  0.81741600  0.86614000  0.50000000  1
  Na  Na4  1  0.13386000  0.81741600  0.50000000  1
  Na  Na5  1  0.68258400  0.63386000  0.00000000  1
  Na  Na6  1  0.86614000  0.18258400  0.50000000  1
  Na  Na7  1  0.31741600  0.36614000  0.00000000  1
  Ti  Ti8  1  0.00000000  0.00000000  0.24377700  1
  Ti  Ti9  1  0.00000000  0.00000000  0.75622300  1
  Ti  Ti10  1  0.50000000  0.50000000  0.74377700  1
  Ti  Ti11  1  0.50000000  0.50000000  0.25622300  1
  Si  Si12  1  0.30854150  0.98786750  0.19249550  1
  Si  Si13  1  0.69145850  0.01213250  0.80750450  1
  Si  Si14  1  0.48786750  0.19145850  0.30750450  1
  Si  Si15  1  0.30854150  0.98786750  0.80750450  1
  Si  Si16  1  0.51213250  0.80854150  0.30750450  1
  Si  Si17  1  0.48786750  0.19145850  0.69249550  1
  Si  Si18  1  0.69145850  0.01213250  0.19249550  1
  Si  Si19  1  0.51213250  0.80854150  0.69249550  1
  Si  Si20  1  0.80854150  0.48786750  0.69249550  1
  Si  Si21  1  0.19145850  0.51213250  0.30750450  1
  Si  Si22  1  0.98786750  0.69145850  0.80750450  1
  Si  Si23  1  0.80854150  0.48786750  0.30750450  1
  Si  Si24  1  0.01213250  0.30854150  0.80750450  1
  Si  Si25  1  0.98786750  0.69145850  0.19249550  1
  Si  Si26  1  0.19145850  0.51213250  0.69249550  1
  Si  Si27  1  0.01213250  0.30854150  0.19249550  1
  O  O28  1  0.17747550  0.95049650  0.26857550  1
  O  O29  1  0.40145800  0.86785200  0.19026100  1
  O  O30  1  0.82252450  0.04950350  0.73142450  1
  O  O31  1  0.63214800  0.90145800  0.30973900  1
  O  O32  1  0.54950350  0.67747550  0.23142450  1
  O  O33  1  0.69606900  0.95786300  0.00000000  1
  O  O34  1  0.45049650  0.32252450  0.76857550  1
  O  O35  1  0.45049650  0.32252450  0.23142450  1
  O  O36  1  0.63214800  0.90145800  0.69026100  1
  O  O37  1  0.36785200  0.09854200  0.30973900  1
  O  O38  1  0.30393100  0.04213700  0.00000000  1
  O  O39  1  0.45786300  0.80393100  0.50000000  1
  O  O40  1  0.00000000  0.00000000  0.50000000  1
  O  O41  1  0.40145800  0.86785200  0.80973900  1
  O  O42  1  0.59854200  0.13214800  0.19026100  1
  O  O43  1  0.82252450  0.04950350  0.26857550  1
  O  O44  1  0.17747550  0.95049650  0.73142450  1
  O  O45  1  0.54213700  0.19606900  0.50000000  1
  O  O46  1  0.54950350  0.67747550  0.76857550  1
  O  O47  1  0.59854200  0.13214800  0.80973900  1
  O  O48  1  0.00000000  0.00000000  0.00000000  1
  O  O49  1  0.36785200  0.09854200  0.69026100  1
  O  O50  1  0.67747550  0.45049650  0.76857550  1
  O  O51  1  0.90145800  0.36785200  0.69026100  1
  O  O52  1  0.32252450  0.54950350  0.23142450  1
  O  O53  1  0.13214800  0.40145800  0.80973900  1
  O  O54  1  0.04950350  0.17747550  0.73142450  1
  O  O55  1  0.19606900  0.45786300  0.50000000  1
  O  O56  1  0.95049650  0.82252450  0.26857550  1
  O  O57  1  0.95049650  0.82252450  0.73142450  1
  O  O58  1  0.13214800  0.40145800  0.19026100  1
  O  O59  1  0.86785200  0.59854200  0.80973900  1
  O  O60  1  0.80393100  0.54213700  0.50000000  1
  O  O61  1  0.95786300  0.30393100  0.00000000  1
  O  O62  1  0.50000000  0.50000000  0.00000000  1
  O  O63  1  0.90145800  0.36785200  0.30973900  1
  O  O64  1  0.09854200  0.63214800  0.69026100  1
  O  O65  1  0.32252450  0.54950350  0.76857550  1
  O  O66  1  0.67747550  0.45049650  0.23142450  1
  O  O67  1  0.04213700  0.69606900  0.00000000  1
  O  O68  1  0.04950350  0.17747550  0.26857550  1
  O  O69  1  0.09854200  0.63214800  0.30973900  1
  O  O70  1  0.50000000  0.50000000  0.50000000  1
  O  O71  1  0.86785200  0.59854200  0.19026100  1
