# generated using pymatgen
data_Cu6PS5Br
_symmetry_space_group_name_H-M   'P 1'
_cell_length_a   11.82376400
_cell_length_b   6.84551400
_cell_length_c   11.92493131
_cell_angle_alpha   90.00000000
_cell_angle_beta   109.20501567
_cell_angle_gamma   90.00000000
_symmetry_Int_Tables_number   1
_chemical_formula_structural   Cu6PS5Br
_chemical_formula_sum   'Cu24 P4 S20 Br4'
_cell_volume   911.48509773
_cell_formula_units_Z   4
loop_
 _symmetry_equiv_pos_site_id
 _symmetry_equiv_pos_as_xyz
  1  'x, y, z'
loop_
 _atom_site_type_symbol
 _atom_site_label
 _atom_site_symmetry_multiplicity
 _atom_site_fract_x
 _atom_site_fract_y
 _atom_site_fract_z
 _atom_site_occupancy
  Cu  Cu0  1  0.50560750  0.46607950  0.89314200  1
  Cu  Cu1  1  0.68318900  0.04835200  0.61406600  1
  Cu  Cu2  1  0.23316450  0.76772550  0.88370200  1
  Cu  Cu3  1  0.68318900  0.95164800  0.11406600  1
  Cu  Cu4  1  0.52124650  0.01735150  0.88870500  1
  Cu  Cu5  1  0.23316450  0.23227450  0.38370200  1
  Cu  Cu6  1  0.50391250  0.65022850  0.61274400  1
  Cu  Cu7  1  0.30244650  0.92520450  0.11137100  1
  Cu  Cu8  1  0.30244650  0.07479550  0.61137100  1
  Cu  Cu9  1  0.50391250  0.34977150  0.11274400  1
  Cu  Cu10  1  0.52124650  0.98264850  0.38870500  1
  Cu  Cu11  1  0.50560750  0.53392050  0.39314200  1
  Cu  Cu12  1  0.00560750  0.96607950  0.89314200  1
  Cu  Cu13  1  0.18318900  0.54835200  0.61406600  1
  Cu  Cu14  1  0.73316450  0.26772550  0.88370200  1
  Cu  Cu15  1  0.18318900  0.45164800  0.11406600  1
  Cu  Cu16  1  0.02124650  0.51735150  0.88870500  1
  Cu  Cu17  1  0.73316450  0.73227450  0.38370200  1
  Cu  Cu18  1  0.00391250  0.15022850  0.61274400  1
  Cu  Cu19  1  0.80244650  0.42520450  0.11137100  1
  Cu  Cu20  1  0.80244650  0.57479550  0.61137100  1
  Cu  Cu21  1  0.00391250  0.84977150  0.11274400  1
  Cu  Cu22  1  0.02124650  0.48264850  0.38870500  1
  Cu  Cu23  1  0.00560750  0.03392050  0.39314200  1
  P  P24  1  0.24983550  0.75043150  0.37565500  1
  P  P25  1  0.24983550  0.24956850  0.87565500  1
  P  P26  1  0.74983550  0.25043150  0.37565500  1
  P  P27  1  0.74983550  0.74956850  0.87565500  1
  S  S28  1  0.31040800  0.75290500  0.56048000  1
  S  S29  1  0.31040800  0.24709500  0.06048000  1
  S  S30  1  0.80335850  0.99688950  0.31236600  1
  S  S31  1  0.56425500  0.73347400  0.81265900  1
  S  S32  1  0.56425500  0.26652600  0.31265900  1
  S  S33  1  0.80335850  0.00311050  0.81236600  1
  S  S34  1  0.31797300  0.98724500  0.31025900  1
  S  S35  1  0.63120000  0.24708600  0.01424100  1
  S  S36  1  0.63120000  0.75291400  0.51424100  1
  S  S37  1  0.31797300  0.01275500  0.81025900  1
  S  S38  1  0.81040800  0.25290500  0.56048000  1
  S  S39  1  0.81040800  0.74709500  0.06048000  1
  S  S40  1  0.30335850  0.49688950  0.31236600  1
  S  S41  1  0.06425500  0.23347400  0.81265900  1
  S  S42  1  0.06425500  0.76652600  0.31265900  1
  S  S43  1  0.30335850  0.50311050  0.81236600  1
  S  S44  1  0.81797300  0.48724500  0.31025900  1
  S  S45  1  0.13120000  0.74708600  0.01424100  1
  S  S46  1  0.13120000  0.25291400  0.51424100  1
  S  S47  1  0.81797300  0.51275500  0.81025900  1
  Br  Br48  1  0.50140950  0.74712550  0.12774100  1
  Br  Br49  1  0.50140950  0.25287450  0.62774100  1
  Br  Br50  1  0.00140950  0.24712550  0.12774100  1
  Br  Br51  1  0.00140950  0.75287450  0.62774100  1
