# generated using pymatgen
data_Ag2PS3
_symmetry_space_group_name_H-M   'P 1'
_cell_length_a   6.60011700
_cell_length_b   12.02477400
_cell_length_c   19.99040878
_cell_angle_alpha   90.00000000
_cell_angle_beta   93.37872839
_cell_angle_gamma   90.00000000
_symmetry_Int_Tables_number   1
_chemical_formula_structural   Ag2PS3
_chemical_formula_sum   'Ag24 P12 S36'
_cell_volume   1583.77934499
_cell_formula_units_Z   12
loop_
 _symmetry_equiv_pos_site_id
 _symmetry_equiv_pos_as_xyz
  1  'x, y, z'
loop_
 _atom_site_type_symbol
 _atom_site_label
 _atom_site_symmetry_multiplicity
 _atom_site_fract_x
 _atom_site_fract_y
 _atom_site_fract_z
 _atom_site_occupancy
  Ag  Ag0  1  0.42414100  0.92473400  0.83334000  1
  Ag  Ag1  1  0.96332000  0.22343700  0.21508800  1
  Ag  Ag2  1  0.92118800  0.29994900  0.99228400  1
  Ag  Ag3  1  0.52297800  0.63210400  0.89287800  1
  Ag  Ag4  1  0.47870000  0.33327400  0.87171600  1
  Ag  Ag5  1  0.57585900  0.07526600  0.16666000  1
  Ag  Ag6  1  0.96332000  0.27656300  0.71508800  1
  Ag  Ag7  1  0.08413400  0.94495300  0.09312000  1
  Ag  Ag8  1  0.03668000  0.77656300  0.78491200  1
  Ag  Ag9  1  0.57585900  0.42473400  0.66666000  1
  Ag  Ag10  1  0.52130000  0.83327400  0.62828400  1
  Ag  Ag11  1  0.03668000  0.72343700  0.28491200  1
  Ag  Ag12  1  0.92118800  0.20005100  0.49228400  1
  Ag  Ag13  1  0.07881200  0.79994900  0.50771600  1
  Ag  Ag14  1  0.47702200  0.36789600  0.10712200  1
  Ag  Ag15  1  0.91586600  0.05504700  0.90688000  1
  Ag  Ag16  1  0.47870000  0.16672600  0.37171600  1
  Ag  Ag17  1  0.47702200  0.13210400  0.60712200  1
  Ag  Ag18  1  0.52297800  0.86789600  0.39287800  1
  Ag  Ag19  1  0.91586600  0.44495300  0.40688000  1
  Ag  Ag20  1  0.07881200  0.70005100  0.00771600  1
  Ag  Ag21  1  0.52130000  0.66672600  0.12828400  1
  Ag  Ag22  1  0.08413400  0.55504700  0.59312000  1
  Ag  Ag23  1  0.42414100  0.57526600  0.33334000  1
  P  P24  1  0.46144100  0.09350200  0.99056200  1
  P  P25  1  0.04700100  0.00502400  0.37428200  1
  P  P26  1  0.53855900  0.59350200  0.50943800  1
  P  P27  1  0.15984600  0.51501300  0.76799300  1
  P  P28  1  0.84015400  0.01501300  0.73200700  1
  P  P29  1  0.46144100  0.40649800  0.49056200  1
  P  P30  1  0.95299900  0.50502400  0.12571800  1
  P  P31  1  0.15984600  0.98498700  0.26799300  1
  P  P32  1  0.84015400  0.48498700  0.23200700  1
  P  P33  1  0.53855900  0.90649800  0.00943800  1
  P  P34  1  0.04700100  0.49497600  0.87428200  1
  P  P35  1  0.95299900  0.99497600  0.62571800  1
  S  S36  1  0.08739600  0.46334900  0.29744000  1
  S  S37  1  0.16409300  0.38665900  0.50768100  1
  S  S38  1  0.83590700  0.61334100  0.49231900  1
  S  S39  1  0.90389800  0.85658300  0.39229000  1
  S  S40  1  0.91260400  0.96334900  0.20256000  1
  S  S41  1  0.53698800  0.37836700  0.39350700  1
  S  S42  1  0.31174700  0.36799600  0.74958400  1
  S  S43  1  0.08739600  0.03665100  0.79744000  1
  S  S44  1  0.64638600  0.31727000  0.55790400  1
  S  S45  1  0.29874000  0.02197900  0.43861100  1
  S  S46  1  0.16409300  0.11334100  0.00768100  1
  S  S47  1  0.35361400  0.81727000  0.94209600  1
  S  S48  1  0.87795400  0.14723400  0.37117200  1
  S  S49  1  0.12204600  0.64723400  0.12882800  1
  S  S50  1  0.12204600  0.85276600  0.62882800  1
  S  S51  1  0.70126000  0.52197900  0.06138900  1
  S  S52  1  0.46301200  0.87836700  0.10649300  1
  S  S53  1  0.70126000  0.97802100  0.56138900  1
  S  S54  1  0.34194500  0.84797800  0.27082000  1
  S  S55  1  0.91260400  0.53665100  0.70256000  1
  S  S56  1  0.09610200  0.35658300  0.10771000  1
  S  S57  1  0.65805500  0.15202200  0.72918000  1
  S  S58  1  0.29874000  0.47802100  0.93861100  1
  S  S59  1  0.46301200  0.62163300  0.60649300  1
  S  S60  1  0.53698800  0.12163300  0.89350700  1
  S  S61  1  0.34194500  0.65202200  0.77082000  1
  S  S62  1  0.64638600  0.18273000  0.05790400  1
  S  S63  1  0.35361400  0.68273000  0.44209600  1
  S  S64  1  0.68825300  0.86799600  0.75041600  1
  S  S65  1  0.90389800  0.64341700  0.89229000  1
  S  S66  1  0.83590700  0.88665900  0.99231900  1
  S  S67  1  0.31174700  0.13200400  0.24958400  1
  S  S68  1  0.87795400  0.35276600  0.87117200  1
  S  S69  1  0.09610200  0.14341700  0.60771000  1
  S  S70  1  0.65805500  0.34797800  0.22918000  1
  S  S71  1  0.68825300  0.63200400  0.25041600  1
