# generated using pymatgen
data_K4Ru(NO2)6
_symmetry_space_group_name_H-M   'P 1'
_cell_length_a   7.59884593
_cell_length_b   7.59884593
_cell_length_c   22.56988620
_cell_angle_alpha   90.00000000
_cell_angle_beta   90.00000000
_cell_angle_gamma   120.00000000
_symmetry_Int_Tables_number   1
_chemical_formula_structural   K4Ru(NO2)6
_chemical_formula_sum   'K12 Ru3 N18 O36'
_cell_volume   1128.63958615
_cell_formula_units_Z   3
loop_
 _symmetry_equiv_pos_site_id
 _symmetry_equiv_pos_as_xyz
  1  'x, y, z'
loop_
 _atom_site_type_symbol
 _atom_site_label
 _atom_site_symmetry_multiplicity
 _atom_site_fract_x
 _atom_site_fract_y
 _atom_site_fract_z
 _atom_site_occupancy
  K  K0  1  0.33333333  0.66666667  0.28763767  1
  K  K1  1  0.33333333  0.66666667  0.04569567  1
  K  K2  1  0.00000000  0.00000000  0.19252000  1
  K  K3  1  0.66666667  0.33333333  0.14081333  1
  K  K4  1  0.00000000  0.00000000  0.62097100  1
  K  K5  1  0.00000000  0.00000000  0.37902900  1
  K  K6  1  0.66666667  0.33333333  0.52585333  1
  K  K7  1  0.33333333  0.66666667  0.47414667  1
  K  K8  1  0.66666667  0.33333333  0.95430433  1
  K  K9  1  0.66666667  0.33333333  0.71236233  1
  K  K10  1  0.33333333  0.66666667  0.85918667  1
  K  K11  1  0.00000000  0.00000000  0.80748000  1
  Ru  Ru12  1  0.00000000  0.00000000  0.00000000  1
  Ru  Ru13  1  0.66666667  0.33333333  0.33333333  1
  Ru  Ru14  1  0.33333333  0.66666667  0.66666667  1
  N  N15  1  0.25325500  0.12630800  0.05434100  1
  N  N16  1  0.87369200  0.12694700  0.05434100  1
  N  N17  1  0.79361367  0.58658833  0.27899233  1
  N  N18  1  0.87305300  0.74674500  0.05434100  1
  N  N19  1  0.79297467  0.20638633  0.27899233  1
  N  N20  1  0.41341167  0.20702533  0.27899233  1
  N  N21  1  0.91992167  0.45964133  0.38767433  1
  N  N22  1  0.54035867  0.46028033  0.38767433  1
  N  N23  1  0.46028033  0.91992167  0.61232567  1
  N  N24  1  0.53971967  0.08007833  0.38767433  1
  N  N25  1  0.45964133  0.53971967  0.61232567  1
  N  N26  1  0.08007833  0.54035867  0.61232567  1
  N  N27  1  0.58658833  0.79297467  0.72100767  1
  N  N28  1  0.20702533  0.79361367  0.72100767  1
  N  N29  1  0.12694700  0.25325500  0.94565900  1
  N  N30  1  0.20638633  0.41341167  0.72100767  1
  N  N31  1  0.12630800  0.87305300  0.94565900  1
  N  N32  1  0.74674500  0.87369200  0.94565900  1
  O  O33  1  0.76020700  0.73057800  0.09775400  1
  O  O34  1  0.97037100  0.23979300  0.09775400  1
  O  O35  1  0.39724467  0.30370433  0.23557933  1
  O  O36  1  0.75614333  0.72953867  0.28715767  1
  O  O37  1  0.69327133  0.08947667  0.04617567  1
  O  O38  1  0.90645967  0.60275533  0.23557933  1
  O  O39  1  0.91052333  0.60379467  0.04617567  1
  O  O40  1  0.39620533  0.30672867  0.04617567  1
  O  O41  1  0.26942200  0.02962900  0.09775400  1
  O  O42  1  0.27046133  0.02660467  0.28715767  1
  O  O43  1  0.97339533  0.24385667  0.28715767  1
  O  O44  1  0.69629567  0.09354033  0.23557933  1
  O  O45  1  0.42687367  0.06391133  0.43108733  1
  O  O46  1  0.63703767  0.57312633  0.43108733  1
  O  O47  1  0.06391133  0.63703767  0.56891267  1
  O  O48  1  0.42281000  0.06287200  0.62049100  1
  O  O49  1  0.35993800  0.42281000  0.37950900  1
  O  O50  1  0.57312633  0.93608867  0.56891267  1
  O  O51  1  0.57719000  0.93712800  0.37950900  1
  O  O52  1  0.06287200  0.64006200  0.37950900  1
  O  O53  1  0.93608867  0.36296233  0.43108733  1
  O  O54  1  0.93712800  0.35993800  0.62049100  1
  O  O55  1  0.64006200  0.57719000  0.62049100  1
  O  O56  1  0.36296233  0.42687367  0.56891267  1
  O  O57  1  0.09354033  0.39724467  0.76442067  1
  O  O58  1  0.30370433  0.90645967  0.76442067  1
  O  O59  1  0.73057800  0.97037100  0.90224600  1
  O  O60  1  0.08947667  0.39620533  0.95382433  1
  O  O61  1  0.02660467  0.75614333  0.71284233  1
  O  O62  1  0.23979300  0.26942200  0.90224600  1
  O  O63  1  0.24385667  0.27046133  0.71284233  1
  O  O64  1  0.72953867  0.97339533  0.71284233  1
  O  O65  1  0.60275533  0.69629567  0.76442067  1
  O  O66  1  0.60379467  0.69327133  0.95382433  1
  O  O67  1  0.30672867  0.91052333  0.95382433  1
  O  O68  1  0.02962900  0.76020700  0.90224600  1
