# generated using pymatgen
data_CoPO4
_symmetry_space_group_name_H-M   'P 1'
_cell_length_a   8.56592100
_cell_length_b   5.27213300
_cell_length_c   8.57940174
_cell_angle_alpha   90.00000000
_cell_angle_beta   105.91391482
_cell_angle_gamma   90.00000000
_symmetry_Int_Tables_number   1
_chemical_formula_structural   CoPO4
_chemical_formula_sum   'Co4 P4 O16'
_cell_volume   372.60239237
_cell_formula_units_Z   4
loop_
 _symmetry_equiv_pos_site_id
 _symmetry_equiv_pos_as_xyz
  1  'x, y, z'
loop_
 _atom_site_type_symbol
 _atom_site_label
 _atom_site_symmetry_multiplicity
 _atom_site_fract_x
 _atom_site_fract_y
 _atom_site_fract_z
 _atom_site_occupancy
  Co  Co0  1  0.13234600  0.19402300  0.62929900  1
  Co  Co1  1  0.77661800  0.30586000  0.12822900  1
  Co  Co2  1  0.27661800  0.69414000  0.12822900  1
  Co  Co3  1  0.63234600  0.80597700  0.62929900  1
  P  P4  1  0.00606600  0.69053500  0.75997100  1
  P  P5  1  0.50606600  0.30946500  0.75997100  1
  P  P6  1  0.15411700  0.19344200  0.25752600  1
  P  P7  1  0.65411700  0.80655800  0.25752600  1
  O  O8  1  0.49100000  0.58255200  0.69022200  1
  O  O9  1  0.56325300  0.13411300  0.64062800  1
  O  O10  1  0.48522600  0.78742300  0.13135000  1
  O  O11  1  0.33805500  0.22877500  0.77667600  1
  O  O12  1  0.83805500  0.77122500  0.77667600  1
  O  O13  1  0.27579700  0.35906400  0.19823200  1
  O  O14  1  0.21392500  0.91485500  0.27145600  1
  O  O15  1  0.62966900  0.29508700  0.92732500  1
  O  O16  1  0.99100000  0.41744800  0.69022200  1
  O  O17  1  0.98522600  0.21257700  0.13135000  1
  O  O18  1  0.64341900  0.71324900  0.42488200  1
  O  O19  1  0.14341900  0.28675100  0.42488200  1
  O  O20  1  0.06325300  0.86588700  0.64062800  1
  O  O21  1  0.77579700  0.64093600  0.19823200  1
  O  O22  1  0.12966900  0.70491300  0.92732500  1
  O  O23  1  0.71392500  0.08514500  0.27145600  1
