# generated using pymatgen
data_AsS3(NF3)2
_symmetry_space_group_name_H-M   'P 1'
_cell_length_a   8.63183800
_cell_length_b   8.50337900
_cell_length_c   11.41727982
_cell_angle_alpha   90.00000000
_cell_angle_beta   95.68319416
_cell_angle_gamma   90.00000000
_symmetry_Int_Tables_number   1
_chemical_formula_structural   AsS3(NF3)2
_chemical_formula_sum   'As4 S12 N8 F24'
_cell_volume   833.90675794
_cell_formula_units_Z   4
loop_
 _symmetry_equiv_pos_site_id
 _symmetry_equiv_pos_as_xyz
  1  'x, y, z'
loop_
 _atom_site_type_symbol
 _atom_site_label
 _atom_site_symmetry_multiplicity
 _atom_site_fract_x
 _atom_site_fract_y
 _atom_site_fract_z
 _atom_site_occupancy
  As  As0  1  0.26811800  0.89518600  0.12663900  1
  As  As1  1  0.73188200  0.39518600  0.37336100  1
  As  As2  1  0.73188200  0.10481400  0.87336100  1
  As  As3  1  0.26811800  0.60481400  0.62663900  1
  S  S4  1  0.03806100  0.34950400  0.11349900  1
  S  S5  1  0.64937500  0.56859200  0.85867100  1
  S  S6  1  0.96193900  0.65049600  0.88650100  1
  S  S7  1  0.14568300  0.36918300  0.94442400  1
  S  S8  1  0.85431700  0.86918300  0.55557600  1
  S  S9  1  0.85431700  0.63081700  0.05557600  1
  S  S10  1  0.35062500  0.06859200  0.64132900  1
  S  S11  1  0.03806100  0.15049600  0.61349900  1
  S  S12  1  0.14568300  0.13081700  0.44442400  1
  S  S13  1  0.35062500  0.43140800  0.14132900  1
  S  S14  1  0.96193900  0.84950400  0.38650100  1
  S  S15  1  0.64937500  0.93140800  0.35867100  1
  N  N16  1  0.31573100  0.08718400  0.50335200  1
  N  N17  1  0.31573100  0.41281600  0.00335200  1
  N  N18  1  0.80593300  0.61038100  0.80502600  1
  N  N19  1  0.68426900  0.91281600  0.49664800  1
  N  N20  1  0.19406700  0.11038100  0.69497400  1
  N  N21  1  0.80593300  0.88961900  0.30502600  1
  N  N22  1  0.68426900  0.58718400  0.99664800  1
  N  N23  1  0.19406700  0.38961900  0.19497400  1
  F  F24  1  0.84064500  0.28116300  0.92207700  1
  F  F25  1  0.15935500  0.78116300  0.57792300  1
  F  F26  1  0.90947800  0.02049100  0.83694800  1
  F  F27  1  0.70607100  0.18727100  0.72981700  1
  F  F28  1  0.90947800  0.47950900  0.33694800  1
  F  F29  1  0.15935500  0.71883700  0.07792300  1
  F  F30  1  0.37134400  0.43392300  0.67704300  1
  F  F31  1  0.37134400  0.06607700  0.17704300  1
  F  F32  1  0.76440000  0.47152000  0.51652200  1
  F  F33  1  0.23560000  0.52848000  0.48347800  1
  F  F34  1  0.09052200  0.52049100  0.66305200  1
  F  F35  1  0.76440000  0.02848000  0.01652200  1
  F  F36  1  0.44068400  0.69837800  0.59323200  1
  F  F37  1  0.44068400  0.80162200  0.09323200  1
  F  F38  1  0.29392900  0.81272900  0.27018300  1
  F  F39  1  0.70607100  0.31272900  0.22981700  1
  F  F40  1  0.84064500  0.21883700  0.42207700  1
  F  F41  1  0.62865600  0.56607700  0.32295700  1
  F  F42  1  0.55931600  0.19837800  0.90676800  1
  F  F43  1  0.23560000  0.97152000  0.98347800  1
  F  F44  1  0.62865600  0.93392300  0.82295700  1
  F  F45  1  0.29392900  0.68727100  0.77018300  1
  F  F46  1  0.09052200  0.97950900  0.16305200  1
  F  F47  1  0.55931600  0.30162200  0.40676800  1
