# generated using pymatgen
data_Sr21(Cd2Bi9)2
_symmetry_space_group_name_H-M   'P 1'
_cell_length_a   18.81224400
_cell_length_b   18.01013000
_cell_length_c   18.48110478
_cell_angle_alpha   90.00000000
_cell_angle_beta   91.95794733
_cell_angle_gamma   90.00000000
_symmetry_Int_Tables_number   1
_chemical_formula_structural   Sr21(Cd2Bi9)2
_chemical_formula_sum   'Sr84 Cd16 Bi72'
_cell_volume   6257.94515724
_cell_formula_units_Z   4
loop_
 _symmetry_equiv_pos_site_id
 _symmetry_equiv_pos_as_xyz
  1  'x, y, z'
loop_
 _atom_site_type_symbol
 _atom_site_label
 _atom_site_symmetry_multiplicity
 _atom_site_fract_x
 _atom_site_fract_y
 _atom_site_fract_z
 _atom_site_occupancy
  Sr  Sr0  1  0.42787050  0.83084750  0.15630900  1
  Sr  Sr1  1  0.86844100  0.12848000  0.06140800  1
  Sr  Sr2  1  0.61131150  0.38069950  0.57586400  1
  Sr  Sr3  1  0.24659500  0.17453000  0.75766300  1
  Sr  Sr4  1  0.58553350  0.65594150  0.35124100  1
  Sr  Sr5  1  0.44621000  0.12533200  0.38163800  1
  Sr  Sr6  1  0.41446650  0.65594150  0.64875900  1
  Sr  Sr7  1  0.40652400  0.00000000  0.74585600  1
  Sr  Sr8  1  0.38868850  0.38069950  0.42413600  1
  Sr  Sr9  1  0.65696700  0.83807300  0.43541000  1
  Sr  Sr10  1  0.65696700  0.16192700  0.43541000  1
  Sr  Sr11  1  0.13155900  0.12848000  0.93859200  1
  Sr  Sr12  1  0.75340500  0.82547000  0.24233700  1
  Sr  Sr13  1  0.41268700  0.33679600  0.85441400  1
  Sr  Sr14  1  0.38187400  0.12705500  0.94405300  1
  Sr  Sr15  1  0.42787050  0.16915250  0.15630900  1
  Sr  Sr16  1  0.34303300  0.16192700  0.56459000  1
  Sr  Sr17  1  0.38868850  0.61930050  0.42413600  1
  Sr  Sr18  1  0.41268700  0.66320400  0.85441400  1
  Sr  Sr19  1  0.41446650  0.34405850  0.64875900  1
  Sr  Sr20  1  0.61812600  0.87294500  0.05594700  1
  Sr  Sr21  1  0.74565400  0.00000000  0.58226100  1
  Sr  Sr22  1  0.58553350  0.34405850  0.35124100  1
  Sr  Sr23  1  0.57212950  0.83084750  0.84369100  1
  Sr  Sr24  1  0.25434600  0.00000000  0.41773900  1
  Sr  Sr25  1  0.61131150  0.61930050  0.57586400  1
  Sr  Sr26  1  0.26389400  0.00000000  0.09405700  1
  Sr  Sr27  1  0.61812600  0.12705500  0.05594700  1
  Sr  Sr28  1  0.86844100  0.87152000  0.06140800  1
  Sr  Sr29  1  0.73610600  0.00000000  0.90594300  1
  Sr  Sr30  1  0.59347600  0.00000000  0.25414400  1
  Sr  Sr31  1  0.24659500  0.82547000  0.75766300  1
  Sr  Sr32  1  0.58731300  0.33679600  0.14558600  1
  Sr  Sr33  1  0.44621000  0.87466800  0.38163800  1
  Sr  Sr34  1  0.38187400  0.87294500  0.94405300  1
  Sr  Sr35  1  0.58731300  0.66320400  0.14558600  1
  Sr  Sr36  1  0.55379000  0.12533200  0.61836200  1
  Sr  Sr37  1  0.34303300  0.83807300  0.56459000  1
  Sr  Sr38  1  0.55379000  0.87466800  0.61836200  1
  Sr  Sr39  1  0.57212950  0.16915250  0.84369100  1
  Sr  Sr40  1  0.75340500  0.17453000  0.24233700  1
  Sr  Sr41  1  0.13155900  0.87152000  0.93859200  1
  Sr  Sr42  1  0.92787050  0.33084750  0.15630900  1
  Sr  Sr43  1  0.36844100  0.62848000  0.06140800  1
  Sr  Sr44  1  0.11131150  0.88069950  0.57586400  1
  Sr  Sr45  1  0.74659500  0.67453000  0.75766300  1
  Sr  Sr46  1  0.08553350  0.15594150  0.35124100  1
  Sr  Sr47  1  0.94621000  0.62533200  0.38163800  1
  Sr  Sr48  1  0.91446650  0.15594150  0.64875900  1
  Sr  Sr49  1  0.90652400  0.50000000  0.74585600  1
  Sr  Sr50  1  0.88868850  0.88069950  0.42413600  1
  Sr  Sr51  1  0.15696700  0.33807300  0.43541000  1
  Sr  Sr52  1  0.15696700  0.66192700  0.43541000  1
  Sr  Sr53  1  0.63155900  0.62848000  0.93859200  1
  Sr  Sr54  1  0.25340500  0.32547000  0.24233700  1
  Sr  Sr55  1  0.91268700  0.83679600  0.85441400  1
  Sr  Sr56  1  0.88187400  0.62705500  0.94405300  1
  Sr  Sr57  1  0.92787050  0.66915250  0.15630900  1
  Sr  Sr58  1  0.84303300  0.66192700  0.56459000  1
  Sr  Sr59  1  0.88868850  0.11930050  0.42413600  1
  Sr  Sr60  1  0.91268700  0.16320400  0.85441400  1
  Sr  Sr61  1  0.91446650  0.84405850  0.64875900  1
  Sr  Sr62  1  0.11812600  0.37294500  0.05594700  1
  Sr  Sr63  1  0.24565400  0.50000000  0.58226100  1
  Sr  Sr64  1  0.08553350  0.84405850  0.35124100  1
  Sr  Sr65  1  0.07212950  0.33084750  0.84369100  1
  Sr  Sr66  1  0.75434600  0.50000000  0.41773900  1
  Sr  Sr67  1  0.11131150  0.11930050  0.57586400  1
  Sr  Sr68  1  0.76389400  0.50000000  0.09405700  1
  Sr  Sr69  1  0.11812600  0.62705500  0.05594700  1
  Sr  Sr70  1  0.36844100  0.37152000  0.06140800  1
  Sr  Sr71  1  0.23610600  0.50000000  0.90594300  1
  Sr  Sr72  1  0.09347600  0.50000000  0.25414400  1
  Sr  Sr73  1  0.74659500  0.32547000  0.75766300  1
  Sr  Sr74  1  0.08731300  0.83679600  0.14558600  1
  Sr  Sr75  1  0.94621000  0.37466800  0.38163800  1
  Sr  Sr76  1  0.88187400  0.37294500  0.94405300  1
  Sr  Sr77  1  0.08731300  0.16320400  0.14558600  1
  Sr  Sr78  1  0.05379000  0.62533200  0.61836200  1
  Sr  Sr79  1  0.84303300  0.33807300  0.56459000  1
  Sr  Sr80  1  0.05379000  0.37466800  0.61836200  1
  Sr  Sr81  1  0.07212950  0.66915250  0.84369100  1
  Sr  Sr82  1  0.25340500  0.67453000  0.24233700  1
  Sr  Sr83  1  0.63155900  0.37152000  0.93859200  1
  Cd  Cd84  1  0.26645100  0.12344400  0.24678000  1
  Cd  Cd85  1  0.00217300  0.00000000  0.79063100  1
  Cd  Cd86  1  0.15504000  0.00000000  0.75321400  1
  Cd  Cd87  1  0.99782700  0.00000000  0.20936900  1
  Cd  Cd88  1  0.26645100  0.87655600  0.24678000  1
  Cd  Cd89  1  0.73354900  0.87655600  0.75322000  1
  Cd  Cd90  1  0.84496000  0.00000000  0.24678600  1
  Cd  Cd91  1  0.73354900  0.12344400  0.75322000  1
  Cd  Cd92  1  0.76645100  0.62344400  0.24678000  1
  Cd  Cd93  1  0.50217300  0.50000000  0.79063100  1
  Cd  Cd94  1  0.65504000  0.50000000  0.75321400  1
  Cd  Cd95  1  0.49782700  0.50000000  0.20936900  1
  Cd  Cd96  1  0.76645100  0.37655600  0.24678000  1
  Cd  Cd97  1  0.23354900  0.37655600  0.75322000  1
  Cd  Cd98  1  0.34496000  0.50000000  0.24678600  1
  Cd  Cd99  1  0.23354900  0.62344400  0.75322000  1
  Bi  Bi100  1  0.38199700  0.00000000  0.25619600  1
  Bi  Bi101  1  0.42126650  0.81790850  0.74366600  1
  Bi  Bi102  1  0.06038500  0.00000000  0.05929700  1
  Bi  Bi103  1  0.42126650  0.18209150  0.74366600  1
  Bi  Bi104  1  0.26056700  0.00000000  0.88331800  1
  Bi  Bi105  1  0.50000000  0.74421400  0.00000000  1
  Bi  Bi106  1  0.25699000  0.79946500  0.09265100  1
  Bi  Bi107  1  0.25145200  0.00000000  0.62380700  1
  Bi  Bi108  1  0.95074800  0.00000000  0.56553100  1
  Bi  Bi109  1  0.56895150  0.64833850  0.75659900  1
  Bi  Bi110  1  0.53651800  0.00000000  0.92360100  1
  Bi  Bi111  1  0.84717300  0.00000000  0.74691800  1
  Bi  Bi112  1  0.50000000  0.25505700  0.50000000  1
  Bi  Bi113  1  0.43104850  0.64833850  0.24340100  1
  Bi  Bi114  1  0.74854800  0.00000000  0.37619300  1
  Bi  Bi115  1  0.15282700  0.00000000  0.25308200  1
  Bi  Bi116  1  0.26944000  0.19774500  0.39281200  1
  Bi  Bi117  1  0.61800300  0.00000000  0.74380400  1
  Bi  Bi118  1  0.57873350  0.81790850  0.25633400  1
  Bi  Bi119  1  0.57873350  0.18209150  0.25633400  1
  Bi  Bi120  1  0.93961500  0.00000000  0.94070300  1
  Bi  Bi121  1  0.74301000  0.20053500  0.90734900  1
  Bi  Bi122  1  0.46348200  0.00000000  0.07639900  1
  Bi  Bi123  1  0.73056000  0.19774500  0.60718800  1
  Bi  Bi124  1  0.73943300  0.00000000  0.11668200  1
  Bi  Bi125  1  0.42529800  0.00000000  0.53563800  1
  Bi  Bi126  1  0.26944000  0.80225500  0.39281200  1
  Bi  Bi127  1  0.74301000  0.79946500  0.90734900  1
  Bi  Bi128  1  0.50000000  0.74494300  0.50000000  1
  Bi  Bi129  1  0.50000000  0.25578600  0.00000000  1
  Bi  Bi130  1  0.25699000  0.20053500  0.09265100  1
  Bi  Bi131  1  0.43104850  0.35166150  0.24340100  1
  Bi  Bi132  1  0.57470200  0.00000000  0.46436200  1
  Bi  Bi133  1  0.73056000  0.80225500  0.60718800  1
  Bi  Bi134  1  0.56895150  0.35166150  0.75659900  1
  Bi  Bi135  1  0.04925200  0.00000000  0.43446900  1
  Bi  Bi136  1  0.88199700  0.50000000  0.25619600  1
  Bi  Bi137  1  0.92126650  0.31790850  0.74366600  1
  Bi  Bi138  1  0.56038500  0.50000000  0.05929700  1
  Bi  Bi139  1  0.92126650  0.68209150  0.74366600  1
  Bi  Bi140  1  0.76056700  0.50000000  0.88331800  1
  Bi  Bi141  1  0.00000000  0.24421400  0.00000000  1
  Bi  Bi142  1  0.75699000  0.29946500  0.09265100  1
  Bi  Bi143  1  0.75145200  0.50000000  0.62380700  1
  Bi  Bi144  1  0.45074800  0.50000000  0.56553100  1
  Bi  Bi145  1  0.06895150  0.14833850  0.75659900  1
  Bi  Bi146  1  0.03651800  0.50000000  0.92360100  1
  Bi  Bi147  1  0.34717300  0.50000000  0.74691800  1
  Bi  Bi148  1  0.00000000  0.75505700  0.50000000  1
  Bi  Bi149  1  0.93104850  0.14833850  0.24340100  1
  Bi  Bi150  1  0.24854800  0.50000000  0.37619300  1
  Bi  Bi151  1  0.65282700  0.50000000  0.25308200  1
  Bi  Bi152  1  0.76944000  0.69774500  0.39281200  1
  Bi  Bi153  1  0.11800300  0.50000000  0.74380400  1
  Bi  Bi154  1  0.07873350  0.31790850  0.25633400  1
  Bi  Bi155  1  0.07873350  0.68209150  0.25633400  1
  Bi  Bi156  1  0.43961500  0.50000000  0.94070300  1
  Bi  Bi157  1  0.24301000  0.70053500  0.90734900  1
  Bi  Bi158  1  0.96348200  0.50000000  0.07639900  1
  Bi  Bi159  1  0.23056000  0.69774500  0.60718800  1
  Bi  Bi160  1  0.23943300  0.50000000  0.11668200  1
  Bi  Bi161  1  0.92529800  0.50000000  0.53563800  1
  Bi  Bi162  1  0.76944000  0.30225500  0.39281200  1
  Bi  Bi163  1  0.24301000  0.29946500  0.90734900  1
  Bi  Bi164  1  0.00000000  0.24494300  0.50000000  1
  Bi  Bi165  1  0.00000000  0.75578600  0.00000000  1
  Bi  Bi166  1  0.75699000  0.70053500  0.09265100  1
  Bi  Bi167  1  0.93104850  0.85166150  0.24340100  1
  Bi  Bi168  1  0.07470200  0.50000000  0.46436200  1
  Bi  Bi169  1  0.23056000  0.30225500  0.60718800  1
  Bi  Bi170  1  0.06895150  0.85166150  0.75659900  1
  Bi  Bi171  1  0.54925200  0.50000000  0.43446900  1
