# generated using pymatgen
data_Lu(PO3)3
_symmetry_space_group_name_H-M   'P 1'
_cell_length_a   21.14601773
_cell_length_b   21.14601773
_cell_length_c   12.23953361
_cell_angle_alpha   90.00000000
_cell_angle_beta   90.00000000
_cell_angle_gamma   120.00000000
_symmetry_Int_Tables_number   1
_chemical_formula_structural   Lu(PO3)3
_chemical_formula_sum   'Lu24 P72 O216'
_cell_volume   4739.71998262
_cell_formula_units_Z   24
loop_
 _symmetry_equiv_pos_site_id
 _symmetry_equiv_pos_as_xyz
  1  'x, y, z'
loop_
 _atom_site_type_symbol
 _atom_site_label
 _atom_site_symmetry_multiplicity
 _atom_site_fract_x
 _atom_site_fract_y
 _atom_site_fract_z
 _atom_site_occupancy
  Lu  Lu0  1  0.25754067  0.03216133  0.76371333  1
  Lu  Lu1  1  0.00000000  0.00000000  0.50000000  1
  Lu  Lu2  1  0.40912600  0.30117200  0.56962000  1
  Lu  Lu3  1  0.30117200  0.89204600  0.43038000  1
  Lu  Lu4  1  0.22537933  0.25754067  0.23628667  1
  Lu  Lu5  1  0.36549467  0.44128733  0.90295333  1
  Lu  Lu6  1  0.44128733  0.07579267  0.09704667  1
  Lu  Lu7  1  0.00000000  0.00000000  0.00000000  1
  Lu  Lu8  1  0.92420733  0.36549467  0.09704667  1
  Lu  Lu9  1  0.66666667  0.33333333  0.83333333  1
  Lu  Lu10  1  0.07579267  0.63450533  0.90295333  1
  Lu  Lu11  1  0.96783867  0.22537933  0.76371333  1
  Lu  Lu12  1  0.89204600  0.59087400  0.56962000  1
  Lu  Lu13  1  0.03216133  0.77462067  0.23628667  1
  Lu  Lu14  1  0.10795400  0.40912600  0.43038000  1
  Lu  Lu15  1  0.66666667  0.33333333  0.33333333  1
  Lu  Lu16  1  0.59087400  0.69882800  0.43038000  1
  Lu  Lu17  1  0.33333333  0.66666667  0.16666667  1
  Lu  Lu18  1  0.74245933  0.96783867  0.23628667  1
  Lu  Lu19  1  0.63450533  0.55871267  0.09704667  1
  Lu  Lu20  1  0.55871267  0.92420733  0.90295333  1
  Lu  Lu21  1  0.69882800  0.10795400  0.56962000  1
  Lu  Lu22  1  0.77462067  0.74245933  0.76371333  1
  Lu  Lu23  1  0.33333333  0.66666667  0.66666667  1
  P  P24  1  0.49697600  0.04153600  0.83278600  1
  P  P25  1  0.37486933  0.21122667  0.83388067  1
  P  P26  1  0.58336800  0.41492900  0.68653500  1
  P  P27  1  0.25173767  0.50177233  0.01986833  1
  P  P28  1  0.24711500  0.97293500  0.04010200  1
  P  P29  1  0.36192967  0.82068033  0.83822833  1
  P  P30  1  0.30473700  0.51265300  0.49510500  1
  P  P31  1  0.15401367  0.12541733  0.82843833  1
  P  P32  1  0.36039833  0.94084667  0.70676867  1
  P  P33  1  0.54124933  0.36192967  0.16177167  1
  P  P34  1  0.27418000  0.24711500  0.95989800  1
  P  P35  1  0.16489433  0.08329867  0.35320167  1
  P  P36  1  0.50177233  0.25003467  0.98013167  1
  P  P37  1  0.41955167  0.36039833  0.29323133  1
  P  P38  1  0.39248667  0.08621833  0.37343533  1
  P  P39  1  0.29179733  0.12210667  0.49945267  1
  P  P40  1  0.08329867  0.91840433  0.64679833  1
  P  P41  1  0.51265300  0.20791600  0.50489500  1
  P  P42  1  0.16969067  0.29179733  0.50054733  1
  P  P43  1  0.21122667  0.83635733  0.16611933  1
  P  P44  1  0.41492900  0.83156100  0.31346500  1
  P  P45  1  0.30626833  0.39248667  0.62656467  1
  P  P46  1  0.12541733  0.97140367  0.17156167  1
  P  P47  1  0.45544000  0.49697600  0.16721400  1
  P  P48  1  0.16364267  0.37486933  0.16611933  1
  P  P49  1  0.04153600  0.54456000  0.16721400  1
  P  P50  1  0.25003467  0.74826233  0.01986833  1
  P  P51  1  0.91840433  0.83510567  0.35320167  1
  P  P52  1  0.91378167  0.30626833  0.37343533  1
  P  P53  1  0.02859633  0.15401367  0.17156167  1
  P  P54  1  0.97140367  0.84598633  0.82843833  1
  P  P55  1  0.82068033  0.45875067  0.16177167  1
  P  P56  1  0.02706500  0.27418000  0.04010200  1
  P  P57  1  0.20791600  0.69526300  0.49510500  1
  P  P58  1  0.94084667  0.58044833  0.29323133  1
  P  P59  1  0.83156100  0.41663200  0.68653500  1
  P  P60  1  0.16843900  0.58336800  0.31346500  1
  P  P61  1  0.08621833  0.69373167  0.62656467  1
  P  P62  1  0.05915333  0.41955167  0.70676867  1
  P  P63  1  0.95846400  0.45544000  0.83278600  1
  P  P64  1  0.74996533  0.25173767  0.98013167  1
  P  P65  1  0.17931967  0.54124933  0.83822833  1
  P  P66  1  0.83635733  0.62513067  0.83388067  1
  P  P67  1  0.87789333  0.16969067  0.49945267  1
  P  P68  1  0.08159567  0.16489433  0.64679833  1
  P  P69  1  0.97293500  0.72582000  0.95989800  1
  P  P70  1  0.79208400  0.30473700  0.50489500  1
  P  P71  1  0.12210667  0.83030933  0.50054733  1
  P  P72  1  0.83030933  0.70820267  0.49945267  1
  P  P73  1  0.70820267  0.87789333  0.50054733  1
  P  P74  1  0.91670133  0.08159567  0.35320167  1
  P  P75  1  0.58507100  0.16843900  0.68653500  1
  P  P76  1  0.58044833  0.63960167  0.70676867  1
  P  P77  1  0.69526300  0.48734700  0.50489500  1
  P  P78  1  0.63807033  0.17931967  0.16177167  1
  P  P79  1  0.48734700  0.79208400  0.49510500  1
  P  P80  1  0.69373167  0.60751333  0.37343533  1
  P  P81  1  0.87458267  0.02859633  0.82843833  1
  P  P82  1  0.60751333  0.91378167  0.62656467  1
  P  P83  1  0.49822767  0.74996533  0.01986833  1
  P  P84  1  0.83510567  0.91670133  0.64679833  1
  P  P85  1  0.75288500  0.02706500  0.95989800  1
  P  P86  1  0.72582000  0.75288500  0.04010200  1
  P  P87  1  0.62513067  0.78877333  0.16611933  1
  P  P88  1  0.41663200  0.58507100  0.31346500  1
  P  P89  1  0.84598633  0.87458267  0.17156167  1
  P  P90  1  0.50302400  0.95846400  0.16721400  1
  P  P91  1  0.54456000  0.50302400  0.83278600  1
  P  P92  1  0.74826233  0.49822767  0.98013167  1
  P  P93  1  0.63960167  0.05915333  0.29323133  1
  P  P94  1  0.45875067  0.63807033  0.83822833  1
  P  P95  1  0.78877333  0.16364267  0.83388067  1
  O  O96  1  0.32063767  0.80527333  0.95273533  1
  O  O97  1  0.15254467  0.94163633  0.70872933  1
  O  O98  1  0.44499400  0.97908600  0.15455000  1
  O  O99  1  0.08389133  0.99852967  0.10583767  1
  O  O100  1  0.24972533  0.22883767  0.07595167  1
  O  O101  1  0.07000233  0.97688967  0.60290067  1
  O  O102  1  0.53227133  0.12305067  0.78588167  1
  O  O103  1  0.45575833  0.18078867  0.04206267  1
  O  O104  1  0.31241933  0.20075867  0.51211667  1
  O  O105  1  0.45332567  0.44563133  0.26686033  1
  O  O106  1  0.10859600  0.19861400  0.19547300  1
  O  O107  1  0.35424733  0.13257467  0.82121667  1
  O  O108  1  0.34602900  0.52806000  0.38059800  1
  O  O109  1  0.25303067  0.87982933  0.26393133  1
  O  O110  1  0.34119900  0.31916600  0.25933100  1
  O  O111  1  0.34102767  0.11999233  0.39980633  1
  O  O112  1  0.33307400  0.46191200  0.54809100  1
  O  O113  1  0.58277533  0.33480367  0.22749567  1
  O  O114  1  0.31244567  0.41694133  0.74261833  1
  O  O115  1  0.43782900  0.35422100  0.40928500  1
  O  O116  1  0.09311267  0.07000233  0.39709933  1
  O  O117  1  0.20475467  0.20449533  0.88142433  1
  O  O118  1  0.46191200  0.12883800  0.45190900  1
  O  O119  1  0.41694133  0.10449567  0.25738167  1
  O  O120  1  0.44563133  0.99230567  0.73313967  1
  O  O121  1  0.15130233  0.01269567  0.28606867  1
  O  O122  1  0.22103533  0.34102767  0.60019367  1
  O  O123  1  0.40922067  0.53227133  0.21411833  1
  O  O124  1  0.19861400  0.09001800  0.80452700  1
  O  O125  1  0.24331533  0.77526267  0.47119367  1
  O  O126  1  0.51412200  0.39169700  0.62460400  1
  O  O127  1  0.51536433  0.32063767  0.04726467  1
  O  O128  1  0.58130500  0.24944200  0.43917100  1
  O  O129  1  0.21090833  0.15254467  0.29127067  1
  O  O130  1  0.20449533  0.99974067  0.11857567  1
  O  O131  1  0.31130033  0.32546767  0.92599767  1
  O  O132  1  0.21028267  0.07588733  0.45254833  1
  O  O133  1  0.46590800  0.44499400  0.84545000  1
  O  O134  1  0.45350400  0.03986800  0.93059800  1
  O  O135  1  0.21316267  0.29346533  0.40273533  1
  O  O136  1  0.31916600  0.97796700  0.74066900  1
  O  O137  1  0.39169700  0.87757500  0.37539600  1
  O  O138  1  0.21334100  0.88770200  0.06647300  1
  O  O139  1  0.32563900  0.21334100  0.93352700  1
  O  O140  1  0.35644367  0.75977933  0.26956733  1
  O  O141  1  0.46805267  0.24331533  0.52880633  1
  O  O142  1  0.25744600  0.80106200  0.11921500  1
  O  O143  1  0.33480367  0.75202833  0.77250433  1
  O  O144  1  0.13439533  0.21028267  0.54745167  1
  O  O145  1  0.52806000  0.18203100  0.61940200  1
  O  O146  1  0.55807067  0.13471933  0.13786033  1
  O  O147  1  0.29346533  0.08030267  0.59726467  1
  O  O148  1  0.27496967  0.45575833  0.95793733  1
  O  O149  1  0.22883767  0.97911233  0.92404833  1
  O  O150  1  0.13860667  0.15130233  0.71393133  1
  O  O151  1  0.45638400  0.25744600  0.88078500  1
  O  O152  1  0.33359267  0.87142133  0.78524233  1
  O  O153  1  0.37320133  0.25303067  0.73606867  1
  O  O154  1  0.32546767  0.01416733  0.07400233  1
  O  O155  1  0.22167267  0.35424733  0.17878333  1
  O  O156  1  0.35536633  0.00786567  0.40733567  1
  O  O157  1  0.20075867  0.88833933  0.48788333  1
  O  O158  1  0.46217133  0.33359267  0.21475767  1
  O  O159  1  0.42335133  0.55807067  0.86213967  1
  O  O160  1  0.34750067  0.35536633  0.59266433  1
  O  O161  1  0.31022300  0.57355400  0.06376600  1
  O  O162  1  0.33186300  0.58130500  0.56082900  1
  O  O163  1  0.57355400  0.26333100  0.93623400  1
  O  O164  1  0.35422100  0.91639200  0.59071500  1
  O  O165  1  0.41363600  0.45350400  0.06940200  1
  O  O166  1  0.59666433  0.35644367  0.73043267  1
  O  O167  1  0.08536167  0.08389133  0.89416233  1
  O  O168  1  0.98730433  0.13860667  0.28606867  1
  O  O169  1  0.81921133  0.27496967  0.04206267  1
  O  O170  1  0.11166067  0.31241933  0.48788333  1
  O  O171  1  0.75055800  0.33186300  0.43917100  1
  O  O172  1  0.91639200  0.56217100  0.40928500  1
  O  O173  1  0.73666900  0.31022300  0.93623400  1
  O  O174  1  0.19893800  0.45638400  0.11921500  1
  O  O175  1  0.12242500  0.51412200  0.37539600  1
  O  O176  1  0.97908600  0.53409200  0.84545000  1
  O  O177  1  0.11999233  0.77896467  0.60019367  1
  O  O178  1  0.77526267  0.53194733  0.52880633  1
  O  O179  1  0.02091400  0.46590800  0.15455000  1
  O  O180  1  0.01269567  0.86139333  0.71393133  1
  O  O181  1  0.91969733  0.21316267  0.59726467  1
  O  O182  1  0.00786567  0.65249933  0.59266433  1
  O  O183  1  0.00769433  0.45332567  0.73313967  1
  O  O184  1  0.99974067  0.79524533  0.88142433  1
  O  O185  1  0.24944200  0.66813700  0.56082900  1
  O  O186  1  0.97911233  0.75027467  0.07595167  1
  O  O187  1  0.10449567  0.68755433  0.74261833  1
  O  O188  1  0.75977933  0.40333567  0.73043267  1
  O  O189  1  0.87142133  0.53782867  0.21475767  1
  O  O190  1  0.12857867  0.46217133  0.78524233  1
  O  O191  1  0.08360800  0.43782900  0.59071500  1
  O  O192  1  0.11229800  0.32563900  0.06647300  1
  O  O193  1  0.81796900  0.34602900  0.61940200  1
  O  O194  1  0.88770200  0.67436100  0.93352700  1
  O  O195  1  0.07588733  0.86560467  0.54745167  1
  O  O196  1  0.86528067  0.42335133  0.13786033  1
  O  O197  1  0.90998200  0.10859600  0.80452700  1
  O  O198  1  0.18078867  0.72503033  0.95793733  1
  O  O199  1  0.18203100  0.65397100  0.38059800  1
  O  O200  1  0.24797167  0.58277533  0.77250433  1
  O  O201  1  0.87757500  0.48587800  0.62460400  1
  O  O202  1  0.87116200  0.33307400  0.45190900  1
  O  O203  1  0.97796700  0.65880100  0.25933100  1
  O  O204  1  0.87694933  0.40922067  0.78588167  1
  O  O205  1  0.13257467  0.77832733  0.17878333  1
  O  O206  1  0.12017067  0.37320133  0.26393133  1
  O  O207  1  0.87982933  0.62679867  0.73606867  1
  O  O208  1  0.98583267  0.31130033  0.07400233  1
  O  O209  1  0.05836367  0.21090833  0.70872933  1
  O  O210  1  0.88000767  0.22103533  0.39980633  1
  O  O211  1  0.99230567  0.54667433  0.26686033  1
  O  O212  1  0.02311033  0.09311267  0.60290067  1
  O  O213  1  0.13471933  0.57664867  0.86213967  1
  O  O214  1  0.92411267  0.13439533  0.45254833  1
  O  O215  1  0.00147033  0.08536167  0.10583767  1
  O  O216  1  0.80106200  0.54361600  0.88078500  1
  O  O217  1  0.19472667  0.51536433  0.95273533  1
  O  O218  1  0.22473733  0.46805267  0.47119367  1
  O  O219  1  0.96013200  0.41363600  0.93059800  1
  O  O220  1  0.94163633  0.78909167  0.29127067  1
  O  O221  1  0.89550433  0.31244567  0.25738167  1
  O  O222  1  0.80527333  0.48463567  0.04726467  1
  O  O223  1  0.12305067  0.59077933  0.21411833  1
  O  O224  1  0.00025933  0.20475467  0.11857567  1
  O  O225  1  0.03986800  0.58636400  0.06940200  1
  O  O226  1  0.99213433  0.34750067  0.40733567  1
  O  O227  1  0.88833933  0.68758067  0.51211667  1
  O  O228  1  0.02203300  0.34119900  0.74066900  1
  O  O229  1  0.86742533  0.22167267  0.82121667  1
  O  O230  1  0.12883800  0.66692600  0.54809100  1
  O  O231  1  0.09001800  0.89140400  0.19547300  1
  O  O232  1  0.01416733  0.68869967  0.92599767  1
  O  O233  1  0.97688967  0.90688733  0.39709933  1
  O  O234  1  0.99852967  0.91463833  0.89416233  1
  O  O235  1  0.24022067  0.59666433  0.26956733  1
  O  O236  1  0.02088767  0.24972533  0.92404833  1
  O  O237  1  0.08030267  0.78683733  0.40273533  1
  O  O238  1  0.26333100  0.68977700  0.06376600  1
  O  O239  1  0.75202833  0.41722467  0.22749567  1
  O  O240  1  0.65397100  0.47194000  0.61940200  1
  O  O241  1  0.48587800  0.60830300  0.37539600  1
  O  O242  1  0.77832733  0.64575267  0.82121667  1
  O  O243  1  0.41722467  0.66519633  0.77250433  1
  O  O244  1  0.58305867  0.89550433  0.74261833  1
  O  O245  1  0.40333567  0.64355633  0.26956733  1
  O  O246  1  0.86560467  0.78971733  0.45254833  1
  O  O247  1  0.78909167  0.84745533  0.70872933  1
  O  O248  1  0.64575267  0.86742533  0.17878333  1
  O  O249  1  0.78665900  0.11229800  0.93352700  1
  O  O250  1  0.44192933  0.86528067  0.86213967  1
  O  O251  1  0.68758067  0.79924133  0.48788333  1
  O  O252  1  0.67936233  0.19472667  0.04726467  1
  O  O253  1  0.58636400  0.54649600  0.93059800  1
  O  O254  1  0.67453233  0.98583267  0.92599767  1
  O  O255  1  0.67436100  0.78665900  0.06647300  1
  O  O256  1  0.66640733  0.12857867  0.21475767  1
  O  O257  1  0.91610867  0.00147033  0.89416233  1
  O  O258  1  0.64577900  0.08360800  0.40928500  1
  O  O259  1  0.77116233  0.02088767  0.07595167  1
  O  O260  1  0.42644600  0.73666900  0.06376600  1
  O  O261  1  0.53808800  0.87116200  0.54809100  1
  O  O262  1  0.79524533  0.79550467  0.11857567  1
  O  O263  1  0.75027467  0.77116233  0.92404833  1
  O  O264  1  0.77896467  0.65897233  0.39980633  1
  O  O265  1  0.48463567  0.67936233  0.95273533  1
  O  O266  1  0.55436867  0.00769433  0.26686033  1
  O  O267  1  0.74255400  0.19893800  0.88078500  1
  O  O268  1  0.53194733  0.75668467  0.47119367  1
  O  O269  1  0.57664867  0.44192933  0.13786033  1
  O  O270  1  0.84745533  0.05836367  0.29127067  1
  O  O271  1  0.84869767  0.98730433  0.71393133  1
  O  O272  1  0.91463833  0.91610867  0.10583767  1
  O  O273  1  0.54424167  0.81921133  0.95793733  1
  O  O274  1  0.53782867  0.66640733  0.78524233  1
  O  O275  1  0.64463367  0.99213433  0.59266433  1
  O  O276  1  0.54361600  0.74255400  0.11921500  1
  O  O277  1  0.79924133  0.11166067  0.51211667  1
  O  O278  1  0.78683733  0.70653467  0.59726467  1
  O  O279  1  0.54649600  0.96013200  0.06940200  1
  O  O280  1  0.65249933  0.64463367  0.40733567  1
  O  O281  1  0.72503033  0.54424167  0.04206267  1
  O  O282  1  0.54667433  0.55436867  0.73313967  1
  O  O283  1  0.65897233  0.88000767  0.60019367  1
  O  O284  1  0.68977700  0.42644600  0.93623400  1
  O  O285  1  0.80138600  0.90998200  0.19547300  1
  O  O286  1  0.59077933  0.46772867  0.78588167  1
  O  O287  1  0.66813700  0.41869500  0.43917100  1
  O  O288  1  0.46772867  0.87694933  0.21411833  1
  O  O289  1  0.86139333  0.84869767  0.28606867  1
  O  O290  1  0.89140400  0.80138600  0.80452700  1
  O  O291  1  0.62679867  0.74696933  0.26393133  1
  O  O292  1  0.60830300  0.12242500  0.62460400  1
  O  O293  1  0.56217100  0.64577900  0.59071500  1
  O  O294  1  0.47194000  0.81796900  0.38059800  1
  O  O295  1  0.78971733  0.92411267  0.54745167  1
  O  O296  1  0.66692600  0.53808800  0.45190900  1
  O  O297  1  0.70653467  0.91969733  0.40273533  1
  O  O298  1  0.65880100  0.68083400  0.74066900  1
  O  O299  1  0.55500600  0.02091400  0.84545000  1
  O  O300  1  0.68869967  0.67453233  0.07400233  1
  O  O301  1  0.53409200  0.55500600  0.15455000  1
  O  O302  1  0.79550467  0.00025933  0.88142433  1
  O  O303  1  0.75668467  0.22473733  0.52880633  1
  O  O304  1  0.68083400  0.02203300  0.25933100  1
  O  O305  1  0.64355633  0.24022067  0.73043267  1
  O  O306  1  0.66519633  0.24797167  0.22749567  1
  O  O307  1  0.90688733  0.92999767  0.60290067  1
  O  O308  1  0.68755433  0.58305867  0.25738167  1
  O  O309  1  0.74696933  0.12017067  0.73606867  1
  O  O310  1  0.92999767  0.02311033  0.39709933  1
  O  O311  1  0.41869500  0.75055800  0.56082900  1
