# generated using pymatgen
data_NaGe2(PO4)3
_symmetry_space_group_name_H-M   'P 1'
_cell_length_a   8.21990440
_cell_length_b   8.21990440
_cell_length_c   21.83616427
_cell_angle_alpha   90.00000000
_cell_angle_beta   90.00000000
_cell_angle_gamma   120.00000000
_symmetry_Int_Tables_number   1
_chemical_formula_structural   NaGe2(PO4)3
_chemical_formula_sum   'Na6 Ge12 P18 O72'
_cell_volume   1277.73419368
_cell_formula_units_Z   6
loop_
 _symmetry_equiv_pos_site_id
 _symmetry_equiv_pos_as_xyz
  1  'x, y, z'
loop_
 _atom_site_type_symbol
 _atom_site_label
 _atom_site_symmetry_multiplicity
 _atom_site_fract_x
 _atom_site_fract_y
 _atom_site_fract_z
 _atom_site_occupancy
  Na  Na0  1  0.00000000  0.00000000  0.00000000  1
  Na  Na1  1  0.33333333  0.66666667  0.16666667  1
  Na  Na2  1  0.66666667  0.33333333  0.33333333  1
  Na  Na3  1  1.00000000  0.00000000  0.50000000  1
  Na  Na4  1  0.33333333  0.66666667  0.66666667  1
  Na  Na5  1  0.66666667  0.33333333  0.83333333  1
  Ge  Ge6  1  0.33333333  0.66666667  0.01865567  1
  Ge  Ge7  1  0.33333333  0.66666667  0.31467767  1
  Ge  Ge8  1  0.00000000  0.00000000  0.14427400  1
  Ge  Ge9  1  0.66666667  0.33333333  0.18905933  1
  Ge  Ge10  1  0.00000000  0.00000000  0.35198900  1
  Ge  Ge11  1  0.00000000  0.00000000  0.64801100  1
  Ge  Ge12  1  0.66666667  0.33333333  0.47760733  1
  Ge  Ge13  1  0.33333333  0.66666667  0.52239267  1
  Ge  Ge14  1  0.66666667  0.33333333  0.68532233  1
  Ge  Ge15  1  0.66666667  0.33333333  0.98134433  1
  Ge  Ge16  1  0.33333333  0.66666667  0.81094067  1
  Ge  Ge17  1  0.00000000  0.00000000  0.85572600  1
  P  P18  1  0.66785267  0.61937933  0.08293133  1
  P  P19  1  0.95152667  0.33214733  0.08293133  1
  P  P20  1  0.38062067  0.04847333  0.08293133  1
  P  P21  1  0.99881400  0.71395400  0.25040200  1
  P  P22  1  0.71514000  0.00118600  0.25040200  1
  P  P23  1  0.28604600  0.28486000  0.25040200  1
  P  P24  1  0.33451933  0.95271267  0.41626467  1
  P  P25  1  0.61819333  0.66548067  0.41626467  1
  P  P26  1  0.04728733  0.38180667  0.41626467  1
  P  P27  1  0.66548067  0.04728733  0.58373533  1
  P  P28  1  0.38180667  0.33451933  0.58373533  1
  P  P29  1  0.95271267  0.61819333  0.58373533  1
  P  P30  1  0.00118600  0.28604600  0.74959800  1
  P  P31  1  0.28486000  0.99881400  0.74959800  1
  P  P32  1  0.71395400  0.71514000  0.74959800  1
  P  P33  1  0.33214733  0.38062067  0.91706867  1
  P  P34  1  0.04847333  0.66785267  0.91706867  1
  P  P35  1  0.61937933  0.95152667  0.91706867  1
  O  O36  1  0.46975533  0.59501167  0.07292767  1
  O  O37  1  0.12525633  0.53024467  0.07292767  1
  O  O38  1  0.40498833  0.87474367  0.07292767  1
  O  O39  1  0.19691133  0.73832167  0.26040567  1
  O  O40  1  0.54141033  0.80308867  0.26040567  1
  O  O41  1  0.26167833  0.45858967  0.26040567  1
  O  O42  1  0.81434700  0.83032300  0.08843100  1
  O  O43  1  0.01597600  0.18565300  0.08843100  1
  O  O44  1  0.16967700  0.98402400  0.08843100  1
  O  O45  1  0.85231967  0.50301033  0.24490233  1
  O  O46  1  0.65069067  0.14768033  0.24490233  1
  O  O47  1  0.49698967  0.34930933  0.24490233  1
  O  O48  1  0.73822267  0.55018433  0.02867233  1
  O  O49  1  0.81196167  0.26177733  0.02867233  1
  O  O50  1  0.44981567  0.18803833  0.02867233  1
  O  O51  1  0.92844400  0.78314900  0.30466100  1
  O  O52  1  0.85470500  0.07155600  0.30466100  1
  O  O53  1  0.21685100  0.14529500  0.30466100  1
  O  O54  1  0.65215500  0.51835100  0.14361800  1
  O  O55  1  0.86619600  0.34784500  0.14361800  1
  O  O56  1  0.48164900  0.13380400  0.14361800  1
  O  O57  1  0.01451167  0.81498233  0.18971533  1
  O  O58  1  0.80047067  0.98548833  0.18971533  1
  O  O59  1  0.18501767  0.19952933  0.18971533  1
  O  O60  1  0.13642200  0.92834500  0.40626100  1
  O  O61  1  0.79192300  0.86357800  0.40626100  1
  O  O62  1  0.07165500  0.20807700  0.40626100  1
  O  O63  1  0.86357800  0.07165500  0.59373900  1
  O  O64  1  0.20807700  0.13642200  0.59373900  1
  O  O65  1  0.92834500  0.79192300  0.59373900  1
  O  O66  1  0.48101367  0.16365633  0.42176433  1
  O  O67  1  0.68264267  0.51898633  0.42176433  1
  O  O68  1  0.83634367  0.31735733  0.42176433  1
  O  O69  1  0.51898633  0.83634367  0.57823567  1
  O  O70  1  0.31735733  0.48101367  0.57823567  1
  O  O71  1  0.16365633  0.68264267  0.57823567  1
  O  O72  1  0.40488933  0.88351767  0.36200567  1
  O  O73  1  0.47862833  0.59511067  0.36200567  1
  O  O74  1  0.11648233  0.52137167  0.36200567  1
  O  O75  1  0.59511067  0.11648233  0.63799433  1
  O  O76  1  0.52137167  0.40488933  0.63799433  1
  O  O77  1  0.88351767  0.47862833  0.63799433  1
  O  O78  1  0.31882167  0.85168433  0.47695133  1
  O  O79  1  0.53286267  0.68117833  0.47695133  1
  O  O80  1  0.14831567  0.46713733  0.47695133  1
  O  O81  1  0.68117833  0.14831567  0.52304867  1
  O  O82  1  0.46713733  0.31882167  0.52304867  1
  O  O83  1  0.85168433  0.53286267  0.52304867  1
  O  O84  1  0.80308867  0.26167833  0.73959433  1
  O  O85  1  0.45858967  0.19691133  0.73959433  1
  O  O86  1  0.73832167  0.54141033  0.73959433  1
  O  O87  1  0.53024467  0.40498833  0.92707233  1
  O  O88  1  0.87474367  0.46975533  0.92707233  1
  O  O89  1  0.59501167  0.12525633  0.92707233  1
  O  O90  1  0.14768033  0.49698967  0.75509767  1
  O  O91  1  0.34930933  0.85231967  0.75509767  1
  O  O92  1  0.50301033  0.65069067  0.75509767  1
  O  O93  1  0.18565300  0.16967700  0.91156900  1
  O  O94  1  0.98402400  0.81434700  0.91156900  1
  O  O95  1  0.83032300  0.01597600  0.91156900  1
  O  O96  1  0.07155600  0.21685100  0.69533900  1
  O  O97  1  0.14529500  0.92844400  0.69533900  1
  O  O98  1  0.78314900  0.85470500  0.69533900  1
  O  O99  1  0.26177733  0.44981567  0.97132767  1
  O  O100  1  0.18803833  0.73822267  0.97132767  1
  O  O101  1  0.55018433  0.81196167  0.97132767  1
  O  O102  1  0.98548833  0.18501767  0.81028467  1
  O  O103  1  0.19952933  0.01451167  0.81028467  1
  O  O104  1  0.81498233  0.80047067  0.81028467  1
  O  O105  1  0.34784500  0.48164900  0.85638200  1
  O  O106  1  0.13380400  0.65215500  0.85638200  1
  O  O107  1  0.51835100  0.86619600  0.85638200  1
