# generated using pymatgen
data_NaSr4(BO3)3
_symmetry_space_group_name_H-M   'P 1'
_cell_length_a   15.31348600
_cell_length_b   15.31348600
_cell_length_c   15.31348600
_cell_angle_alpha   90.00000000
_cell_angle_beta   90.00000000
_cell_angle_gamma   90.00000000
_symmetry_Int_Tables_number   1
_chemical_formula_structural   NaSr4(BO3)3
_chemical_formula_sum   'Na16 Sr64 B48 O144'
_cell_volume   3591.05616361
_cell_formula_units_Z   16
loop_
 _symmetry_equiv_pos_site_id
 _symmetry_equiv_pos_as_xyz
  1  'x, y, z'
loop_
 _atom_site_type_symbol
 _atom_site_label
 _atom_site_symmetry_multiplicity
 _atom_site_fract_x
 _atom_site_fract_y
 _atom_site_fract_z
 _atom_site_occupancy
  Na  Na0  1  0.87500000  0.37500000  0.12500000  1
  Na  Na1  1  0.12500000  0.87500000  0.37500000  1
  Na  Na2  1  0.12500000  0.62500000  0.87500000  1
  Na  Na3  1  0.12500000  0.12500000  0.12500000  1
  Na  Na4  1  0.37500000  0.37500000  0.37500000  1
  Na  Na5  1  0.37500000  0.12500000  0.87500000  1
  Na  Na6  1  0.62500000  0.87500000  0.12500000  1
  Na  Na7  1  0.87500000  0.12500000  0.62500000  1
  Na  Na8  1  0.37500000  0.87500000  0.62500000  1
  Na  Na9  1  0.62500000  0.37500000  0.87500000  1
  Na  Na10  1  0.62500000  0.12500000  0.37500000  1
  Na  Na11  1  0.62500000  0.62500000  0.62500000  1
  Na  Na12  1  0.87500000  0.87500000  0.87500000  1
  Na  Na13  1  0.87500000  0.62500000  0.37500000  1
  Na  Na14  1  0.12500000  0.37500000  0.62500000  1
  Na  Na15  1  0.37500000  0.62500000  0.12500000  1
  Sr  Sr16  1  0.00000000  0.50000000  0.00000000  1
  Sr  Sr17  1  0.00000000  0.25000000  0.00319700  1
  Sr  Sr18  1  0.25000000  0.00319700  0.00000000  1
  Sr  Sr19  1  0.00000000  0.25000000  0.74680300  1
  Sr  Sr20  1  0.00000000  0.25000000  0.50319700  1
  Sr  Sr21  1  0.25000000  0.25319700  0.50000000  1
  Sr  Sr22  1  0.25319700  0.50000000  0.25000000  1
  Sr  Sr23  1  0.00000000  0.25000000  0.24680300  1
  Sr  Sr24  1  0.25000000  0.74680300  0.00000000  1
  Sr  Sr25  1  0.24680300  0.00000000  0.25000000  1
  Sr  Sr26  1  0.75319700  0.50000000  0.25000000  1
  Sr  Sr27  1  0.99680300  0.50000000  0.25000000  1
  Sr  Sr28  1  0.75000000  0.25000000  0.25000000  1
  Sr  Sr29  1  0.25000000  0.25000000  0.75000000  1
  Sr  Sr30  1  0.25000000  0.24680300  0.00000000  1
  Sr  Sr31  1  0.25000000  0.75319700  0.50000000  1
  Sr  Sr32  1  0.25000000  0.99680300  0.50000000  1
  Sr  Sr33  1  0.74680300  0.00000000  0.25000000  1
  Sr  Sr34  1  0.00319700  0.00000000  0.25000000  1
  Sr  Sr35  1  0.50000000  0.25000000  0.99680300  1
  Sr  Sr36  1  0.50000000  0.00000000  0.00000000  1
  Sr  Sr37  1  0.50000000  0.25000000  0.25319700  1
  Sr  Sr38  1  0.50000000  0.25000000  0.75319700  1
  Sr  Sr39  1  0.00000000  0.00000000  0.50000000  1
  Sr  Sr40  1  0.25000000  0.75000000  0.25000000  1
  Sr  Sr41  1  0.25000000  0.50319700  0.00000000  1
  Sr  Sr42  1  0.00000000  0.00000000  0.00000000  1
  Sr  Sr43  1  0.25000000  0.49680300  0.50000000  1
  Sr  Sr44  1  0.25000000  0.25000000  0.25000000  1
  Sr  Sr45  1  0.49680300  0.50000000  0.25000000  1
  Sr  Sr46  1  0.50319700  0.00000000  0.25000000  1
  Sr  Sr47  1  0.50000000  0.25000000  0.49680300  1
  Sr  Sr48  1  0.50000000  0.00000000  0.50000000  1
  Sr  Sr49  1  0.50000000  0.75000000  0.50319700  1
  Sr  Sr50  1  0.75000000  0.50319700  0.50000000  1
  Sr  Sr51  1  0.50000000  0.75000000  0.24680300  1
  Sr  Sr52  1  0.50000000  0.75000000  0.00319700  1
  Sr  Sr53  1  0.75000000  0.75319700  0.00000000  1
  Sr  Sr54  1  0.75319700  0.00000000  0.75000000  1
  Sr  Sr55  1  0.50000000  0.75000000  0.74680300  1
  Sr  Sr56  1  0.75000000  0.24680300  0.50000000  1
  Sr  Sr57  1  0.74680300  0.50000000  0.75000000  1
  Sr  Sr58  1  0.25319700  0.00000000  0.75000000  1
  Sr  Sr59  1  0.49680300  0.00000000  0.75000000  1
  Sr  Sr60  1  0.25000000  0.75000000  0.75000000  1
  Sr  Sr61  1  0.75000000  0.75000000  0.25000000  1
  Sr  Sr62  1  0.75000000  0.74680300  0.50000000  1
  Sr  Sr63  1  0.75000000  0.25319700  0.00000000  1
  Sr  Sr64  1  0.75000000  0.49680300  0.00000000  1
  Sr  Sr65  1  0.24680300  0.50000000  0.75000000  1
  Sr  Sr66  1  0.50319700  0.50000000  0.75000000  1
  Sr  Sr67  1  0.00000000  0.75000000  0.49680300  1
  Sr  Sr68  1  0.00000000  0.50000000  0.50000000  1
  Sr  Sr69  1  0.00000000  0.75000000  0.75319700  1
  Sr  Sr70  1  0.00000000  0.75000000  0.25319700  1
  Sr  Sr71  1  0.50000000  0.50000000  0.00000000  1
  Sr  Sr72  1  0.75000000  0.25000000  0.75000000  1
  Sr  Sr73  1  0.75000000  0.00319700  0.50000000  1
  Sr  Sr74  1  0.50000000  0.50000000  0.50000000  1
  Sr  Sr75  1  0.75000000  0.99680300  0.00000000  1
  Sr  Sr76  1  0.75000000  0.75000000  0.75000000  1
  Sr  Sr77  1  0.99680300  0.00000000  0.75000000  1
  Sr  Sr78  1  0.00319700  0.50000000  0.75000000  1
  Sr  Sr79  1  0.00000000  0.75000000  0.99680300  1
  B  B80  1  0.13678400  0.87500000  0.61321600  1
  B  B81  1  0.88678400  0.13678400  0.12500000  1
  B  B82  1  0.12500000  0.88678400  0.13678400  1
  B  B83  1  0.38678400  0.36321600  0.87500000  1
  B  B84  1  0.37500000  0.38678400  0.13678400  1
  B  B85  1  0.13678400  0.62500000  0.11321600  1
  B  B86  1  0.88678400  0.36321600  0.62500000  1
  B  B87  1  0.61321600  0.36321600  0.37500000  1
  B  B88  1  0.13678400  0.37500000  0.38678400  1
  B  B89  1  0.36321600  0.12500000  0.11321600  1
  B  B90  1  0.87500000  0.38678400  0.36321600  1
  B  B91  1  0.62500000  0.11321600  0.13678400  1
  B  B92  1  0.12500000  0.11321600  0.36321600  1
  B  B93  1  0.11321600  0.13678400  0.62500000  1
  B  B94  1  0.36321600  0.37500000  0.61321600  1
  B  B95  1  0.38678400  0.13678400  0.37500000  1
  B  B96  1  0.36321600  0.87500000  0.38678400  1
  B  B97  1  0.11321600  0.36321600  0.12500000  1
  B  B98  1  0.13678400  0.12500000  0.88678400  1
  B  B99  1  0.61321600  0.13678400  0.87500000  1
  B  B100  1  0.87500000  0.61321600  0.13678400  1
  B  B101  1  0.36321600  0.62500000  0.88678400  1
  B  B102  1  0.37500000  0.61321600  0.36321600  1
  B  B103  1  0.62500000  0.88678400  0.36321600  1
  B  B104  1  0.63678400  0.37500000  0.11321600  1
  B  B105  1  0.38678400  0.63678400  0.62500000  1
  B  B106  1  0.62500000  0.38678400  0.63678400  1
  B  B107  1  0.88678400  0.86321600  0.37500000  1
  B  B108  1  0.87500000  0.88678400  0.63678400  1
  B  B109  1  0.63678400  0.12500000  0.61321600  1
  B  B110  1  0.38678400  0.86321600  0.12500000  1
  B  B111  1  0.11321600  0.86321600  0.87500000  1
  B  B112  1  0.63678400  0.87500000  0.88678400  1
  B  B113  1  0.86321600  0.62500000  0.61321600  1
  B  B114  1  0.37500000  0.88678400  0.86321600  1
  B  B115  1  0.12500000  0.61321600  0.63678400  1
  B  B116  1  0.62500000  0.61321600  0.86321600  1
  B  B117  1  0.61321600  0.63678400  0.12500000  1
  B  B118  1  0.86321600  0.87500000  0.11321600  1
  B  B119  1  0.88678400  0.63678400  0.87500000  1
  B  B120  1  0.86321600  0.37500000  0.88678400  1
  B  B121  1  0.61321600  0.86321600  0.62500000  1
  B  B122  1  0.63678400  0.62500000  0.38678400  1
  B  B123  1  0.11321600  0.63678400  0.37500000  1
  B  B124  1  0.37500000  0.11321600  0.63678400  1
  B  B125  1  0.86321600  0.12500000  0.38678400  1
  B  B126  1  0.87500000  0.11321600  0.86321600  1
  B  B127  1  0.12500000  0.38678400  0.86321600  1
  O  O128  1  0.37500000  0.67676950  0.42676950  1
  O  O129  1  0.36598800  0.22573100  0.37100500  1
  O  O130  1  0.97573100  0.11598800  0.12100500  1
  O  O131  1  0.02426900  0.61598800  0.37899500  1
  O  O132  1  0.87100500  0.13401200  0.77426900  1
  O  O133  1  0.88401200  0.12100500  0.47573100  1
  O  O134  1  0.38401200  0.37899500  0.52426900  1
  O  O135  1  0.27426900  0.62899500  0.86598800  1
  O  O136  1  0.11598800  0.62100500  0.02426900  1
  O  O137  1  0.02426900  0.38401200  0.12100500  1
  O  O138  1  0.87100500  0.36598800  0.27426900  1
  O  O139  1  0.22573100  0.62899500  0.13401200  1
  O  O140  1  0.47573100  0.38401200  0.87899500  1
  O  O141  1  0.07323050  0.62500000  0.17676950  1
  O  O142  1  0.86598800  0.27426900  0.62899500  1
  O  O143  1  0.82323050  0.07323050  0.12500000  1
  O  O144  1  0.32323050  0.42676950  0.87500000  1
  O  O145  1  0.11598800  0.37899500  0.47573100  1
  O  O146  1  0.37100500  0.36598800  0.22573100  1
  O  O147  1  0.37500000  0.17676950  0.57323050  1
  O  O148  1  0.47573100  0.11598800  0.37899500  1
  O  O149  1  0.27426900  0.87100500  0.36598800  1
  O  O150  1  0.17676950  0.42676950  0.12500000  1
  O  O151  1  0.11598800  0.12100500  0.97573100  1
  O  O152  1  0.61598800  0.37899500  0.02426900  1
  O  O153  1  0.57323050  0.37500000  0.17676950  1
  O  O154  1  0.32323050  0.92676950  0.12500000  1
  O  O155  1  0.92676950  0.12500000  0.32323050  1
  O  O156  1  0.07323050  0.12500000  0.82323050  1
  O  O157  1  0.62500000  0.17676950  0.07323050  1
  O  O158  1  0.38401200  0.12100500  0.02426900  1
  O  O159  1  0.37899500  0.47573100  0.11598800  1
  O  O160  1  0.36598800  0.72573100  0.62899500  1
  O  O161  1  0.52426900  0.38401200  0.37899500  1
  O  O162  1  0.12500000  0.17676950  0.42676950  1
  O  O163  1  0.37899500  0.02426900  0.61598800  1
  O  O164  1  0.47573100  0.88401200  0.12100500  1
  O  O165  1  0.22573100  0.37100500  0.36598800  1
  O  O166  1  0.17676950  0.07323050  0.62500000  1
  O  O167  1  0.42676950  0.87500000  0.32323050  1
  O  O168  1  0.37500000  0.32323050  0.07323050  1
  O  O169  1  0.37899500  0.52426900  0.38401200  1
  O  O170  1  0.12500000  0.82323050  0.07323050  1
  O  O171  1  0.13401200  0.77426900  0.87100500  1
  O  O172  1  0.62899500  0.86598800  0.27426900  1
  O  O173  1  0.62899500  0.36598800  0.72573100  1
  O  O174  1  0.38401200  0.87899500  0.47573100  1
  O  O175  1  0.17676950  0.57323050  0.37500000  1
  O  O176  1  0.12100500  0.47573100  0.88401200  1
  O  O177  1  0.12899500  0.13401200  0.27426900  1
  O  O178  1  0.02426900  0.11598800  0.62100500  1
  O  O179  1  0.63401200  0.22573100  0.87100500  1
  O  O180  1  0.07323050  0.37500000  0.32323050  1
  O  O181  1  0.12500000  0.32323050  0.92676950  1
  O  O182  1  0.87100500  0.63401200  0.22573100  1
  O  O183  1  0.36598800  0.27426900  0.87100500  1
  O  O184  1  0.87500000  0.32323050  0.42676950  1
  O  O185  1  0.62899500  0.13401200  0.22573100  1
  O  O186  1  0.32323050  0.07323050  0.37500000  1
  O  O187  1  0.12100500  0.02426900  0.38401200  1
  O  O188  1  0.67676950  0.42676950  0.37500000  1
  O  O189  1  0.13401200  0.27426900  0.12899500  1
  O  O190  1  0.12100500  0.97573100  0.11598800  1
  O  O191  1  0.22573100  0.87100500  0.63401200  1
  O  O192  1  0.62100500  0.02426900  0.11598800  1
  O  O193  1  0.13401200  0.22573100  0.62899500  1
  O  O194  1  0.77426900  0.87100500  0.13401200  1
  O  O195  1  0.27426900  0.12899500  0.13401200  1
  O  O196  1  0.42676950  0.37500000  0.67676950  1
  O  O197  1  0.72573100  0.62899500  0.36598800  1
  O  O198  1  0.87899500  0.47573100  0.38401200  1
  O  O199  1  0.42676950  0.12500000  0.17676950  1
  O  O200  1  0.87500000  0.17676950  0.92676950  1
  O  O201  1  0.86598800  0.72573100  0.87100500  1
  O  O202  1  0.47573100  0.61598800  0.62100500  1
  O  O203  1  0.52426900  0.11598800  0.87899500  1
  O  O204  1  0.37100500  0.63401200  0.27426900  1
  O  O205  1  0.38401200  0.62100500  0.97573100  1
  O  O206  1  0.88401200  0.87899500  0.02426900  1
  O  O207  1  0.77426900  0.12899500  0.36598800  1
  O  O208  1  0.61598800  0.12100500  0.52426900  1
  O  O209  1  0.52426900  0.88401200  0.62100500  1
  O  O210  1  0.37100500  0.86598800  0.77426900  1
  O  O211  1  0.72573100  0.12899500  0.63401200  1
  O  O212  1  0.97573100  0.88401200  0.37899500  1
  O  O213  1  0.57323050  0.12500000  0.67676950  1
  O  O214  1  0.36598800  0.77426900  0.12899500  1
  O  O215  1  0.32323050  0.57323050  0.62500000  1
  O  O216  1  0.82323050  0.92676950  0.37500000  1
  O  O217  1  0.61598800  0.87899500  0.97573100  1
  O  O218  1  0.87100500  0.86598800  0.72573100  1
  O  O219  1  0.87500000  0.67676950  0.07323050  1
  O  O220  1  0.97573100  0.61598800  0.87899500  1
  O  O221  1  0.77426900  0.37100500  0.86598800  1
  O  O222  1  0.67676950  0.92676950  0.62500000  1
  O  O223  1  0.61598800  0.62100500  0.47573100  1
  O  O224  1  0.11598800  0.87899500  0.52426900  1
  O  O225  1  0.07323050  0.87500000  0.67676950  1
  O  O226  1  0.82323050  0.42676950  0.62500000  1
  O  O227  1  0.42676950  0.62500000  0.82323050  1
  O  O228  1  0.57323050  0.62500000  0.32323050  1
  O  O229  1  0.12500000  0.67676950  0.57323050  1
  O  O230  1  0.88401200  0.62100500  0.52426900  1
  O  O231  1  0.87899500  0.97573100  0.61598800  1
  O  O232  1  0.86598800  0.22573100  0.12899500  1
  O  O233  1  0.02426900  0.88401200  0.87899500  1
  O  O234  1  0.62500000  0.67676950  0.92676950  1
  O  O235  1  0.87899500  0.52426900  0.11598800  1
  O  O236  1  0.97573100  0.38401200  0.62100500  1
  O  O237  1  0.72573100  0.87100500  0.86598800  1
  O  O238  1  0.67676950  0.57323050  0.12500000  1
  O  O239  1  0.92676950  0.37500000  0.82323050  1
  O  O240  1  0.87500000  0.82323050  0.57323050  1
  O  O241  1  0.87899500  0.02426900  0.88401200  1
  O  O242  1  0.62500000  0.32323050  0.57323050  1
  O  O243  1  0.63401200  0.27426900  0.37100500  1
  O  O244  1  0.12899500  0.36598800  0.77426900  1
  O  O245  1  0.12899500  0.86598800  0.22573100  1
  O  O246  1  0.88401200  0.37899500  0.97573100  1
  O  O247  1  0.67676950  0.07323050  0.87500000  1
  O  O248  1  0.62100500  0.97573100  0.38401200  1
  O  O249  1  0.62899500  0.63401200  0.77426900  1
  O  O250  1  0.52426900  0.61598800  0.12100500  1
  O  O251  1  0.13401200  0.72573100  0.37100500  1
  O  O252  1  0.57323050  0.87500000  0.82323050  1
  O  O253  1  0.62500000  0.82323050  0.42676950  1
  O  O254  1  0.37100500  0.13401200  0.72573100  1
  O  O255  1  0.86598800  0.77426900  0.37100500  1
  O  O256  1  0.37500000  0.82323050  0.92676950  1
  O  O257  1  0.12899500  0.63401200  0.72573100  1
  O  O258  1  0.82323050  0.57323050  0.87500000  1
  O  O259  1  0.62100500  0.52426900  0.88401200  1
  O  O260  1  0.17676950  0.92676950  0.87500000  1
  O  O261  1  0.63401200  0.77426900  0.62899500  1
  O  O262  1  0.62100500  0.47573100  0.61598800  1
  O  O263  1  0.72573100  0.37100500  0.13401200  1
  O  O264  1  0.12100500  0.52426900  0.61598800  1
  O  O265  1  0.63401200  0.72573100  0.12899500  1
  O  O266  1  0.27426900  0.37100500  0.63401200  1
  O  O267  1  0.77426900  0.62899500  0.63401200  1
  O  O268  1  0.92676950  0.87500000  0.17676950  1
  O  O269  1  0.22573100  0.12899500  0.86598800  1
  O  O270  1  0.37899500  0.97573100  0.88401200  1
  O  O271  1  0.92676950  0.62500000  0.67676950  1
