# generated using pymatgen
data_BiAsO4
_symmetry_space_group_name_H-M   'P 1'
_cell_length_a   5.15149600
_cell_length_b   5.15149600
_cell_length_c   11.86484400
_cell_angle_alpha   90.00000000
_cell_angle_beta   90.00000000
_cell_angle_gamma   90.00000000
_symmetry_Int_Tables_number   1
_chemical_formula_structural   BiAsO4
_chemical_formula_sum   'Bi4 As4 O16'
_cell_volume   314.86817455
_cell_formula_units_Z   4
loop_
 _symmetry_equiv_pos_site_id
 _symmetry_equiv_pos_as_xyz
  1  'x, y, z'
loop_
 _atom_site_type_symbol
 _atom_site_label
 _atom_site_symmetry_multiplicity
 _atom_site_fract_x
 _atom_site_fract_y
 _atom_site_fract_z
 _atom_site_occupancy
  Bi  Bi0  1  0.50000000  0.00000000  0.25000000  1
  Bi  Bi1  1  0.50000000  0.50000000  0.00000000  1
  Bi  Bi2  1  0.00000000  0.50000000  0.75000000  1
  Bi  Bi3  1  0.00000000  0.00000000  0.50000000  1
  As  As4  1  0.00000000  0.50000000  0.25000000  1
  As  As5  1  0.00000000  0.00000000  0.00000000  1
  As  As6  1  0.50000000  0.00000000  0.75000000  1
  As  As7  1  0.50000000  0.50000000  0.50000000  1
  O  O8  1  0.24707800  0.35596100  0.17263800  1
  O  O9  1  0.75292200  0.14403900  0.07736200  1
  O  O10  1  0.85596100  0.25292200  0.32736200  1
  O  O11  1  0.75292200  0.64403900  0.17263800  1
  O  O12  1  0.35596100  0.25292200  0.42263800  1
  O  O13  1  0.14403900  0.74707800  0.32736200  1
  O  O14  1  0.24707800  0.85596100  0.07736200  1
  O  O15  1  0.64403900  0.74707800  0.42263800  1
  O  O16  1  0.74707800  0.85596100  0.67263800  1
  O  O17  1  0.25292200  0.64403900  0.57736200  1
  O  O18  1  0.35596100  0.75292200  0.82736200  1
  O  O19  1  0.25292200  0.14403900  0.67263800  1
  O  O20  1  0.85596100  0.75292200  0.92263800  1
  O  O21  1  0.64403900  0.24707800  0.82736200  1
  O  O22  1  0.74707800  0.35596100  0.57736200  1
  O  O23  1  0.14403900  0.24707800  0.92263800  1
