# generated using pymatgen
data_KS2O3
_symmetry_space_group_name_H-M   'P 1'
_cell_length_a   22.50525600
_cell_length_b   8.30211600
_cell_length_c   10.31140125
_cell_angle_alpha   90.00000000
_cell_angle_beta   102.08536656
_cell_angle_gamma   90.00000000
_symmetry_Int_Tables_number   1
_chemical_formula_structural   KS2O3
_chemical_formula_sum   'K16 S32 O48'
_cell_volume   1883.89543274
_cell_formula_units_Z   16
loop_
 _symmetry_equiv_pos_site_id
 _symmetry_equiv_pos_as_xyz
  1  'x, y, z'
loop_
 _atom_site_type_symbol
 _atom_site_label
 _atom_site_symmetry_multiplicity
 _atom_site_fract_x
 _atom_site_fract_y
 _atom_site_fract_z
 _atom_site_occupancy
  K  K0  1  0.56381600  0.41960800  0.38638100  1
  K  K1  1  0.56381600  0.58039200  0.88638100  1
  K  K2  1  0.51445000  0.89042500  0.26249200  1
  K  K3  1  0.51445000  0.10957500  0.76249200  1
  K  K4  1  0.71792750  0.06644050  0.43930900  1
  K  K5  1  0.71792750  0.93355950  0.93930900  1
  K  K6  1  0.92398600  0.83904000  0.05093600  1
  K  K7  1  0.92398600  0.16096000  0.55093600  1
  K  K8  1  0.06381600  0.91960800  0.38638100  1
  K  K9  1  0.06381600  0.08039200  0.88638100  1
  K  K10  1  0.01445000  0.39042500  0.26249200  1
  K  K11  1  0.01445000  0.60957500  0.76249200  1
  K  K12  1  0.21792750  0.56644050  0.43930900  1
  K  K13  1  0.21792750  0.43355950  0.93930900  1
  K  K14  1  0.42398600  0.33904000  0.05093600  1
  K  K15  1  0.42398600  0.66096000  0.55093600  1
  S  S16  1  0.59931550  0.20004250  0.10278400  1
  S  S17  1  0.59931550  0.79995750  0.60278400  1
  S  S18  1  0.68508050  0.31670550  0.09804600  1
  S  S19  1  0.68508050  0.68329450  0.59804600  1
  S  S20  1  0.70829100  0.45358500  0.26145700  1
  S  S21  1  0.70829100  0.54641500  0.76145700  1
  S  S22  1  0.66305650  0.68369950  0.20546500  1
  S  S23  1  0.66305650  0.31630050  0.70546500  1
  S  S24  1  0.94380750  0.66899550  0.43209700  1
  S  S25  1  0.94380750  0.33100450  0.93209700  1
  S  S26  1  0.84823850  0.70861850  0.42202700  1
  S  S27  1  0.84823850  0.29138150  0.92202700  1
  S  S28  1  0.83924450  0.64483150  0.60499300  1
  S  S29  1  0.83924450  0.35516850  0.10499300  1
  S  S30  1  0.85385500  0.86687300  0.72237500  1
  S  S31  1  0.85385500  0.13312700  0.22237500  1
  S  S32  1  0.09931550  0.70004250  0.10278400  1
  S  S33  1  0.09931550  0.29995750  0.60278400  1
  S  S34  1  0.18508050  0.81670550  0.09804600  1
  S  S35  1  0.18508050  0.18329450  0.59804600  1
  S  S36  1  0.20829100  0.95358500  0.26145700  1
  S  S37  1  0.20829100  0.04641500  0.76145700  1
  S  S38  1  0.16305650  0.18369950  0.20546500  1
  S  S39  1  0.16305650  0.81630050  0.70546500  1
  S  S40  1  0.44380750  0.16899550  0.43209700  1
  S  S41  1  0.44380750  0.83100450  0.93209700  1
  S  S42  1  0.34823850  0.20861850  0.42202700  1
  S  S43  1  0.34823850  0.79138150  0.92202700  1
  S  S44  1  0.33924450  0.14483150  0.60499300  1
  S  S45  1  0.33924450  0.85516850  0.10499300  1
  S  S46  1  0.35385500  0.36687300  0.72237500  1
  S  S47  1  0.35385500  0.63312700  0.22237500  1
  O  O48  1  0.54991500  0.31606000  0.05385000  1
  O  O49  1  0.54991500  0.68394000  0.55385000  1
  O  O50  1  0.60273750  0.06812150  0.01011200  1
  O  O51  1  0.60273750  0.93187850  0.51011200  1
  O  O52  1  0.60121900  0.15061200  0.24076300  1
  O  O53  1  0.60121900  0.84938800  0.74076300  1
  O  O54  1  0.60239750  0.66728250  0.23619200  1
  O  O55  1  0.60239750  0.33271750  0.73619200  1
  O  O56  1  0.70334700  0.79648900  0.29054400  1
  O  O57  1  0.70334700  0.20351100  0.79054400  1
  O  O58  1  0.66144950  0.70170450  0.06326100  1
  O  O59  1  0.66144950  0.29829550  0.56326100  1
  O  O60  1  0.94930650  0.68695750  0.29277400  1
  O  O61  1  0.94930650  0.31304250  0.79277400  1
  O  O62  1  0.95765450  0.50557050  0.48483900  1
  O  O63  1  0.95765450  0.49442950  0.98483900  1
  O  O64  1  0.97642200  0.79505900  0.51933900  1
  O  O65  1  0.97642200  0.20494100  0.01933900  1
  O  O66  1  0.82204650  0.82826850  0.82927900  1
  O  O67  1  0.82204650  0.17173150  0.32927900  1
  O  O68  1  0.92012850  0.88405250  0.77042900  1
  O  O69  1  0.92012850  0.11594750  0.27042900  1
  O  O70  1  0.82710750  0.99732950  0.63305700  1
  O  O71  1  0.82710750  0.00267050  0.13305700  1
  O  O72  1  0.04991500  0.81606000  0.05385000  1
  O  O73  1  0.04991500  0.18394000  0.55385000  1
  O  O74  1  0.10273750  0.56812150  0.01011200  1
  O  O75  1  0.10273750  0.43187850  0.51011200  1
  O  O76  1  0.10121900  0.65061200  0.24076300  1
  O  O77  1  0.10121900  0.34938800  0.74076300  1
  O  O78  1  0.10239750  0.16728250  0.23619200  1
  O  O79  1  0.10239750  0.83271750  0.73619200  1
  O  O80  1  0.20334700  0.29648900  0.29054400  1
  O  O81  1  0.20334700  0.70351100  0.79054400  1
  O  O82  1  0.16144950  0.20170450  0.06326100  1
  O  O83  1  0.16144950  0.79829550  0.56326100  1
  O  O84  1  0.44930650  0.18695750  0.29277400  1
  O  O85  1  0.44930650  0.81304250  0.79277400  1
  O  O86  1  0.45765450  0.00557050  0.48483900  1
  O  O87  1  0.45765450  0.99442950  0.98483900  1
  O  O88  1  0.47642200  0.29505900  0.51933900  1
  O  O89  1  0.47642200  0.70494100  0.01933900  1
  O  O90  1  0.32204650  0.32826850  0.82927900  1
  O  O91  1  0.32204650  0.67173150  0.32927900  1
  O  O92  1  0.42012850  0.38405250  0.77042900  1
  O  O93  1  0.42012850  0.61594750  0.27042900  1
  O  O94  1  0.32710750  0.49732950  0.63305700  1
  O  O95  1  0.32710750  0.50267050  0.13305700  1
