# generated using pymatgen
data_SrLi(BS2)3
_symmetry_space_group_name_H-M   'P 1'
_cell_length_a   15.09934400
_cell_length_b   8.77986800
_cell_length_c   8.07059009
_cell_angle_alpha   90.00000000
_cell_angle_beta   117.19016659
_cell_angle_gamma   90.00000000
_symmetry_Int_Tables_number   1
_chemical_formula_structural   SrLi(BS2)3
_chemical_formula_sum   'Sr4 Li4 B12 S24'
_cell_volume   951.68839699
_cell_formula_units_Z   4
loop_
 _symmetry_equiv_pos_site_id
 _symmetry_equiv_pos_as_xyz
  1  'x, y, z'
loop_
 _atom_site_type_symbol
 _atom_site_label
 _atom_site_symmetry_multiplicity
 _atom_site_fract_x
 _atom_site_fract_y
 _atom_site_fract_z
 _atom_site_occupancy
  Sr  Sr0  1  0.74053450  0.88068050  0.97466200  1
  Sr  Sr1  1  0.74053450  0.11931950  0.47466200  1
  Sr  Sr2  1  0.24053450  0.38068050  0.97466200  1
  Sr  Sr3  1  0.24053450  0.61931950  0.47466200  1
  Li  Li4  1  0.40190650  0.89213350  0.93761800  1
  Li  Li5  1  0.40190650  0.10786650  0.43761800  1
  Li  Li6  1  0.90190650  0.39213350  0.93761800  1
  Li  Li7  1  0.90190650  0.60786650  0.43761800  1
  B  B8  1  0.97910150  0.99144750  0.93905400  1
  B  B9  1  0.20042650  0.96089250  0.04328600  1
  B  B10  1  0.20042650  0.03910750  0.54328600  1
  B  B11  1  0.57543050  0.17980550  0.02740300  1
  B  B12  1  0.97910150  0.00855250  0.43905400  1
  B  B13  1  0.57543050  0.82019450  0.52740300  1
  B  B14  1  0.47910150  0.49144750  0.93905400  1
  B  B15  1  0.70042650  0.46089250  0.04328600  1
  B  B16  1  0.70042650  0.53910750  0.54328600  1
  B  B17  1  0.07543050  0.67980550  0.02740300  1
  B  B18  1  0.47910150  0.50855250  0.43905400  1
  B  B19  1  0.07543050  0.32019450  0.52740300  1
  S  S20  1  0.57914300  0.01585700  0.59080400  1
  S  S21  1  0.09537450  0.08797550  0.98804200  1
  S  S22  1  0.31387400  0.95059700  0.57909200  1
  S  S23  1  0.69756150  0.25397450  0.07159900  1
  S  S24  1  0.87198200  0.89408900  0.39539800  1
  S  S25  1  0.69756150  0.74602550  0.57159900  1
  S  S26  1  0.57914300  0.98414300  0.09080400  1
  S  S27  1  0.31387400  0.04940300  0.07909200  1
  S  S28  1  0.45959500  0.28650700  0.93453200  1
  S  S29  1  0.45959500  0.71349300  0.43453200  1
  S  S30  1  0.09537450  0.91202450  0.48804200  1
  S  S31  1  0.87198200  0.10591100  0.89539800  1
  S  S32  1  0.07914300  0.51585700  0.59080400  1
  S  S33  1  0.59537450  0.58797550  0.98804200  1
  S  S34  1  0.81387400  0.45059700  0.57909200  1
  S  S35  1  0.19756150  0.75397450  0.07159900  1
  S  S36  1  0.37198200  0.39408900  0.39539800  1
  S  S37  1  0.19756150  0.24602550  0.57159900  1
  S  S38  1  0.07914300  0.48414300  0.09080400  1
  S  S39  1  0.81387400  0.54940300  0.07909200  1
  S  S40  1  0.95959500  0.78650700  0.93453200  1
  S  S41  1  0.95959500  0.21349300  0.43453200  1
  S  S42  1  0.59537450  0.41202450  0.48804200  1
  S  S43  1  0.37198200  0.60591100  0.89539800  1
