# generated using pymatgen
data_Tl2SnHgTe4
_symmetry_space_group_name_H-M   'P 1'
_cell_length_a   8.67190000
_cell_length_b   8.67190000
_cell_length_c   7.33681800
_cell_angle_alpha   90.00000000
_cell_angle_beta   90.00000000
_cell_angle_gamma   90.00000000
_symmetry_Int_Tables_number   1
_chemical_formula_structural   Tl2SnHgTe4
_chemical_formula_sum   'Tl4 Sn2 Hg2 Te8'
_cell_volume   551.74228385
_cell_formula_units_Z   2
loop_
 _symmetry_equiv_pos_site_id
 _symmetry_equiv_pos_as_xyz
  1  'x, y, z'
loop_
 _atom_site_type_symbol
 _atom_site_label
 _atom_site_symmetry_multiplicity
 _atom_site_fract_x
 _atom_site_fract_y
 _atom_site_fract_z
 _atom_site_occupancy
  Tl  Tl0  1  0.00000000  0.50000000  0.00000000  1
  Tl  Tl1  1  0.50000000  0.00000000  0.00000000  1
  Tl  Tl2  1  0.50000000  0.00000000  0.50000000  1
  Tl  Tl3  1  0.00000000  0.50000000  0.50000000  1
  Sn  Sn4  1  0.00000000  0.00000000  0.00000000  1
  Sn  Sn5  1  0.50000000  0.50000000  0.50000000  1
  Hg  Hg6  1  0.00000000  0.00000000  0.50000000  1
  Hg  Hg7  1  0.50000000  0.50000000  0.00000000  1
  Te  Te8  1  0.18049200  0.18049200  0.76196100  1
  Te  Te9  1  0.81950800  0.18049200  0.23803900  1
  Te  Te10  1  0.18049200  0.81950800  0.23803900  1
  Te  Te11  1  0.31950800  0.31950800  0.26196100  1
  Te  Te12  1  0.68049200  0.68049200  0.26196100  1
  Te  Te13  1  0.31950800  0.68049200  0.73803900  1
  Te  Te14  1  0.68049200  0.31950800  0.73803900  1
  Te  Te15  1  0.81950800  0.81950800  0.76196100  1
