# generated using pymatgen
data_SiO2
_symmetry_space_group_name_H-M   'P 1'
_cell_length_a   14.42585000
_cell_length_b   18.98436000
_cell_length_c   7.59836000
_cell_angle_alpha   90.00000000
_cell_angle_beta   90.00000000
_cell_angle_gamma   90.00000000
_symmetry_Int_Tables_number   1
_chemical_formula_structural   SiO2
_chemical_formula_sum   'Si36 O72'
_cell_volume   2080.92888630
_cell_formula_units_Z   36
loop_
 _symmetry_equiv_pos_site_id
 _symmetry_equiv_pos_as_xyz
  1  'x, y, z'
loop_
 _atom_site_type_symbol
 _atom_site_label
 _atom_site_symmetry_multiplicity
 _atom_site_fract_x
 _atom_site_fract_y
 _atom_site_fract_z
 _atom_site_occupancy
  Si  Si0  1  0.80119250  0.91770850  0.70625700  1
  Si  Si1  1  0.80119250  0.91770850  0.29374300  1
  Si  Si2  1  0.50000000  0.35092450  0.70499200  1
  Si  Si3  1  0.80119250  0.08229150  0.70625700  1
  Si  Si4  1  0.50000000  0.76838150  0.00000000  1
  Si  Si5  1  0.50000000  0.23161850  0.00000000  1
  Si  Si6  1  0.80119250  0.08229150  0.29374300  1
  Si  Si7  1  0.29799600  0.82713000  0.00000000  1
  Si  Si8  1  0.19880750  0.91770850  0.70625700  1
  Si  Si9  1  0.50000000  0.64907550  0.29500800  1
  Si  Si10  1  0.19880750  0.08229150  0.70625700  1
  Si  Si11  1  0.70200400  0.17287000  0.00000000  1
  Si  Si12  1  0.50000000  0.64907550  0.70499200  1
  Si  Si13  1  0.19880750  0.08229150  0.29374300  1
  Si  Si14  1  0.29799600  0.17287000  0.00000000  1
  Si  Si15  1  0.70200400  0.82713000  0.00000000  1
  Si  Si16  1  0.19880750  0.91770850  0.29374300  1
  Si  Si17  1  0.50000000  0.35092450  0.29500800  1
  Si  Si18  1  0.30119250  0.41770850  0.70625700  1
  Si  Si19  1  0.30119250  0.41770850  0.29374300  1
  Si  Si20  1  0.00000000  0.85092450  0.70499200  1
  Si  Si21  1  0.30119250  0.58229150  0.70625700  1
  Si  Si22  1  0.00000000  0.26838150  0.00000000  1
  Si  Si23  1  0.00000000  0.73161850  0.00000000  1
  Si  Si24  1  0.30119250  0.58229150  0.29374300  1
  Si  Si25  1  0.79799600  0.32713000  0.00000000  1
  Si  Si26  1  0.69880750  0.41770850  0.70625700  1
  Si  Si27  1  0.00000000  0.14907550  0.29500800  1
  Si  Si28  1  0.69880750  0.58229150  0.70625700  1
  Si  Si29  1  0.20200400  0.67287000  0.00000000  1
  Si  Si30  1  0.00000000  0.14907550  0.70499200  1
  Si  Si31  1  0.69880750  0.58229150  0.29374300  1
  Si  Si32  1  0.79799600  0.67287000  0.00000000  1
  Si  Si33  1  0.20200400  0.32713000  0.00000000  1
  Si  Si34  1  0.69880750  0.41770850  0.29374300  1
  Si  Si35  1  0.00000000  0.85092450  0.29500800  1
  O  O36  1  0.59090300  0.60146100  0.74787900  1
  O  O37  1  0.78396950  0.00000000  0.75460100  1
  O  O38  1  0.26755650  0.13028750  0.17596900  1
  O  O39  1  0.73244350  0.86971250  0.82403100  1
  O  O40  1  0.40909700  0.39853900  0.74787900  1
  O  O41  1  0.22200750  0.09712950  0.50000000  1
  O  O42  1  0.40909700  0.39853900  0.25212100  1
  O  O43  1  0.73244350  0.13028750  0.17596900  1
  O  O44  1  0.50000000  0.71950650  0.82458200  1
  O  O45  1  0.73244350  0.86971250  0.17596900  1
  O  O46  1  0.77799250  0.09712950  0.50000000  1
  O  O47  1  0.50000000  0.32611750  0.50000000  1
  O  O48  1  0.78396950  0.00000000  0.24539900  1
  O  O49  1  0.77799250  0.90287050  0.50000000  1
  O  O50  1  0.59090300  0.60146100  0.25212100  1
  O  O51  1  0.59090300  0.39853900  0.74787900  1
  O  O52  1  0.40968800  0.18097900  0.00000000  1
  O  O53  1  0.40909700  0.60146100  0.25212100  1
  O  O54  1  0.50000000  0.67388250  0.50000000  1
  O  O55  1  0.50000000  0.28049350  0.17541800  1
  O  O56  1  0.25000000  0.75000000  0.00000000  1
  O  O57  1  0.22200750  0.90287050  0.50000000  1
  O  O58  1  0.73244350  0.13028750  0.82403100  1
  O  O59  1  0.40968800  0.81902100  0.00000000  1
  O  O60  1  0.50000000  0.71950650  0.17541800  1
  O  O61  1  0.50000000  0.28049350  0.82458200  1
  O  O62  1  0.59031200  0.18097900  0.00000000  1
  O  O63  1  0.21603050  0.00000000  0.24539900  1
  O  O64  1  0.26755650  0.86971250  0.82403100  1
  O  O65  1  0.21603050  0.00000000  0.75460100  1
  O  O66  1  0.25000000  0.25000000  0.00000000  1
  O  O67  1  0.59090300  0.39853900  0.25212100  1
  O  O68  1  0.59031200  0.81902100  0.00000000  1
  O  O69  1  0.26755650  0.13028750  0.82403100  1
  O  O70  1  0.26755650  0.86971250  0.17596900  1
  O  O71  1  0.40909700  0.60146100  0.74787900  1
  O  O72  1  0.09090300  0.10146100  0.74787900  1
  O  O73  1  0.28396950  0.50000000  0.75460100  1
  O  O74  1  0.76755650  0.63028750  0.17596900  1
  O  O75  1  0.23244350  0.36971250  0.82403100  1
  O  O76  1  0.90909700  0.89853900  0.74787900  1
  O  O77  1  0.72200750  0.59712950  0.50000000  1
  O  O78  1  0.90909700  0.89853900  0.25212100  1
  O  O79  1  0.23244350  0.63028750  0.17596900  1
  O  O80  1  0.00000000  0.21950650  0.82458200  1
  O  O81  1  0.23244350  0.36971250  0.17596900  1
  O  O82  1  0.27799250  0.59712950  0.50000000  1
  O  O83  1  0.00000000  0.82611750  0.50000000  1
  O  O84  1  0.28396950  0.50000000  0.24539900  1
  O  O85  1  0.27799250  0.40287050  0.50000000  1
  O  O86  1  0.09090300  0.10146100  0.25212100  1
  O  O87  1  0.09090300  0.89853900  0.74787900  1
  O  O88  1  0.90968800  0.68097900  0.00000000  1
  O  O89  1  0.90909700  0.10146100  0.25212100  1
  O  O90  1  0.00000000  0.17388250  0.50000000  1
  O  O91  1  0.00000000  0.78049350  0.17541800  1
  O  O92  1  0.75000000  0.25000000  0.00000000  1
  O  O93  1  0.72200750  0.40287050  0.50000000  1
  O  O94  1  0.23244350  0.63028750  0.82403100  1
  O  O95  1  0.90968800  0.31902100  0.00000000  1
  O  O96  1  0.00000000  0.21950650  0.17541800  1
  O  O97  1  0.00000000  0.78049350  0.82458200  1
  O  O98  1  0.09031200  0.68097900  0.00000000  1
  O  O99  1  0.71603050  0.50000000  0.24539900  1
  O  O100  1  0.76755650  0.36971250  0.82403100  1
  O  O101  1  0.71603050  0.50000000  0.75460100  1
  O  O102  1  0.75000000  0.75000000  0.00000000  1
  O  O103  1  0.09090300  0.89853900  0.25212100  1
  O  O104  1  0.09031200  0.31902100  0.00000000  1
  O  O105  1  0.76755650  0.63028750  0.82403100  1
  O  O106  1  0.76755650  0.36971250  0.17596900  1
  O  O107  1  0.90909700  0.10146100  0.74787900  1
