# generated using pymatgen
data_NaMgBO3
_symmetry_space_group_name_H-M   'P 1'
_cell_length_a   5.06506600
_cell_length_b   8.88025000
_cell_length_c   5.59162454
_cell_angle_alpha   90.00000000
_cell_angle_beta   99.31315687
_cell_angle_gamma   90.00000000
_symmetry_Int_Tables_number   1
_chemical_formula_structural   NaMgBO3
_chemical_formula_sum   'Na4 Mg4 B4 O12'
_cell_volume   248.19076754
_cell_formula_units_Z   4
loop_
 _symmetry_equiv_pos_site_id
 _symmetry_equiv_pos_as_xyz
  1  'x, y, z'
loop_
 _atom_site_type_symbol
 _atom_site_label
 _atom_site_symmetry_multiplicity
 _atom_site_fract_x
 _atom_site_fract_y
 _atom_site_fract_z
 _atom_site_occupancy
  Na  Na0  1  0.50000000  0.83491700  0.25000000  1
  Na  Na1  1  0.00000000  0.66508300  0.75000000  1
  Na  Na2  1  0.00000000  0.33491700  0.25000000  1
  Na  Na3  1  0.50000000  0.16508300  0.75000000  1
  Mg  Mg4  1  0.00000000  0.00000000  0.00000000  1
  Mg  Mg5  1  0.00000000  0.00000000  0.50000000  1
  Mg  Mg6  1  0.50000000  0.50000000  0.00000000  1
  Mg  Mg7  1  0.50000000  0.50000000  0.50000000  1
  B  B8  1  0.00000000  0.66733700  0.25000000  1
  B  B9  1  0.50000000  0.83266300  0.75000000  1
  B  B10  1  0.50000000  0.16733700  0.25000000  1
  B  B11  1  0.00000000  0.33266300  0.75000000  1
  O  O12  1  0.72425900  0.91034200  0.70395600  1
  O  O13  1  0.00000000  0.82362100  0.25000000  1
  O  O14  1  0.27574100  0.91034200  0.79604400  1
  O  O15  1  0.22425900  0.58965800  0.20395600  1
  O  O16  1  0.50000000  0.67637900  0.75000000  1
  O  O17  1  0.77574100  0.58965800  0.29604400  1
  O  O18  1  0.22425900  0.41034200  0.70395600  1
  O  O19  1  0.50000000  0.32362100  0.25000000  1
  O  O20  1  0.77574100  0.41034200  0.79604400  1
  O  O21  1  0.72425900  0.08965800  0.20395600  1
  O  O22  1  0.00000000  0.17637900  0.75000000  1
  O  O23  1  0.27574100  0.08965800  0.29604400  1
