# generated using pymatgen
data_K4Ba(VS4)2
_symmetry_space_group_name_H-M   'P 1'
_cell_length_a   9.09398600
_cell_length_b   10.03209800
_cell_length_c   18.65252200
_cell_angle_alpha   90.00000000
_cell_angle_beta   90.00000000
_cell_angle_gamma   90.00000000
_symmetry_Int_Tables_number   1
_chemical_formula_structural   K4Ba(VS4)2
_chemical_formula_sum   'K16 Ba4 V8 S32'
_cell_volume   1701.70238742
_cell_formula_units_Z   4
loop_
 _symmetry_equiv_pos_site_id
 _symmetry_equiv_pos_as_xyz
  1  'x, y, z'
loop_
 _atom_site_type_symbol
 _atom_site_label
 _atom_site_symmetry_multiplicity
 _atom_site_fract_x
 _atom_site_fract_y
 _atom_site_fract_z
 _atom_site_occupancy
  K  K0  1  0.50000000  0.25000000  0.25148600  1
  K  K1  1  0.00000000  0.75000000  0.24851400  1
  K  K2  1  0.87405000  0.00000000  0.42285800  1
  K  K3  1  0.62595000  0.50000000  0.07714200  1
  K  K4  1  0.00000000  0.25000000  0.24851400  1
  K  K5  1  0.12595000  0.50000000  0.42285800  1
  K  K6  1  0.37405000  0.00000000  0.07714200  1
  K  K7  1  0.50000000  0.75000000  0.25148600  1
  K  K8  1  0.00000000  0.75000000  0.75148600  1
  K  K9  1  0.50000000  0.25000000  0.74851400  1
  K  K10  1  0.37405000  0.50000000  0.92285800  1
  K  K11  1  0.12595000  0.00000000  0.57714200  1
  K  K12  1  0.50000000  0.75000000  0.74851400  1
  K  K13  1  0.62595000  0.00000000  0.92285800  1
  K  K14  1  0.87405000  0.50000000  0.57714200  1
  K  K15  1  0.00000000  0.25000000  0.75148600  1
  Ba  Ba16  1  0.00000000  0.75000000  0.00000000  1
  Ba  Ba17  1  0.00000000  0.25000000  0.00000000  1
  Ba  Ba18  1  0.50000000  0.25000000  0.50000000  1
  Ba  Ba19  1  0.50000000  0.75000000  0.50000000  1
  V  V20  1  0.70858200  0.50000000  0.36595500  1
  V  V21  1  0.79141800  0.00000000  0.13404500  1
  V  V22  1  0.20858200  0.50000000  0.13404500  1
  V  V23  1  0.29141800  0.00000000  0.36595500  1
  V  V24  1  0.20858200  0.00000000  0.86595500  1
  V  V25  1  0.29141800  0.50000000  0.63404500  1
  V  V26  1  0.70858200  0.00000000  0.63404500  1
  V  V27  1  0.79141800  0.50000000  0.86595500  1
  S  S28  1  0.30782400  0.32407500  0.08839500  1
  S  S29  1  0.76787300  0.00000000  0.24862500  1
  S  S30  1  0.02390800  0.00000000  0.10761600  1
  S  S31  1  0.19217600  0.82407500  0.41160500  1
  S  S32  1  0.69217600  0.17592500  0.08839500  1
  S  S33  1  0.26787300  0.00000000  0.25137500  1
  S  S34  1  0.73212700  0.50000000  0.25137500  1
  S  S35  1  0.30782400  0.67592500  0.08839500  1
  S  S36  1  0.23212700  0.50000000  0.24862500  1
  S  S37  1  0.80782400  0.32407500  0.41160500  1
  S  S38  1  0.47609200  0.50000000  0.39238400  1
  S  S39  1  0.80782400  0.67592500  0.41160500  1
  S  S40  1  0.69217600  0.82407500  0.08839500  1
  S  S41  1  0.52390800  0.00000000  0.39238400  1
  S  S42  1  0.19217600  0.17592500  0.41160500  1
  S  S43  1  0.97609200  0.50000000  0.10761600  1
  S  S44  1  0.80782400  0.82407500  0.58839500  1
  S  S45  1  0.26787300  0.50000000  0.74862500  1
  S  S46  1  0.52390800  0.50000000  0.60761600  1
  S  S47  1  0.69217600  0.32407500  0.91160500  1
  S  S48  1  0.19217600  0.67592500  0.58839500  1
  S  S49  1  0.76787300  0.50000000  0.75137500  1
  S  S50  1  0.23212700  0.00000000  0.75137500  1
  S  S51  1  0.80782400  0.17592500  0.58839500  1
  S  S52  1  0.73212700  0.00000000  0.74862500  1
  S  S53  1  0.30782400  0.82407500  0.91160500  1
  S  S54  1  0.97609200  0.00000000  0.89238400  1
  S  S55  1  0.30782400  0.17592500  0.91160500  1
  S  S56  1  0.19217600  0.32407500  0.58839500  1
  S  S57  1  0.02390800  0.50000000  0.89238400  1
  S  S58  1  0.69217600  0.67592500  0.91160500  1
  S  S59  1  0.47609200  0.00000000  0.60761600  1
