# generated using pymatgen
data_Ba7Fe6CuF34
_symmetry_space_group_name_H-M   'P 1'
_cell_length_a   17.21197600
_cell_length_b   11.60097800
_cell_length_c   7.81951088
_cell_angle_alpha   90.00000000
_cell_angle_beta   101.64148010
_cell_angle_gamma   90.00000000
_symmetry_Int_Tables_number   1
_chemical_formula_structural   Ba7Fe6CuF34
_chemical_formula_sum   'Ba14 Fe12 Cu2 F68'
_cell_volume   1529.24851744
_cell_formula_units_Z   2
loop_
 _symmetry_equiv_pos_site_id
 _symmetry_equiv_pos_as_xyz
  1  'x, y, z'
loop_
 _atom_site_type_symbol
 _atom_site_label
 _atom_site_symmetry_multiplicity
 _atom_site_fract_x
 _atom_site_fract_y
 _atom_site_fract_z
 _atom_site_occupancy
  Ba  Ba0  1  0.35918750  0.20038150  0.69898100  1
  Ba  Ba1  1  0.64081250  0.20038150  0.30101900  1
  Ba  Ba2  1  0.64081250  0.79961850  0.30101900  1
  Ba  Ba3  1  0.35918750  0.79961850  0.69898100  1
  Ba  Ba4  1  0.26436200  0.00000000  0.12572300  1
  Ba  Ba5  1  0.73563800  0.00000000  0.87427700  1
  Ba  Ba6  1  0.00000000  0.00000000  0.00000000  1
  Ba  Ba7  1  0.85918750  0.70038150  0.69898100  1
  Ba  Ba8  1  0.14081250  0.70038150  0.30101900  1
  Ba  Ba9  1  0.14081250  0.29961850  0.30101900  1
  Ba  Ba10  1  0.85918750  0.29961850  0.69898100  1
  Ba  Ba11  1  0.76436200  0.50000000  0.12572300  1
  Ba  Ba12  1  0.23563800  0.50000000  0.87427700  1
  Ba  Ba13  1  0.50000000  0.50000000  0.00000000  1
  Fe  Fe14  1  0.39020450  0.25691950  0.19952400  1
  Fe  Fe15  1  0.60979550  0.25691950  0.80047600  1
  Fe  Fe16  1  0.60979550  0.74308050  0.80047600  1
  Fe  Fe17  1  0.39020450  0.74308050  0.19952400  1
  Fe  Fe18  1  0.17356100  0.00000000  0.54105000  1
  Fe  Fe19  1  0.82643900  0.00000000  0.45895000  1
  Fe  Fe20  1  0.89020450  0.75691950  0.19952400  1
  Fe  Fe21  1  0.10979550  0.75691950  0.80047600  1
  Fe  Fe22  1  0.10979550  0.24308050  0.80047600  1
  Fe  Fe23  1  0.89020450  0.24308050  0.19952400  1
  Fe  Fe24  1  0.67356100  0.50000000  0.54105000  1
  Fe  Fe25  1  0.32643900  0.50000000  0.45895000  1
  Cu  Cu26  1  0.50000000  0.00000000  0.50000000  1
  Cu  Cu27  1  0.00000000  0.50000000  0.50000000  1
  F  F28  1  0.43948800  0.00000000  0.67414300  1
  F  F29  1  0.56051200  0.00000000  0.32585700  1
  F  F30  1  0.11112600  0.00000000  0.30581600  1
  F  F31  1  0.88887400  0.00000000  0.69418400  1
  F  F32  1  0.25372800  0.00000000  0.75936700  1
  F  F33  1  0.74627200  0.00000000  0.24063300  1
  F  F34  1  0.76213000  0.88212700  0.54445000  1
  F  F35  1  0.23787000  0.88212700  0.45555000  1
  F  F36  1  0.23787000  0.11787300  0.45555000  1
  F  F37  1  0.76213000  0.11787300  0.54445000  1
  F  F38  1  0.39165250  0.37716250  0.38600200  1
  F  F39  1  0.60834750  0.37716250  0.61399800  1
  F  F40  1  0.60834750  0.62283750  0.61399800  1
  F  F41  1  0.39165250  0.62283750  0.38600200  1
  F  F42  1  0.61994100  0.13352100  0.97148900  1
  F  F43  1  0.38005900  0.13352100  0.02851100  1
  F  F44  1  0.38005900  0.86647900  0.02851100  1
  F  F45  1  0.61994100  0.86647900  0.97148900  1
  F  F46  1  0.86590200  0.12953000  0.00711400  1
  F  F47  1  0.13409800  0.12953000  0.99288600  1
  F  F48  1  0.13409800  0.87047000  0.99288600  1
  F  F49  1  0.86590200  0.87047000  0.00711400  1
  F  F50  1  0.72158100  0.23752500  0.80327500  1
  F  F51  1  0.27841900  0.23752500  0.19672500  1
  F  F52  1  0.27841900  0.76247500  0.19672500  1
  F  F53  1  0.72158100  0.76247500  0.80327500  1
  F  F54  1  0.49981400  0.70664400  0.20094600  1
  F  F55  1  0.50018600  0.70664400  0.79905400  1
  F  F56  1  0.50018600  0.29335600  0.79905400  1
  F  F57  1  0.49981400  0.29335600  0.20094600  1
  F  F58  1  0.58479800  0.13907000  0.61438000  1
  F  F59  1  0.41520200  0.13907000  0.38562000  1
  F  F60  1  0.41520200  0.86093000  0.38562000  1
  F  F61  1  0.58479800  0.86093000  0.61438000  1
  F  F62  1  0.93948800  0.50000000  0.67414300  1
  F  F63  1  0.06051200  0.50000000  0.32585700  1
  F  F64  1  0.61112600  0.50000000  0.30581600  1
  F  F65  1  0.38887400  0.50000000  0.69418400  1
  F  F66  1  0.75372800  0.50000000  0.75936700  1
  F  F67  1  0.24627200  0.50000000  0.24063300  1
  F  F68  1  0.26213000  0.38212700  0.54445000  1
  F  F69  1  0.73787000  0.38212700  0.45555000  1
  F  F70  1  0.73787000  0.61787300  0.45555000  1
  F  F71  1  0.26213000  0.61787300  0.54445000  1
  F  F72  1  0.89165250  0.87716250  0.38600200  1
  F  F73  1  0.10834750  0.87716250  0.61399800  1
  F  F74  1  0.10834750  0.12283750  0.61399800  1
  F  F75  1  0.89165250  0.12283750  0.38600200  1
  F  F76  1  0.11994100  0.63352100  0.97148900  1
  F  F77  1  0.88005900  0.63352100  0.02851100  1
  F  F78  1  0.88005900  0.36647900  0.02851100  1
  F  F79  1  0.11994100  0.36647900  0.97148900  1
  F  F80  1  0.36590200  0.62953000  0.00711400  1
  F  F81  1  0.63409800  0.62953000  0.99288600  1
  F  F82  1  0.63409800  0.37047000  0.99288600  1
  F  F83  1  0.36590200  0.37047000  0.00711400  1
  F  F84  1  0.22158100  0.73752500  0.80327500  1
  F  F85  1  0.77841900  0.73752500  0.19672500  1
  F  F86  1  0.77841900  0.26247500  0.19672500  1
  F  F87  1  0.22158100  0.26247500  0.80327500  1
  F  F88  1  0.99981400  0.20664400  0.20094600  1
  F  F89  1  0.00018600  0.20664400  0.79905400  1
  F  F90  1  0.00018600  0.79335600  0.79905400  1
  F  F91  1  0.99981400  0.79335600  0.20094600  1
  F  F92  1  0.08479800  0.63907000  0.61438000  1
  F  F93  1  0.91520200  0.63907000  0.38562000  1
  F  F94  1  0.91520200  0.36093000  0.38562000  1
  F  F95  1  0.08479800  0.36093000  0.61438000  1
