# generated using pymatgen
data_LiMnP2O7
_symmetry_space_group_name_H-M   'P 1'
_cell_length_a   15.52202600
_cell_length_b   4.97856000
_cell_length_c   8.77240758
_cell_angle_alpha   90.00000000
_cell_angle_beta   111.33435519
_cell_angle_gamma   90.00000000
_symmetry_Int_Tables_number   1
_chemical_formula_structural   LiMnP2O7
_chemical_formula_sum   'Li4 Mn4 P8 O28'
_cell_volume   631.45345080
_cell_formula_units_Z   4
loop_
 _symmetry_equiv_pos_site_id
 _symmetry_equiv_pos_as_xyz
  1  'x, y, z'
loop_
 _atom_site_type_symbol
 _atom_site_label
 _atom_site_symmetry_multiplicity
 _atom_site_fract_x
 _atom_site_fract_y
 _atom_site_fract_z
 _atom_site_occupancy
  Li  Li0  1  0.20003000  0.33206800  0.04469500  1
  Li  Li1  1  0.20003000  0.66793200  0.54469500  1
  Li  Li2  1  0.70003000  0.83206800  0.04469500  1
  Li  Li3  1  0.70003000  0.16793200  0.54469500  1
  Mn  Mn4  1  0.49764600  0.98928100  0.99597300  1
  Mn  Mn5  1  0.49764600  0.01071900  0.49597300  1
  Mn  Mn6  1  0.99764600  0.48928100  0.99597300  1
  Mn  Mn7  1  0.99764600  0.51071900  0.49597300  1
  P  P8  1  0.09715800  0.86816700  0.80847500  1
  P  P9  1  0.09715800  0.13183300  0.30847500  1
  P  P10  1  0.39994500  0.63696900  0.19433400  1
  P  P11  1  0.39994500  0.36303100  0.69433400  1
  P  P12  1  0.59715800  0.36816700  0.80847500  1
  P  P13  1  0.59715800  0.63183300  0.30847500  1
  P  P14  1  0.89994500  0.13696900  0.19433400  1
  P  P15  1  0.89994500  0.86303100  0.69433400  1
  O  O16  1  0.09645250  0.72493150  0.64893900  1
  O  O17  1  0.09274450  0.35491450  0.43141300  1
  O  O18  1  0.17335900  0.06403500  0.87631800  1
  O  O19  1  0.32266000  0.55735700  0.63938000  1
  O  O20  1  0.32266000  0.44264300  0.13938000  1
  O  O21  1  0.49900600  0.46561400  0.25495000  1
  O  O22  1  0.40655300  0.82853200  0.06054800  1
  O  O23  1  0.17335900  0.93596500  0.37631800  1
  O  O24  1  0.40655300  0.17146800  0.56054800  1
  O  O25  1  0.09274450  0.64508550  0.93141300  1
  O  O26  1  0.40454950  0.79564950  0.34924500  1
  O  O27  1  0.49900600  0.53438600  0.75495000  1
  O  O28  1  0.40454950  0.20435050  0.84924500  1
  O  O29  1  0.09645250  0.27506850  0.14893900  1
  O  O30  1  0.59645250  0.22493150  0.64893900  1
  O  O31  1  0.59274450  0.85491450  0.43141300  1
  O  O32  1  0.67335900  0.56403500  0.87631800  1
  O  O33  1  0.82266000  0.05735700  0.63938000  1
  O  O34  1  0.82266000  0.94264300  0.13938000  1
  O  O35  1  0.99900600  0.96561400  0.25495000  1
  O  O36  1  0.90655300  0.32853200  0.06054800  1
  O  O37  1  0.67335900  0.43596500  0.37631800  1
  O  O38  1  0.90655300  0.67146800  0.56054800  1
  O  O39  1  0.59274450  0.14508550  0.93141300  1
  O  O40  1  0.90454950  0.29564950  0.34924500  1
  O  O41  1  0.99900600  0.03438600  0.75495000  1
  O  O42  1  0.90454950  0.70435050  0.84924500  1
  O  O43  1  0.59645250  0.77506850  0.14893900  1
