# generated using pymatgen
data_SiP3RuO11
_symmetry_space_group_name_H-M   'P 1'
_cell_length_a   8.40009388
_cell_length_b   8.40009388
_cell_length_c   39.89943180
_cell_angle_alpha   90.00000000
_cell_angle_beta   90.00000000
_cell_angle_gamma   120.00000000
_symmetry_Int_Tables_number   1
_chemical_formula_structural   SiP3RuO11
_chemical_formula_sum   'Si12 P36 Ru12 O132'
_cell_volume   2438.17919913
_cell_formula_units_Z   12
loop_
 _symmetry_equiv_pos_site_id
 _symmetry_equiv_pos_as_xyz
  1  'x, y, z'
loop_
 _atom_site_type_symbol
 _atom_site_label
 _atom_site_symmetry_multiplicity
 _atom_site_fract_x
 _atom_site_fract_y
 _atom_site_fract_z
 _atom_site_occupancy
  Si  Si0  1  0.00000000  0.00000000  0.03976400  1
  Si  Si1  1  0.33333333  0.66666667  0.20643067  1
  Si  Si2  1  0.33333333  0.66666667  0.12690267  1
  Si  Si3  1  0.66666667  0.33333333  0.29356933  1
  Si  Si4  1  0.66666667  0.33333333  0.37309733  1
  Si  Si5  1  0.00000000  0.00000000  0.53976400  1
  Si  Si6  1  0.00000000  0.00000000  0.46023600  1
  Si  Si7  1  0.33333333  0.66666667  0.62690267  1
  Si  Si8  1  0.33333333  0.66666667  0.70643067  1
  Si  Si9  1  0.66666667  0.33333333  0.87309733  1
  Si  Si10  1  0.66666667  0.33333333  0.79356933  1
  Si  Si11  1  0.00000000  0.00000000  0.96023600  1
  P  P12  1  0.66785867  0.62943933  0.11986433  1
  P  P13  1  0.66547467  0.62824733  0.04680233  1
  P  P14  1  0.29610600  0.29491400  0.21346900  1
  P  P15  1  0.99880800  0.70389400  0.21346900  1
  P  P16  1  0.70508600  0.00119200  0.21346900  1
  P  P17  1  0.00119200  0.70508600  0.28653100  1
  P  P18  1  0.70389400  0.99880800  0.28653100  1
  P  P19  1  0.37056067  0.03841933  0.11986433  1
  P  P20  1  0.96277267  0.33452533  0.04680233  1
  P  P21  1  0.96158067  0.33214133  0.11986433  1
  P  P22  1  0.29491400  0.29610600  0.28653100  1
  P  P23  1  0.37175267  0.03722733  0.04680233  1
  P  P24  1  0.33452533  0.96277267  0.45319767  1
  P  P25  1  0.33214133  0.96158067  0.38013567  1
  P  P26  1  0.96277267  0.62824733  0.54680233  1
  P  P27  1  0.66547467  0.03722733  0.54680233  1
  P  P28  1  0.37175267  0.33452533  0.54680233  1
  P  P29  1  0.66785867  0.03841933  0.61986433  1
  P  P30  1  0.37056067  0.33214133  0.61986433  1
  P  P31  1  0.03722733  0.37175267  0.45319767  1
  P  P32  1  0.62943933  0.66785867  0.38013567  1
  P  P33  1  0.62824733  0.66547467  0.45319767  1
  P  P34  1  0.96158067  0.62943933  0.61986433  1
  P  P35  1  0.03841933  0.37056067  0.38013567  1
  P  P36  1  0.00119200  0.29610600  0.78653100  1
  P  P37  1  0.99880800  0.29491400  0.71346900  1
  P  P38  1  0.62943933  0.96158067  0.88013567  1
  P  P39  1  0.33214133  0.37056067  0.88013567  1
  P  P40  1  0.03841933  0.66785867  0.88013567  1
  P  P41  1  0.33452533  0.37175267  0.95319767  1
  P  P42  1  0.03722733  0.66547467  0.95319767  1
  P  P43  1  0.70389400  0.70508600  0.78653100  1
  P  P44  1  0.29610600  0.00119200  0.71346900  1
  P  P45  1  0.29491400  0.99880800  0.78653100  1
  P  P46  1  0.62824733  0.96277267  0.95319767  1
  P  P47  1  0.70508600  0.70389400  0.71346900  1
  Ru  Ru48  1  0.33333333  0.66666667  0.00777367  1
  Ru  Ru49  1  0.00000000  0.00000000  0.15889300  1
  Ru  Ru50  1  0.66666667  0.33333333  0.17444033  1
  Ru  Ru51  1  0.33333333  0.66666667  0.32555967  1
  Ru  Ru52  1  0.00000000  0.00000000  0.34110700  1
  Ru  Ru53  1  0.66666667  0.33333333  0.49222633  1
  Ru  Ru54  1  0.33333333  0.66666667  0.50777367  1
  Ru  Ru55  1  0.00000000  0.00000000  0.65889300  1
  Ru  Ru56  1  0.66666667  0.33333333  0.67444033  1
  Ru  Ru57  1  0.33333333  0.66666667  0.82555967  1
  Ru  Ru58  1  0.00000000  0.00000000  0.84110700  1
  Ru  Ru59  1  0.66666667  0.33333333  0.99222633  1
  O  O60  1  0.19498867  0.74952633  0.29369733  1
  O  O61  1  0.80356267  0.24140633  0.02242633  1
  O  O62  1  0.86310400  0.09192700  0.31090700  1
  O  O63  1  0.21225500  0.21225500  0.25000000  1
  O  O64  1  0.13108300  0.62208200  0.21963000  1
  O  O65  1  0.55453767  0.80501133  0.29369733  1
  O  O66  1  0.75859367  0.56215633  0.02242633  1
  O  O67  1  0.09192700  0.86310400  0.18909300  1
  O  O68  1  0.79774967  0.84233433  0.05296333  1
  O  O69  1  0.11212900  0.52832200  0.03963600  1
  O  O70  1  0.87892167  0.33333333  0.08333333  1
  O  O71  1  0.22882300  0.13689600  0.31090700  1
  O  O72  1  0.44546233  0.25047367  0.20630267  1
  O  O73  1  0.43784367  0.19643733  0.02242633  1
  O  O74  1  0.86165533  0.77879567  0.12703067  1
  O  O75  1  0.17566767  0.46441633  0.11370333  1
  O  O76  1  0.62208200  0.13108300  0.28037000  1
  O  O77  1  0.78774500  0.00000000  0.25000000  1
  O  O78  1  0.00000000  0.78774500  0.25000000  1
  O  O79  1  0.13689600  0.22882300  0.18909300  1
  O  O80  1  0.45441167  0.12107833  0.08333333  1
  O  O81  1  0.22120433  0.08285967  0.12703067  1
  O  O82  1  0.74952633  0.19498867  0.20630267  1
  O  O83  1  0.49099900  0.86891700  0.21963000  1
  O  O84  1  0.90807300  0.77117700  0.31090700  1
  O  O85  1  0.41619300  0.88787100  0.03963600  1
  O  O86  1  0.33333333  0.66666667  0.16666667  1
  O  O87  1  0.50900100  0.37791800  0.28037000  1
  O  O88  1  0.89548967  0.42526033  0.14424033  1
  O  O89  1  0.86891700  0.49099900  0.28037000  1
  O  O90  1  0.47167800  0.58380700  0.03963600  1
  O  O91  1  0.52977067  0.10451033  0.14424033  1
  O  O92  1  0.37791800  0.50900100  0.21963000  1
  O  O93  1  0.15766567  0.95541533  0.05296333  1
  O  O94  1  0.28874867  0.82433233  0.11370333  1
  O  O95  1  0.80501133  0.55453767  0.20630267  1
  O  O96  1  0.66666667  0.54558833  0.08333333  1
  O  O97  1  0.57473967  0.47022933  0.14424033  1
  O  O98  1  0.77117700  0.90807300  0.18909300  1
  O  O99  1  0.04458467  0.20225033  0.05296333  1
  O  O100  1  0.25047367  0.44546233  0.29369733  1
  O  O101  1  0.53558367  0.71125133  0.11370333  1
  O  O102  1  0.91714033  0.13834467  0.12703067  1
  O  O103  1  0.00000000  0.00000000  0.00000000  1
  O  O104  1  0.86165533  0.08285967  0.62703067  1
  O  O105  1  0.47022933  0.57473967  0.35575967  1
  O  O106  1  0.52977067  0.42526033  0.64424033  1
  O  O107  1  0.87892167  0.54558833  0.58333333  1
  O  O108  1  0.79774967  0.95541533  0.55296333  1
  O  O109  1  0.22120433  0.13834467  0.62703067  1
  O  O110  1  0.42526033  0.89548967  0.35575967  1
  O  O111  1  0.75859367  0.19643733  0.52242633  1
  O  O112  1  0.46441633  0.17566767  0.38629667  1
  O  O113  1  0.77879567  0.86165533  0.37296933  1
  O  O114  1  0.54558833  0.66666667  0.41666667  1
  O  O115  1  0.89548967  0.47022933  0.64424033  1
  O  O116  1  0.11212900  0.58380700  0.53963600  1
  O  O117  1  0.10451033  0.52977067  0.35575967  1
  O  O118  1  0.52832200  0.11212900  0.46036400  1
  O  O119  1  0.84233433  0.79774967  0.44703667  1
  O  O120  1  0.28874867  0.46441633  0.61370333  1
  O  O121  1  0.45441167  0.33333333  0.58333333  1
  O  O122  1  0.66666667  0.12107833  0.58333333  1
  O  O123  1  0.80356267  0.56215633  0.52242633  1
  O  O124  1  0.12107833  0.45441167  0.41666667  1
  O  O125  1  0.88787100  0.41619300  0.46036400  1
  O  O126  1  0.41619300  0.52832200  0.53963600  1
  O  O127  1  0.15766567  0.20225033  0.55296333  1
  O  O128  1  0.57473967  0.10451033  0.64424033  1
  O  O129  1  0.08285967  0.22120433  0.37296933  1
  O  O130  1  1.00000000  0.00000000  0.50000000  1
  O  O131  1  0.17566767  0.71125133  0.61370333  1
  O  O132  1  0.56215633  0.75859367  0.47757367  1
  O  O133  1  0.53558367  0.82433233  0.61370333  1
  O  O134  1  0.13834467  0.91714033  0.37296933  1
  O  O135  1  0.19643733  0.43784367  0.47757367  1
  O  O136  1  0.04458467  0.84233433  0.55296333  1
  O  O137  1  0.82433233  0.28874867  0.38629667  1
  O  O138  1  0.95541533  0.15766567  0.44703667  1
  O  O139  1  0.47167800  0.88787100  0.53963600  1
  O  O140  1  0.33333333  0.87892167  0.41666667  1
  O  O141  1  0.24140633  0.80356267  0.47757367  1
  O  O142  1  0.43784367  0.24140633  0.52242633  1
  O  O143  1  0.71125133  0.53558367  0.38629667  1
  O  O144  1  0.91714033  0.77879567  0.62703067  1
  O  O145  1  0.20225033  0.04458467  0.44703667  1
  O  O146  1  0.58380700  0.47167800  0.46036400  1
  O  O147  1  0.66666667  0.33333333  0.33333333  1
  O  O148  1  0.52832200  0.41619300  0.96036400  1
  O  O149  1  0.13689600  0.90807300  0.68909300  1
  O  O150  1  0.19643733  0.75859367  0.97757367  1
  O  O151  1  0.54558833  0.87892167  0.91666667  1
  O  O152  1  0.46441633  0.28874867  0.88629667  1
  O  O153  1  0.88787100  0.47167800  0.96036400  1
  O  O154  1  0.09192700  0.22882300  0.68909300  1
  O  O155  1  0.42526033  0.52977067  0.85575967  1
  O  O156  1  0.13108300  0.50900100  0.71963000  1
  O  O157  1  0.44546233  0.19498867  0.70630267  1
  O  O158  1  0.21225500  0.00000000  0.75000000  1
  O  O159  1  0.56215633  0.80356267  0.97757367  1
  O  O160  1  0.77879567  0.91714033  0.87296933  1
  O  O161  1  0.77117700  0.86310400  0.68909300  1
  O  O162  1  0.19498867  0.44546233  0.79369733  1
  O  O163  1  0.50900100  0.13108300  0.78037000  1
  O  O164  1  0.95541533  0.79774967  0.94703667  1
  O  O165  1  0.12107833  0.66666667  0.91666667  1
  O  O166  1  0.33333333  0.45441167  0.91666667  1
  O  O167  1  0.47022933  0.89548967  0.85575967  1
  O  O168  1  0.78774500  0.78774500  0.75000000  1
  O  O169  1  0.55453767  0.74952633  0.79369733  1
  O  O170  1  0.08285967  0.86165533  0.87296933  1
  O  O171  1  0.82433233  0.53558367  0.88629667  1
  O  O172  1  0.24140633  0.43784367  0.97757367  1
  O  O173  1  0.74952633  0.55453767  0.70630267  1
  O  O174  1  0.66666667  0.33333333  0.83333333  1
  O  O175  1  0.84233433  0.04458467  0.94703667  1
  O  O176  1  0.22882300  0.09192700  0.81090700  1
  O  O177  1  0.20225033  0.15766567  0.94703667  1
  O  O178  1  0.80501133  0.25047367  0.70630267  1
  O  O179  1  0.86310400  0.77117700  0.81090700  1
  O  O180  1  0.71125133  0.17566767  0.88629667  1
  O  O181  1  0.49099900  0.62208200  0.71963000  1
  O  O182  1  0.62208200  0.49099900  0.78037000  1
  O  O183  1  0.13834467  0.22120433  0.87296933  1
  O  O184  1  0.00000000  0.21225500  0.75000000  1
  O  O185  1  0.90807300  0.13689600  0.81090700  1
  O  O186  1  0.10451033  0.57473967  0.85575967  1
  O  O187  1  0.37791800  0.86891700  0.71963000  1
  O  O188  1  0.58380700  0.11212900  0.96036400  1
  O  O189  1  0.86891700  0.37791800  0.78037000  1
  O  O190  1  0.25047367  0.80501133  0.79369733  1
  O  O191  1  0.33333333  0.66666667  0.66666667  1
