# generated using pymatgen
data_TlIn3S5
_symmetry_space_group_name_H-M   'P 1'
_cell_length_a   20.62739000
_cell_length_b   3.89306200
_cell_length_c   13.03788646
_cell_angle_alpha   90.00000000
_cell_angle_beta   121.24818631
_cell_angle_gamma   90.00000000
_symmetry_Int_Tables_number   1
_chemical_formula_structural   TlIn3S5
_chemical_formula_sum   'Tl4 In12 S20'
_cell_volume   895.10191034
_cell_formula_units_Z   4
loop_
 _symmetry_equiv_pos_site_id
 _symmetry_equiv_pos_as_xyz
  1  'x, y, z'
loop_
 _atom_site_type_symbol
 _atom_site_label
 _atom_site_symmetry_multiplicity
 _atom_site_fract_x
 _atom_site_fract_y
 _atom_site_fract_z
 _atom_site_occupancy
  Tl  Tl0  1  0.76098800  0.00000000  0.19553800  1
  Tl  Tl1  1  0.23901200  0.00000000  0.80446200  1
  Tl  Tl2  1  0.26098800  0.50000000  0.19553800  1
  Tl  Tl3  1  0.73901200  0.50000000  0.80446200  1
  In  In4  1  0.16287300  0.50000000  0.40166400  1
  In  In5  1  0.95275500  0.50000000  0.19449300  1
  In  In6  1  0.04724500  0.50000000  0.80550700  1
  In  In7  1  0.83712700  0.50000000  0.59833600  1
  In  In8  1  0.00000000  0.00000000  0.50000000  1
  In  In9  1  0.00000000  0.00000000  0.00000000  1
  In  In10  1  0.66287300  0.00000000  0.40166400  1
  In  In11  1  0.45275500  0.00000000  0.19449300  1
  In  In12  1  0.54724500  0.00000000  0.80550700  1
  In  In13  1  0.33712700  0.00000000  0.59833600  1
  In  In14  1  0.50000000  0.50000000  0.50000000  1
  In  In15  1  0.50000000  0.50000000  0.00000000  1
  S  S16  1  0.93621200  0.50000000  0.84419600  1
  S  S17  1  0.92873200  0.00000000  0.61361500  1
  S  S18  1  0.73941500  0.50000000  0.37085500  1
  S  S19  1  0.91157900  0.50000000  0.34427900  1
  S  S20  1  0.26058500  0.50000000  0.62914500  1
  S  S21  1  0.08842100  0.50000000  0.65572100  1
  S  S22  1  0.07126800  0.00000000  0.38638500  1
  S  S23  1  0.11456300  0.00000000  0.94966800  1
  S  S24  1  0.06378800  0.50000000  0.15580400  1
  S  S25  1  0.88543700  0.00000000  0.05033200  1
  S  S26  1  0.43621200  0.00000000  0.84419600  1
  S  S27  1  0.42873200  0.50000000  0.61361500  1
  S  S28  1  0.23941500  0.00000000  0.37085500  1
  S  S29  1  0.41157900  0.00000000  0.34427900  1
  S  S30  1  0.76058500  0.00000000  0.62914500  1
  S  S31  1  0.58842100  0.00000000  0.65572100  1
  S  S32  1  0.57126800  0.50000000  0.38638500  1
  S  S33  1  0.61456300  0.50000000  0.94966800  1
  S  S34  1  0.56378800  0.00000000  0.15580400  1
  S  S35  1  0.38543700  0.50000000  0.05033200  1
