# generated using pymatgen
data_Hf2P2O9
_symmetry_space_group_name_H-M   'P 1'
_cell_length_a   13.80665800
_cell_length_b   6.62300800
_cell_length_c   10.16019728
_cell_angle_alpha   90.00000000
_cell_angle_beta   131.78712334
_cell_angle_gamma   90.00000000
_symmetry_Int_Tables_number   1
_chemical_formula_structural   Hf2P2O9
_chemical_formula_sum   'Hf8 P8 O36'
_cell_volume   692.73463472
_cell_formula_units_Z   4
loop_
 _symmetry_equiv_pos_site_id
 _symmetry_equiv_pos_as_xyz
  1  'x, y, z'
loop_
 _atom_site_type_symbol
 _atom_site_label
 _atom_site_symmetry_multiplicity
 _atom_site_fract_x
 _atom_site_fract_y
 _atom_site_fract_z
 _atom_site_occupancy
  Hf  Hf0  1  0.68451200  0.00000000  0.63573500  1
  Hf  Hf1  1  0.31548800  0.00000000  0.36426500  1
  Hf  Hf2  1  0.44318900  0.50000000  0.09674900  1
  Hf  Hf3  1  0.55681100  0.50000000  0.90325100  1
  Hf  Hf4  1  0.18451200  0.50000000  0.63573500  1
  Hf  Hf5  1  0.81548800  0.50000000  0.36426500  1
  Hf  Hf6  1  0.94318900  0.00000000  0.09674900  1
  Hf  Hf7  1  0.05681100  0.00000000  0.90325100  1
  P  P8  1  0.59284900  0.00000000  0.83624800  1
  P  P9  1  0.67052900  0.50000000  0.54165500  1
  P  P10  1  0.40715100  0.00000000  0.16375200  1
  P  P11  1  0.32947100  0.50000000  0.45834500  1
  P  P12  1  0.09284900  0.50000000  0.83624800  1
  P  P13  1  0.17052900  0.00000000  0.54165500  1
  P  P14  1  0.90715100  0.50000000  0.16375200  1
  P  P15  1  0.82947100  0.00000000  0.45834500  1
  O  O16  1  0.51612000  0.00000000  0.63318000  1
  O  O17  1  0.27379200  0.00000000  0.52404100  1
  O  O18  1  0.73391500  0.00000000  0.90430900  1
  O  O19  1  0.72620800  0.00000000  0.47595900  1
  O  O20  1  0.31447400  0.69035100  0.35886900  1
  O  O21  1  0.43025450  0.18957350  0.10346500  1
  O  O22  1  0.56974550  0.18957350  0.89653500  1
  O  O23  1  0.11415300  0.00000000  0.15588200  1
  O  O24  1  0.68552600  0.30964900  0.64113100  1
  O  O25  1  0.53332500  0.50000000  0.35515200  1
  O  O26  1  0.48388000  0.00000000  0.36682000  1
  O  O27  1  0.26608500  0.00000000  0.09569100  1
  O  O28  1  0.43025450  0.81042650  0.10346500  1
  O  O29  1  0.46667500  0.50000000  0.64484800  1
  O  O30  1  0.56974550  0.81042650  0.89653500  1
  O  O31  1  0.68552600  0.69035100  0.64113100  1
  O  O32  1  0.88584700  0.00000000  0.84411800  1
  O  O33  1  0.31447400  0.30964900  0.35886900  1
  O  O34  1  0.01612000  0.50000000  0.63318000  1
  O  O35  1  0.77379200  0.50000000  0.52404100  1
  O  O36  1  0.23391500  0.50000000  0.90430900  1
  O  O37  1  0.22620800  0.50000000  0.47595900  1
  O  O38  1  0.81447400  0.19035100  0.35886900  1
  O  O39  1  0.93025450  0.68957350  0.10346500  1
  O  O40  1  0.06974550  0.68957350  0.89653500  1
  O  O41  1  0.61415300  0.50000000  0.15588200  1
  O  O42  1  0.18552600  0.80964900  0.64113100  1
  O  O43  1  0.03332500  0.00000000  0.35515200  1
  O  O44  1  0.98388000  0.50000000  0.36682000  1
  O  O45  1  0.76608500  0.50000000  0.09569100  1
  O  O46  1  0.93025450  0.31042650  0.10346500  1
  O  O47  1  0.96667500  0.00000000  0.64484800  1
  O  O48  1  0.06974550  0.31042650  0.89653500  1
  O  O49  1  0.18552600  0.19035100  0.64113100  1
  O  O50  1  0.38584700  0.50000000  0.84411800  1
  O  O51  1  0.81447400  0.80964900  0.35886900  1
