# generated using pymatgen
data_Te2Pb3(ClO3)2
_symmetry_space_group_name_H-M   'P 1'
_cell_length_a   16.77595000
_cell_length_b   5.70661000
_cell_length_c   11.10909969
_cell_angle_alpha   90.00000000
_cell_angle_beta   103.89235838
_cell_angle_gamma   90.00000000
_symmetry_Int_Tables_number   1
_chemical_formula_structural   Te2Pb3(ClO3)2
_chemical_formula_sum   'Te8 Pb12 Cl8 O24'
_cell_volume   1032.40693685
_cell_formula_units_Z   4
loop_
 _symmetry_equiv_pos_site_id
 _symmetry_equiv_pos_as_xyz
  1  'x, y, z'
loop_
 _atom_site_type_symbol
 _atom_site_label
 _atom_site_symmetry_multiplicity
 _atom_site_fract_x
 _atom_site_fract_y
 _atom_site_fract_z
 _atom_site_occupancy
  Te  Te0  1  0.89738900  0.50000000  0.94764700  1
  Te  Te1  1  0.87169300  0.00000000  0.40686100  1
  Te  Te2  1  0.62830700  0.50000000  0.59313900  1
  Te  Te3  1  0.60261100  0.00000000  0.05235300  1
  Te  Te4  1  0.39738900  0.00000000  0.94764700  1
  Te  Te5  1  0.37169300  0.50000000  0.40686100  1
  Te  Te6  1  0.12830700  0.00000000  0.59313900  1
  Te  Te7  1  0.10261100  0.50000000  0.05235300  1
  Pb  Pb8  1  0.66196500  0.00000000  0.39255100  1
  Pb  Pb9  1  0.73884000  0.00000000  0.79745800  1
  Pb  Pb10  1  0.83803500  0.50000000  0.60744900  1
  Pb  Pb11  1  0.97893400  0.00000000  0.80011000  1
  Pb  Pb12  1  0.52106600  0.50000000  0.19989000  1
  Pb  Pb13  1  0.76116000  0.50000000  0.20254200  1
  Pb  Pb14  1  0.16196500  0.50000000  0.39255100  1
  Pb  Pb15  1  0.23884000  0.50000000  0.79745800  1
  Pb  Pb16  1  0.33803500  0.00000000  0.60744900  1
  Pb  Pb17  1  0.47893400  0.50000000  0.80011000  1
  Pb  Pb18  1  0.02106600  0.00000000  0.19989000  1
  Pb  Pb19  1  0.26116000  0.00000000  0.20254200  1
  Cl  Cl20  1  0.68276500  0.50000000  0.90012900  1
  Cl  Cl21  1  0.54121500  0.00000000  0.70101600  1
  Cl  Cl22  1  0.95878500  0.50000000  0.29898400  1
  Cl  Cl23  1  0.81723500  0.00000000  0.09987100  1
  Cl  Cl24  1  0.18276500  0.00000000  0.90012900  1
  Cl  Cl25  1  0.04121500  0.50000000  0.70101600  1
  Cl  Cl26  1  0.45878500  0.00000000  0.29898400  1
  Cl  Cl27  1  0.31723500  0.50000000  0.09987100  1
  O  O28  1  0.79024950  0.24052650  0.38513200  1
  O  O29  1  0.89565300  0.00000000  0.58153400  1
  O  O30  1  0.63222850  0.23401750  0.18478500  1
  O  O31  1  0.70975050  0.25947350  0.61486800  1
  O  O32  1  0.86777150  0.73401750  0.81521500  1
  O  O33  1  0.79024950  0.75947350  0.38513200  1
  O  O34  1  0.63222850  0.76598250  0.18478500  1
  O  O35  1  0.86777150  0.26598250  0.81521500  1
  O  O36  1  0.00000000  0.71550800  0.00000000  1
  O  O37  1  0.60434700  0.50000000  0.41846600  1
  O  O38  1  0.70975050  0.74052650  0.61486800  1
  O  O39  1  0.00000000  0.28449200  0.00000000  1
  O  O40  1  0.29024950  0.74052650  0.38513200  1
  O  O41  1  0.39565300  0.50000000  0.58153400  1
  O  O42  1  0.13222850  0.73401750  0.18478500  1
  O  O43  1  0.20975050  0.75947350  0.61486800  1
  O  O44  1  0.36777150  0.23401750  0.81521500  1
  O  O45  1  0.29024950  0.25947350  0.38513200  1
  O  O46  1  0.13222850  0.26598250  0.18478500  1
  O  O47  1  0.36777150  0.76598250  0.81521500  1
  O  O48  1  0.50000000  0.21550800  0.00000000  1
  O  O49  1  0.10434700  0.00000000  0.41846600  1
  O  O50  1  0.20975050  0.24052650  0.61486800  1
  O  O51  1  0.50000000  0.78449200  0.00000000  1
