# generated using pymatgen
data_Zn(PO3)2
_symmetry_space_group_name_H-M   'P 1'
_cell_length_a   7.76950000
_cell_length_b   7.74194000
_cell_length_c   16.64323329
_cell_angle_alpha   90.00000000
_cell_angle_beta   91.89262411
_cell_angle_gamma   90.00000000
_symmetry_Int_Tables_number   1
_chemical_formula_structural   Zn(PO3)2
_chemical_formula_sum   'Zn8 P16 O48'
_cell_volume   1000.56104433
_cell_formula_units_Z   8
loop_
 _symmetry_equiv_pos_site_id
 _symmetry_equiv_pos_as_xyz
  1  'x, y, z'
loop_
 _atom_site_type_symbol
 _atom_site_label
 _atom_site_symmetry_multiplicity
 _atom_site_fract_x
 _atom_site_fract_y
 _atom_site_fract_z
 _atom_site_occupancy
  Zn  Zn0  1  0.13689950  0.80899250  0.12047500  1
  Zn  Zn1  1  0.04019800  0.90254600  0.90129300  1
  Zn  Zn2  1  0.13689950  0.19100750  0.62047500  1
  Zn  Zn3  1  0.04019800  0.09745400  0.40129300  1
  Zn  Zn4  1  0.63689950  0.30899250  0.12047500  1
  Zn  Zn5  1  0.54019800  0.40254600  0.90129300  1
  Zn  Zn6  1  0.63689950  0.69100750  0.62047500  1
  Zn  Zn7  1  0.54019800  0.59745400  0.40129300  1
  P  P8  1  0.95191700  0.48390000  0.87701700  1
  P  P9  1  0.72132200  0.28434000  0.64624200  1
  P  P10  1  0.95191700  0.51610000  0.37701700  1
  P  P11  1  0.23059000  0.48053500  0.75958900  1
  P  P12  1  0.96126800  0.76942000  0.51143200  1
  P  P13  1  0.96126800  0.23058000  0.01143200  1
  P  P14  1  0.72132200  0.71566000  0.14624200  1
  P  P15  1  0.23059000  0.51946500  0.25958900  1
  P  P16  1  0.45191700  0.98390000  0.87701700  1
  P  P17  1  0.22132200  0.78434000  0.64624200  1
  P  P18  1  0.45191700  0.01610000  0.37701700  1
  P  P19  1  0.73059000  0.98053500  0.75958900  1
  P  P20  1  0.46126800  0.26942000  0.51143200  1
  P  P21  1  0.46126800  0.73058000  0.01143200  1
  P  P22  1  0.22132200  0.21566000  0.14624200  1
  P  P23  1  0.73059000  0.01946500  0.25958900  1
  O  O24  1  0.89600250  0.74261950  0.11302800  1
  O  O25  1  0.36369100  0.50226800  0.32598500  1
  O  O26  1  0.89600250  0.25738050  0.61302800  1
  O  O27  1  0.01318850  0.65416850  0.90931200  1
  O  O28  1  0.99977600  0.04197200  0.99874400  1
  O  O29  1  0.66756400  0.46341900  0.66799700  1
  O  O30  1  0.66756400  0.53658100  0.16799700  1
  O  O31  1  0.76414200  0.45802900  0.85946200  1
  O  O32  1  0.76414200  0.54197100  0.35946200  1
  O  O33  1  0.26010100  0.64325700  0.19239600  1
  O  O34  1  0.77913900  0.28654100  0.02509300  1
  O  O35  1  0.08132150  0.69659950  0.58425100  1
  O  O36  1  0.19276000  0.67200000  0.72533800  1
  O  O37  1  0.01318850  0.34583150  0.40931200  1
  O  O38  1  0.03129500  0.33487800  0.93570000  1
  O  O39  1  0.77913900  0.71345900  0.52509300  1
  O  O40  1  0.04530350  0.56581250  0.29526600  1
  O  O41  1  0.19276000  0.32800000  0.22533800  1
  O  O42  1  0.03129500  0.66512200  0.43570000  1
  O  O43  1  0.04530350  0.43418750  0.79526600  1
  O  O44  1  0.99977600  0.95802800  0.49874400  1
  O  O45  1  0.26010100  0.35674300  0.69239600  1
  O  O46  1  0.08132150  0.30340050  0.08425100  1
  O  O47  1  0.36369100  0.49773200  0.82598500  1
  O  O48  1  0.39600250  0.24261950  0.11302800  1
  O  O49  1  0.86369100  0.00226800  0.32598500  1
  O  O50  1  0.39600250  0.75738050  0.61302800  1
  O  O51  1  0.51318850  0.15416850  0.90931200  1
  O  O52  1  0.49977600  0.54197200  0.99874400  1
  O  O53  1  0.16756400  0.96341900  0.66799700  1
  O  O54  1  0.16756400  0.03658100  0.16799700  1
  O  O55  1  0.26414200  0.95802900  0.85946200  1
  O  O56  1  0.26414200  0.04197100  0.35946200  1
  O  O57  1  0.76010100  0.14325700  0.19239600  1
  O  O58  1  0.27913900  0.78654100  0.02509300  1
  O  O59  1  0.58132150  0.19659950  0.58425100  1
  O  O60  1  0.69276000  0.17200000  0.72533800  1
  O  O61  1  0.51318850  0.84583150  0.40931200  1
  O  O62  1  0.53129500  0.83487800  0.93570000  1
  O  O63  1  0.27913900  0.21345900  0.52509300  1
  O  O64  1  0.54530350  0.06581250  0.29526600  1
  O  O65  1  0.69276000  0.82800000  0.22533800  1
  O  O66  1  0.53129500  0.16512200  0.43570000  1
  O  O67  1  0.54530350  0.93418750  0.79526600  1
  O  O68  1  0.49977600  0.45802800  0.49874400  1
  O  O69  1  0.76010100  0.85674300  0.69239600  1
  O  O70  1  0.58132150  0.80340050  0.08425100  1
  O  O71  1  0.86369100  0.99773200  0.82598500  1
