# generated using pymatgen
data_Si2Ru
_symmetry_space_group_name_H-M   'P 1'
_cell_length_a   8.13000400
_cell_length_b   10.19560000
_cell_length_c   8.23268400
_cell_angle_alpha   90.00000000
_cell_angle_beta   90.00000000
_cell_angle_gamma   90.00000000
_symmetry_Int_Tables_number   1
_chemical_formula_structural   Si2Ru
_chemical_formula_sum   'Si32 Ru16'
_cell_volume   682.40938956
_cell_formula_units_Z   16
loop_
 _symmetry_equiv_pos_site_id
 _symmetry_equiv_pos_as_xyz
  1  'x, y, z'
loop_
 _atom_site_type_symbol
 _atom_site_label
 _atom_site_symmetry_multiplicity
 _atom_site_fract_x
 _atom_site_fract_y
 _atom_site_fract_z
 _atom_site_occupancy
  Si  Si0  1  0.22280150  0.12764250  0.55578800  1
  Si  Si1  1  0.72280150  0.12764250  0.94421200  1
  Si  Si2  1  0.77719850  0.12764250  0.44421200  1
  Si  Si3  1  0.55088300  0.37320600  0.27530500  1
  Si  Si4  1  0.55088300  0.12679400  0.22469500  1
  Si  Si5  1  0.55088300  0.87320600  0.22469500  1
  Si  Si6  1  0.22280150  0.87235750  0.55578800  1
  Si  Si7  1  0.44911700  0.62679400  0.72469500  1
  Si  Si8  1  0.55088300  0.62679400  0.27530500  1
  Si  Si9  1  0.44911700  0.37320600  0.72469500  1
  Si  Si10  1  0.27719850  0.87235750  0.05578800  1
  Si  Si11  1  0.44911700  0.87320600  0.77530500  1
  Si  Si12  1  0.44911700  0.12679400  0.77530500  1
  Si  Si13  1  0.27719850  0.12764250  0.05578800  1
  Si  Si14  1  0.72280150  0.87235750  0.94421200  1
  Si  Si15  1  0.77719850  0.87235750  0.44421200  1
  Si  Si16  1  0.72280150  0.62764250  0.55578800  1
  Si  Si17  1  0.22280150  0.62764250  0.94421200  1
  Si  Si18  1  0.27719850  0.62764250  0.44421200  1
  Si  Si19  1  0.05088300  0.87320600  0.27530500  1
  Si  Si20  1  0.05088300  0.62679400  0.22469500  1
  Si  Si21  1  0.05088300  0.37320600  0.22469500  1
  Si  Si22  1  0.72280150  0.37235750  0.55578800  1
  Si  Si23  1  0.94911700  0.12679400  0.72469500  1
  Si  Si24  1  0.05088300  0.12679400  0.27530500  1
  Si  Si25  1  0.94911700  0.87320600  0.72469500  1
  Si  Si26  1  0.77719850  0.37235750  0.05578800  1
  Si  Si27  1  0.94911700  0.37320600  0.77530500  1
  Si  Si28  1  0.94911700  0.62679400  0.77530500  1
  Si  Si29  1  0.77719850  0.62764250  0.05578800  1
  Si  Si30  1  0.22280150  0.37235750  0.94421200  1
  Si  Si31  1  0.27719850  0.37235750  0.44421200  1
  Ru  Ru32  1  0.50000000  0.21475200  0.50000000  1
  Ru  Ru33  1  0.50000000  0.28524800  0.00000000  1
  Ru  Ru34  1  0.31151400  0.00000000  0.31708200  1
  Ru  Ru35  1  0.50000000  0.78524800  0.50000000  1
  Ru  Ru36  1  0.81151400  0.00000000  0.18291800  1
  Ru  Ru37  1  0.68848600  0.00000000  0.68291800  1
  Ru  Ru38  1  0.50000000  0.71475200  0.00000000  1
  Ru  Ru39  1  0.18848600  0.00000000  0.81708200  1
  Ru  Ru40  1  0.00000000  0.71475200  0.50000000  1
  Ru  Ru41  1  0.00000000  0.78524800  0.00000000  1
  Ru  Ru42  1  0.81151400  0.50000000  0.31708200  1
  Ru  Ru43  1  0.00000000  0.28524800  0.50000000  1
  Ru  Ru44  1  0.31151400  0.50000000  0.18291800  1
  Ru  Ru45  1  0.18848600  0.50000000  0.68291800  1
  Ru  Ru46  1  0.00000000  0.21475200  0.00000000  1
  Ru  Ru47  1  0.68848600  0.50000000  0.81708200  1
