# generated using pymatgen
data_MnCrF5
_symmetry_space_group_name_H-M   'P 1'
_cell_length_a   8.77282200
_cell_length_b   6.41545400
_cell_length_c   7.51948572
_cell_angle_alpha   90.00000000
_cell_angle_beta   115.45364501
_cell_angle_gamma   90.00000000
_symmetry_Int_Tables_number   1
_chemical_formula_structural   MnCrF5
_chemical_formula_sum   'Mn4 Cr4 F20'
_cell_volume   382.12945804
_cell_formula_units_Z   4
loop_
 _symmetry_equiv_pos_site_id
 _symmetry_equiv_pos_as_xyz
  1  'x, y, z'
loop_
 _atom_site_type_symbol
 _atom_site_label
 _atom_site_symmetry_multiplicity
 _atom_site_fract_x
 _atom_site_fract_y
 _atom_site_fract_z
 _atom_site_occupancy
  Mn  Mn0  1  0.00000000  0.53315200  0.25000000  1
  Mn  Mn1  1  0.00000000  0.46684800  0.75000000  1
  Mn  Mn2  1  0.50000000  0.03315200  0.25000000  1
  Mn  Mn3  1  0.50000000  0.96684800  0.75000000  1
  Cr  Cr4  1  0.00000000  0.00000000  0.00000000  1
  Cr  Cr5  1  0.00000000  0.00000000  0.50000000  1
  Cr  Cr6  1  0.50000000  0.50000000  0.00000000  1
  Cr  Cr7  1  0.50000000  0.50000000  0.50000000  1
  F  F8  1  0.74152400  0.46750300  0.62832600  1
  F  F9  1  0.25847600  0.46750300  0.87167400  1
  F  F10  1  0.25847600  0.53249700  0.37167400  1
  F  F11  1  0.74152400  0.53249700  0.12832600  1
  F  F12  1  0.00000000  0.90530700  0.25000000  1
  F  F13  1  0.00000000  0.09469300  0.75000000  1
  F  F14  1  0.01775600  0.70138100  0.96497000  1
  F  F15  1  0.98224400  0.70138100  0.53503000  1
  F  F16  1  0.98224400  0.29861900  0.03503000  1
  F  F17  1  0.01775600  0.29861900  0.46497000  1
  F  F18  1  0.24152400  0.96750300  0.62832600  1
  F  F19  1  0.75847600  0.96750300  0.87167400  1
  F  F20  1  0.75847600  0.03249700  0.37167400  1
  F  F21  1  0.24152400  0.03249700  0.12832600  1
  F  F22  1  0.50000000  0.40530700  0.25000000  1
  F  F23  1  0.50000000  0.59469300  0.75000000  1
  F  F24  1  0.51775600  0.20138100  0.96497000  1
  F  F25  1  0.48224400  0.20138100  0.53503000  1
  F  F26  1  0.48224400  0.79861900  0.03503000  1
  F  F27  1  0.51775600  0.79861900  0.46497000  1
