# generated using pymatgen
data_CdCu2(BO3)2
_symmetry_space_group_name_H-M   'P 1'
_cell_length_a   3.56526600
_cell_length_b   15.24658500
_cell_length_c   9.51937655
_cell_angle_alpha   90.00000000
_cell_angle_beta   95.64896824
_cell_angle_gamma   90.00000000
_symmetry_Int_Tables_number   1
_chemical_formula_structural   CdCu2(BO3)2
_chemical_formula_sum   'Cd4 Cu8 B8 O24'
_cell_volume   514.94256671
_cell_formula_units_Z   4
loop_
 _symmetry_equiv_pos_site_id
 _symmetry_equiv_pos_as_xyz
  1  'x, y, z'
loop_
 _atom_site_type_symbol
 _atom_site_label
 _atom_site_symmetry_multiplicity
 _atom_site_fract_x
 _atom_site_fract_y
 _atom_site_fract_z
 _atom_site_occupancy
  Cd  Cd0  1  0.21246700  0.86688000  0.38617900  1
  Cd  Cd1  1  0.78753300  0.36688000  0.11382100  1
  Cd  Cd2  1  0.21246700  0.63312000  0.88617900  1
  Cd  Cd3  1  0.78753300  0.13312000  0.61382100  1
  Cu  Cu4  1  0.68738400  0.95902000  0.13760700  1
  Cu  Cu5  1  0.68738400  0.54098000  0.63760700  1
  Cu  Cu6  1  0.31261600  0.45902000  0.36239300  1
  Cu  Cu7  1  0.31261600  0.04098000  0.86239300  1
  Cu  Cu8  1  0.31969000  0.24647900  0.36437700  1
  Cu  Cu9  1  0.68031000  0.74647900  0.13562300  1
  Cu  Cu10  1  0.31969000  0.25352100  0.86437700  1
  Cu  Cu11  1  0.68031000  0.75352100  0.63562300  1
  B  B12  1  0.21179200  0.65103800  0.41976300  1
  B  B13  1  0.89169700  0.91164300  0.68530800  1
  B  B14  1  0.21179200  0.84896200  0.91976300  1
  B  B15  1  0.78820800  0.34896200  0.58023700  1
  B  B16  1  0.89169700  0.58835700  0.18530800  1
  B  B17  1  0.10830300  0.08835700  0.31469200  1
  B  B18  1  0.78820800  0.15103800  0.08023700  1
  B  B19  1  0.10830300  0.41164300  0.81469200  1
  O  O20  1  0.71773800  0.87552500  0.56312700  1
  O  O21  1  0.31913400  0.14906900  0.76264500  1
  O  O22  1  0.71773800  0.62447500  0.06312700  1
  O  O23  1  0.68086600  0.64906900  0.73735500  1
  O  O24  1  0.95967300  0.50275900  0.21047900  1
  O  O25  1  0.26715600  0.77169200  0.99000900  1
  O  O26  1  0.73284400  0.27169200  0.50999100  1
  O  O27  1  0.04032700  0.00275900  0.28952100  1
  O  O28  1  0.28226200  0.12447500  0.43687300  1
  O  O29  1  0.31913400  0.35093100  0.26264500  1
  O  O30  1  0.00012000  0.15546200  0.21438000  1
  O  O31  1  0.68086600  0.85093100  0.23735500  1
  O  O32  1  0.65417000  0.07078100  0.03171900  1
  O  O33  1  0.95967300  0.99724100  0.71047900  1
  O  O34  1  0.73284400  0.22830800  0.00999100  1
  O  O35  1  0.00012000  0.34453800  0.71438000  1
  O  O36  1  0.99988000  0.65546200  0.28562000  1
  O  O37  1  0.28226200  0.37552500  0.93687300  1
  O  O38  1  0.65417000  0.42921900  0.53171900  1
  O  O39  1  0.26715600  0.72830800  0.49000900  1
  O  O40  1  0.34583000  0.57078100  0.46828100  1
  O  O41  1  0.34583000  0.92921900  0.96828100  1
  O  O42  1  0.99988000  0.84453800  0.78562000  1
  O  O43  1  0.04032700  0.49724100  0.78952100  1
