# generated using pymatgen
data_Ce(PO3)3
_symmetry_space_group_name_H-M   'P 1'
_cell_length_a   8.70695400
_cell_length_b   11.35747200
_cell_length_c   7.44520200
_cell_angle_alpha   90.00000000
_cell_angle_beta   90.00000000
_cell_angle_gamma   90.00000000
_symmetry_Int_Tables_number   1
_chemical_formula_structural   Ce(PO3)3
_chemical_formula_sum   'Ce4 P12 O36'
_cell_volume   736.24847828
_cell_formula_units_Z   4
loop_
 _symmetry_equiv_pos_site_id
 _symmetry_equiv_pos_as_xyz
  1  'x, y, z'
loop_
 _atom_site_type_symbol
 _atom_site_label
 _atom_site_symmetry_multiplicity
 _atom_site_fract_x
 _atom_site_fract_y
 _atom_site_fract_z
 _atom_site_occupancy
  Ce  Ce0  1  0.37119600  0.00000000  0.00000000  1
  Ce  Ce1  1  0.62880400  0.00000000  0.50000000  1
  Ce  Ce2  1  0.87119600  0.50000000  0.00000000  1
  Ce  Ce3  1  0.12880400  0.50000000  0.50000000  1
  P  P4  1  0.50751150  0.67569150  0.04717500  1
  P  P5  1  0.49248850  0.32430850  0.54717500  1
  P  P6  1  0.50751150  0.32430850  0.95282500  1
  P  P7  1  0.49248850  0.67569150  0.45282500  1
  P  P8  1  0.75132600  0.00000000  0.00000000  1
  P  P9  1  0.24867400  0.00000000  0.50000000  1
  P  P10  1  0.00751150  0.17569150  0.04717500  1
  P  P11  1  0.99248850  0.82430850  0.54717500  1
  P  P12  1  0.00751150  0.82430850  0.95282500  1
  P  P13  1  0.99248850  0.17569150  0.45282500  1
  P  P14  1  0.25132600  0.50000000  0.00000000  1
  P  P15  1  0.74867400  0.50000000  0.50000000  1
  O  O16  1  0.86071300  0.10901200  0.95983900  1
  O  O17  1  0.13928700  0.89098800  0.45983900  1
  O  O18  1  0.86071300  0.89098800  0.04016100  1
  O  O19  1  0.13928700  0.10901200  0.54016100  1
  O  O20  1  0.65496950  0.98193050  0.83263600  1
  O  O21  1  0.34503050  0.01806950  0.33263600  1
  O  O22  1  0.65496950  0.01806950  0.16736400  1
  O  O23  1  0.34503050  0.98193050  0.66736400  1
  O  O24  1  0.52411350  0.80460750  0.46272400  1
  O  O25  1  0.47588650  0.19539250  0.96272400  1
  O  O26  1  0.52411350  0.19539250  0.53727600  1
  O  O27  1  0.47588650  0.80460750  0.03727600  1
  O  O28  1  0.84903150  0.12773750  0.53551700  1
  O  O29  1  0.15096850  0.87226250  0.03551700  1
  O  O30  1  0.84903150  0.87226250  0.46448300  1
  O  O31  1  0.15096850  0.12773750  0.96448300  1
  O  O32  1  0.50000000  0.62723000  0.25000000  1
  O  O33  1  0.50000000  0.37277000  0.75000000  1
  O  O34  1  0.36071300  0.60901200  0.95983900  1
  O  O35  1  0.63928700  0.39098800  0.45983900  1
  O  O36  1  0.36071300  0.39098800  0.04016100  1
  O  O37  1  0.63928700  0.60901200  0.54016100  1
  O  O38  1  0.15496950  0.48193050  0.83263600  1
  O  O39  1  0.84503050  0.51806950  0.33263600  1
  O  O40  1  0.15496950  0.51806950  0.16736400  1
  O  O41  1  0.84503050  0.48193050  0.66736400  1
  O  O42  1  0.02411350  0.30460750  0.46272400  1
  O  O43  1  0.97588650  0.69539250  0.96272400  1
  O  O44  1  0.02411350  0.69539250  0.53727600  1
  O  O45  1  0.97588650  0.30460750  0.03727600  1
  O  O46  1  0.34903150  0.62773750  0.53551700  1
  O  O47  1  0.65096850  0.37226250  0.03551700  1
  O  O48  1  0.34903150  0.37226250  0.46448300  1
  O  O49  1  0.65096850  0.62773750  0.96448300  1
  O  O50  1  0.00000000  0.12723000  0.25000000  1
  O  O51  1  0.00000000  0.87277000  0.75000000  1
