# generated using pymatgen
data_Tl4Pd3Cl10
_symmetry_space_group_name_H-M   'P 1'
_cell_length_a   16.45538800
_cell_length_b   16.45538800
_cell_length_c   14.32850400
_cell_angle_alpha   90.00000000
_cell_angle_beta   90.00000000
_cell_angle_gamma   90.00000000
_symmetry_Int_Tables_number   1
_chemical_formula_structural   Tl4Pd3Cl10
_chemical_formula_sum   'Tl32 Pd24 Cl80'
_cell_volume   3879.86936475
_cell_formula_units_Z   8
loop_
 _symmetry_equiv_pos_site_id
 _symmetry_equiv_pos_as_xyz
  1  'x, y, z'
loop_
 _atom_site_type_symbol
 _atom_site_label
 _atom_site_symmetry_multiplicity
 _atom_site_fract_x
 _atom_site_fract_y
 _atom_site_fract_z
 _atom_site_occupancy
  Tl  Tl0  1  0.75774900  0.25000000  0.87500000  1
  Tl  Tl1  1  0.25000000  0.24225100  0.12500000  1
  Tl  Tl2  1  0.50000000  0.50000000  0.35803400  1
  Tl  Tl3  1  0.50000000  0.00000000  0.39196600  1
  Tl  Tl4  1  0.54758500  0.24428300  0.60119500  1
  Tl  Tl5  1  0.75571700  0.95241500  0.35119500  1
  Tl  Tl6  1  0.74428300  0.95241500  0.89880500  1
  Tl  Tl7  1  0.74225100  0.25000000  0.37500000  1
  Tl  Tl8  1  0.50000000  0.00000000  0.10803400  1
  Tl  Tl9  1  0.04758500  0.75571700  0.64880500  1
  Tl  Tl10  1  0.95241500  0.25571700  0.10119500  1
  Tl  Tl11  1  0.24428300  0.04758500  0.35119500  1
  Tl  Tl12  1  0.75571700  0.54758500  0.39880500  1
  Tl  Tl13  1  0.25000000  0.25774900  0.62500000  1
  Tl  Tl14  1  0.95241500  0.24428300  0.64880500  1
  Tl  Tl15  1  0.50000000  0.50000000  0.64196600  1
  Tl  Tl16  1  0.25774900  0.75000000  0.37500000  1
  Tl  Tl17  1  0.75000000  0.74225100  0.62500000  1
  Tl  Tl18  1  0.00000000  0.00000000  0.85803400  1
  Tl  Tl19  1  0.00000000  0.50000000  0.89196600  1
  Tl  Tl20  1  0.04758500  0.74428300  0.10119500  1
  Tl  Tl21  1  0.25571700  0.45241500  0.85119500  1
  Tl  Tl22  1  0.24428300  0.45241500  0.39880500  1
  Tl  Tl23  1  0.24225100  0.75000000  0.87500000  1
  Tl  Tl24  1  0.00000000  0.50000000  0.60803400  1
  Tl  Tl25  1  0.54758500  0.25571700  0.14880500  1
  Tl  Tl26  1  0.45241500  0.75571700  0.60119500  1
  Tl  Tl27  1  0.74428300  0.54758500  0.85119500  1
  Tl  Tl28  1  0.25571700  0.04758500  0.89880500  1
  Tl  Tl29  1  0.75000000  0.75774900  0.12500000  1
  Tl  Tl30  1  0.45241500  0.74428300  0.14880500  1
  Tl  Tl31  1  0.00000000  0.00000000  0.14196600  1
  Pd  Pd32  1  0.75000000  0.39868900  0.62500000  1
  Pd  Pd33  1  0.60131100  0.75000000  0.37500000  1
  Pd  Pd34  1  0.60633150  0.98615450  0.63830250  1
  Pd  Pd35  1  0.01384550  0.89366850  0.38830250  1
  Pd  Pd36  1  0.39868900  0.25000000  0.37500000  1
  Pd  Pd37  1  0.98615450  0.39366850  0.36169750  1
  Pd  Pd38  1  0.10633150  0.01384550  0.61169750  1
  Pd  Pd39  1  0.89366850  0.98615450  0.61169750  1
  Pd  Pd40  1  0.25000000  0.60131100  0.62500000  1
  Pd  Pd41  1  0.89366850  0.51384550  0.13830250  1
  Pd  Pd42  1  0.98615450  0.10633150  0.38830250  1
  Pd  Pd43  1  0.51384550  0.10633150  0.86169750  1
  Pd  Pd44  1  0.25000000  0.89868900  0.12500000  1
  Pd  Pd45  1  0.10131100  0.25000000  0.87500000  1
  Pd  Pd46  1  0.10633150  0.48615450  0.13830250  1
  Pd  Pd47  1  0.51384550  0.39366850  0.88830250  1
  Pd  Pd48  1  0.89868900  0.75000000  0.87500000  1
  Pd  Pd49  1  0.48615450  0.89366850  0.86169750  1
  Pd  Pd50  1  0.60633150  0.51384550  0.11169750  1
  Pd  Pd51  1  0.39366850  0.48615450  0.11169750  1
  Pd  Pd52  1  0.75000000  0.10131100  0.12500000  1
  Pd  Pd53  1  0.39366850  0.01384550  0.63830250  1
  Pd  Pd54  1  0.48615450  0.60633150  0.88830250  1
  Pd  Pd55  1  0.01384550  0.60633150  0.36169750  1
  Cl  Cl56  1  0.75720000  0.75000000  0.87500000  1
  Cl  Cl57  1  0.63169650  0.42046350  0.23036350  1
  Cl  Cl58  1  0.42046350  0.13169650  0.98036350  1
  Cl  Cl59  1  0.25000000  0.45924700  0.62500000  1
  Cl  Cl60  1  0.09242450  0.38504250  0.25203750  1
  Cl  Cl61  1  0.11495750  0.90757550  0.50203750  1
  Cl  Cl62  1  0.60234200  0.65133900  0.49238500  1
  Cl  Cl63  1  0.54075300  0.25000000  0.37500000  1
  Cl  Cl64  1  0.11274650  0.38278650  0.02838750  1
  Cl  Cl65  1  0.34866100  0.60234200  0.50761500  1
  Cl  Cl66  1  0.88504250  0.40757550  0.24796250  1
  Cl  Cl67  1  0.84866100  0.39765800  0.74238500  1
  Cl  Cl68  1  0.75000000  0.24280000  0.12500000  1
  Cl  Cl69  1  0.63169650  0.07953650  0.51963650  1
  Cl  Cl70  1  0.88725350  0.88278650  0.72161250  1
  Cl  Cl71  1  0.61274650  0.61721350  0.22161250  1
  Cl  Cl72  1  0.88504250  0.09242450  0.50203750  1
  Cl  Cl73  1  0.07953650  0.36830350  0.48036350  1
  Cl  Cl74  1  0.74280000  0.75000000  0.37500000  1
  Cl  Cl75  1  0.39765800  0.34866100  0.49238500  1
  Cl  Cl76  1  0.42046350  0.36830350  0.76963650  1
  Cl  Cl77  1  0.60234200  0.84866100  0.25761500  1
  Cl  Cl78  1  0.09242450  0.11495750  0.49796250  1
  Cl  Cl79  1  0.38725350  0.11721350  0.52838750  1
  Cl  Cl80  1  0.65133900  0.39765800  0.50761500  1
  Cl  Cl81  1  0.61721350  0.11274650  0.97161250  1
  Cl  Cl82  1  0.65133900  0.10234200  0.24238500  1
  Cl  Cl83  1  0.75000000  0.54075300  0.62500000  1
  Cl  Cl84  1  0.89765800  0.65133900  0.75761500  1
  Cl  Cl85  1  0.88278650  0.11274650  0.27838750  1
  Cl  Cl86  1  0.07953650  0.13169650  0.26963650  1
  Cl  Cl87  1  0.88278650  0.38725350  0.47161250  1
  Cl  Cl88  1  0.61495750  0.09242450  0.74796250  1
  Cl  Cl89  1  0.40757550  0.11495750  0.75203750  1
  Cl  Cl90  1  0.45924700  0.75000000  0.37500000  1
  Cl  Cl91  1  0.86830350  0.42046350  0.01963650  1
  Cl  Cl92  1  0.75000000  0.25720000  0.62500000  1
  Cl  Cl93  1  0.61721350  0.38725350  0.77838750  1
  Cl  Cl94  1  0.86830350  0.07953650  0.73036350  1
  Cl  Cl95  1  0.90757550  0.88504250  0.49796250  1
  Cl  Cl96  1  0.25720000  0.25000000  0.37500000  1
  Cl  Cl97  1  0.13169650  0.92046350  0.73036350  1
  Cl  Cl98  1  0.92046350  0.63169650  0.48036350  1
  Cl  Cl99  1  0.75000000  0.95924700  0.12500000  1
  Cl  Cl100  1  0.59242450  0.88504250  0.75203750  1
  Cl  Cl101  1  0.61495750  0.40757550  0.00203750  1
  Cl  Cl102  1  0.10234200  0.15133900  0.99238500  1
  Cl  Cl103  1  0.04075300  0.75000000  0.87500000  1
  Cl  Cl104  1  0.61274650  0.88278650  0.52838750  1
  Cl  Cl105  1  0.84866100  0.10234200  0.00761500  1
  Cl  Cl106  1  0.38504250  0.90757550  0.74796250  1
  Cl  Cl107  1  0.34866100  0.89765800  0.24238500  1
  Cl  Cl108  1  0.25000000  0.74280000  0.62500000  1
  Cl  Cl109  1  0.13169650  0.57953650  0.01963650  1
  Cl  Cl110  1  0.38725350  0.38278650  0.22161250  1
  Cl  Cl111  1  0.11274650  0.11721350  0.72161250  1
  Cl  Cl112  1  0.38504250  0.59242450  0.00203750  1
  Cl  Cl113  1  0.57953650  0.86830350  0.98036350  1
  Cl  Cl114  1  0.24280000  0.25000000  0.87500000  1
  Cl  Cl115  1  0.89765800  0.84866100  0.99238500  1
  Cl  Cl116  1  0.92046350  0.86830350  0.26963650  1
  Cl  Cl117  1  0.10234200  0.34866100  0.75761500  1
  Cl  Cl118  1  0.59242450  0.61495750  0.99796250  1
  Cl  Cl119  1  0.88725350  0.61721350  0.02838750  1
  Cl  Cl120  1  0.15133900  0.89765800  0.00761500  1
  Cl  Cl121  1  0.11721350  0.61274650  0.47161250  1
  Cl  Cl122  1  0.15133900  0.60234200  0.74238500  1
  Cl  Cl123  1  0.25000000  0.04075300  0.12500000  1
  Cl  Cl124  1  0.39765800  0.15133900  0.25761500  1
  Cl  Cl125  1  0.38278650  0.61274650  0.77838750  1
  Cl  Cl126  1  0.57953650  0.63169650  0.76963650  1
  Cl  Cl127  1  0.38278650  0.88725350  0.97161250  1
  Cl  Cl128  1  0.11495750  0.59242450  0.24796250  1
  Cl  Cl129  1  0.90757550  0.61495750  0.25203750  1
  Cl  Cl130  1  0.95924700  0.25000000  0.87500000  1
  Cl  Cl131  1  0.36830350  0.92046350  0.51963650  1
  Cl  Cl132  1  0.25000000  0.75720000  0.12500000  1
  Cl  Cl133  1  0.11721350  0.88725350  0.27838750  1
  Cl  Cl134  1  0.36830350  0.57953650  0.23036350  1
  Cl  Cl135  1  0.40757550  0.38504250  0.99796250  1
