# generated using pymatgen
data_PBrNF
_symmetry_space_group_name_H-M   'P 1'
_cell_length_a   10.57466400
_cell_length_b   12.93168600
_cell_length_c   8.28966400
_cell_angle_alpha   90.00000000
_cell_angle_beta   90.00000000
_cell_angle_gamma   90.00000000
_symmetry_Int_Tables_number   1
_chemical_formula_structural   PBrNF
_chemical_formula_sum   'P12 Br12 N12 F12'
_cell_volume   1133.59691580
_cell_formula_units_Z   12
loop_
 _symmetry_equiv_pos_site_id
 _symmetry_equiv_pos_as_xyz
  1  'x, y, z'
loop_
 _atom_site_type_symbol
 _atom_site_label
 _atom_site_symmetry_multiplicity
 _atom_site_fract_x
 _atom_site_fract_y
 _atom_site_fract_z
 _atom_site_occupancy
  P  P0  1  0.33451100  0.00000000  0.24476900  1
  P  P1  1  0.20386750  0.10702250  0.01025700  1
  P  P2  1  0.20386750  0.89297750  0.01025700  1
  P  P3  1  0.66548900  0.00000000  0.74476900  1
  P  P4  1  0.79613250  0.10702250  0.51025700  1
  P  P5  1  0.79613250  0.89297750  0.51025700  1
  P  P6  1  0.83451100  0.50000000  0.24476900  1
  P  P7  1  0.70386750  0.60702250  0.01025700  1
  P  P8  1  0.70386750  0.39297750  0.01025700  1
  P  P9  1  0.16548900  0.50000000  0.74476900  1
  P  P10  1  0.29613250  0.60702250  0.51025700  1
  P  P11  1  0.29613250  0.39297750  0.51025700  1
  Br  Br12  1  0.26150900  0.00000000  0.49091800  1
  Br  Br13  1  0.45942950  0.70216850  0.56941500  1
  Br  Br14  1  0.73849100  0.00000000  0.99091800  1
  Br  Br15  1  0.54057050  0.70216850  0.06941500  1
  Br  Br16  1  0.45942950  0.29783150  0.56941500  1
  Br  Br17  1  0.54057050  0.29783150  0.06941500  1
  Br  Br18  1  0.76150900  0.50000000  0.49091800  1
  Br  Br19  1  0.95942950  0.20216850  0.56941500  1
  Br  Br20  1  0.23849100  0.50000000  0.99091800  1
  Br  Br21  1  0.04057050  0.20216850  0.06941500  1
  Br  Br22  1  0.95942950  0.79783150  0.56941500  1
  Br  Br23  1  0.04057050  0.79783150  0.06941500  1
  N  N24  1  0.69728700  0.10584600  0.65539000  1
  N  N25  1  0.16106400  0.00000000  0.93237600  1
  N  N26  1  0.83893600  0.00000000  0.43237600  1
  N  N27  1  0.69728700  0.89415400  0.65539000  1
  N  N28  1  0.30271300  0.10584600  0.15539000  1
  N  N29  1  0.30271300  0.89415400  0.15539000  1
  N  N30  1  0.19728700  0.60584600  0.65539000  1
  N  N31  1  0.66106400  0.50000000  0.93237600  1
  N  N32  1  0.33893600  0.50000000  0.43237600  1
  N  N33  1  0.19728700  0.39415400  0.65539000  1
  N  N34  1  0.80271300  0.60584600  0.15539000  1
  N  N35  1  0.80271300  0.39415400  0.15539000  1
  F  F36  1  0.26381950  0.82594050  0.87200500  1
  F  F37  1  0.73618050  0.17405950  0.37200500  1
  F  F38  1  0.51961700  0.00000000  0.78040200  1
  F  F39  1  0.73618050  0.82594050  0.37200500  1
  F  F40  1  0.26381950  0.17405950  0.87200500  1
  F  F41  1  0.48038300  0.00000000  0.28040200  1
  F  F42  1  0.76381950  0.32594050  0.87200500  1
  F  F43  1  0.23618050  0.67405950  0.37200500  1
  F  F44  1  0.01961700  0.50000000  0.78040200  1
  F  F45  1  0.23618050  0.32594050  0.37200500  1
  F  F46  1  0.76381950  0.67405950  0.87200500  1
  F  F47  1  0.98038300  0.50000000  0.28040200  1
