# generated using pymatgen
data_Ba3CaSb2O9
_symmetry_space_group_name_H-M   'P 1'
_cell_length_a   6.10446600
_cell_length_b   10.53153200
_cell_length_c   15.07466047
_cell_angle_alpha   90.00000000
_cell_angle_beta   92.06002167
_cell_angle_gamma   90.00000000
_symmetry_Int_Tables_number   1
_chemical_formula_structural   Ba3CaSb2O9
_chemical_formula_sum   'Ba12 Ca4 Sb8 O36'
_cell_volume   968.51422324
_cell_formula_units_Z   4
loop_
 _symmetry_equiv_pos_site_id
 _symmetry_equiv_pos_as_xyz
  1  'x, y, z'
loop_
 _atom_site_type_symbol
 _atom_site_label
 _atom_site_symmetry_multiplicity
 _atom_site_fract_x
 _atom_site_fract_y
 _atom_site_fract_z
 _atom_site_occupancy
  Ba  Ba0  1  0.50000000  0.49000700  0.25000000  1
  Ba  Ba1  1  0.50820700  0.16878300  0.58987600  1
  Ba  Ba2  1  0.49179300  0.16878300  0.91012400  1
  Ba  Ba3  1  0.50820700  0.83121700  0.08987600  1
  Ba  Ba4  1  0.49179300  0.83121700  0.41012400  1
  Ba  Ba5  1  0.50000000  0.50999300  0.75000000  1
  Ba  Ba6  1  0.00000000  0.99000700  0.25000000  1
  Ba  Ba7  1  0.00820700  0.66878300  0.58987600  1
  Ba  Ba8  1  0.99179300  0.66878300  0.91012400  1
  Ba  Ba9  1  0.00820700  0.33121700  0.08987600  1
  Ba  Ba10  1  0.99179300  0.33121700  0.41012400  1
  Ba  Ba11  1  0.00000000  0.00999300  0.75000000  1
  Ca  Ca12  1  0.00000000  0.00000000  0.50000000  1
  Ca  Ca13  1  0.00000000  0.00000000  0.00000000  1
  Ca  Ca14  1  0.50000000  0.50000000  0.50000000  1
  Ca  Ca15  1  0.50000000  0.50000000  0.00000000  1
  Sb  Sb16  1  0.47950850  0.16295550  0.34542500  1
  Sb  Sb17  1  0.47950850  0.83704450  0.84542500  1
  Sb  Sb18  1  0.52049150  0.16295550  0.15457500  1
  Sb  Sb19  1  0.52049150  0.83704450  0.65457500  1
  Sb  Sb20  1  0.97950850  0.66295550  0.34542500  1
  Sb  Sb21  1  0.97950850  0.33704450  0.84542500  1
  Sb  Sb22  1  0.02049150  0.66295550  0.15457500  1
  Sb  Sb23  1  0.02049150  0.33704450  0.65457500  1
  O  O24  1  0.71531500  0.76385900  0.76357800  1
  O  O25  1  0.45889000  0.32191700  0.41228600  1
  O  O26  1  0.45889000  0.67808300  0.91228600  1
  O  O27  1  0.78178450  0.91321150  0.60494400  1
  O  O28  1  0.28468500  0.23614100  0.23642200  1
  O  O29  1  0.21821550  0.08678850  0.39505600  1
  O  O30  1  0.71531500  0.23614100  0.26357800  1
  O  O31  1  0.30863350  0.08186150  0.07219900  1
  O  O32  1  0.50000000  0.98292800  0.75000000  1
  O  O33  1  0.69136650  0.08186150  0.42780100  1
  O  O34  1  0.78178450  0.08678850  0.10494400  1
  O  O35  1  0.54111000  0.67808300  0.58771400  1
  O  O36  1  0.28468500  0.76385900  0.73642200  1
  O  O37  1  0.30863350  0.91813850  0.57219900  1
  O  O38  1  0.69136650  0.91813850  0.92780100  1
  O  O39  1  0.21821550  0.91321150  0.89505600  1
  O  O40  1  0.54111000  0.32191700  0.08771400  1
  O  O41  1  0.50000000  0.01707200  0.25000000  1
  O  O42  1  0.21531500  0.26385900  0.76357800  1
  O  O43  1  0.95889000  0.82191700  0.41228600  1
  O  O44  1  0.95889000  0.17808300  0.91228600  1
  O  O45  1  0.28178450  0.41321150  0.60494400  1
  O  O46  1  0.78468500  0.73614100  0.23642200  1
  O  O47  1  0.71821550  0.58678850  0.39505600  1
  O  O48  1  0.21531500  0.73614100  0.26357800  1
  O  O49  1  0.80863350  0.58186150  0.07219900  1
  O  O50  1  0.00000000  0.48292800  0.75000000  1
  O  O51  1  0.19136650  0.58186150  0.42780100  1
  O  O52  1  0.28178450  0.58678850  0.10494400  1
  O  O53  1  0.04111000  0.17808300  0.58771400  1
  O  O54  1  0.78468500  0.26385900  0.73642200  1
  O  O55  1  0.80863350  0.41813850  0.57219900  1
  O  O56  1  0.19136650  0.41813850  0.92780100  1
  O  O57  1  0.71821550  0.41321150  0.89505600  1
  O  O58  1  0.04111000  0.82191700  0.08771400  1
  O  O59  1  0.00000000  0.51707200  0.25000000  1
