# generated using pymatgen
data_Ho2TiO5
_symmetry_space_group_name_H-M   'P 1'
_cell_length_a   12.91593800
_cell_length_b   7.27074600
_cell_length_c   17.77621955
_cell_angle_alpha   90.00000000
_cell_angle_beta   90.60638954
_cell_angle_gamma   90.00000000
_symmetry_Int_Tables_number   1
_chemical_formula_structural   Ho2TiO5
_chemical_formula_sum   'Ho32 Ti16 O80'
_cell_volume   1669.24470388
_cell_formula_units_Z   16
loop_
 _symmetry_equiv_pos_site_id
 _symmetry_equiv_pos_as_xyz
  1  'x, y, z'
loop_
 _atom_site_type_symbol
 _atom_site_label
 _atom_site_symmetry_multiplicity
 _atom_site_fract_x
 _atom_site_fract_y
 _atom_site_fract_z
 _atom_site_occupancy
  Ho  Ho0  1  0.84197800  0.50000000  0.82140400  1
  Ho  Ho1  1  0.51572600  0.00000000  0.00223700  1
  Ho  Ho2  1  0.58173650  0.75543250  0.83336300  1
  Ho  Ho3  1  0.98192500  0.00000000  0.00892800  1
  Ho  Ho4  1  0.68207100  0.50000000  0.65980700  1
  Ho  Ho5  1  0.58173650  0.24456750  0.83336300  1
  Ho  Ho6  1  0.76145000  0.25927700  0.49569900  1
  Ho  Ho7  1  0.68513100  0.00000000  0.67410900  1
  Ho  Ho8  1  0.82617000  0.00000000  0.84933400  1
  Ho  Ho9  1  0.76145000  0.74072300  0.49569900  1
  Ho  Ho10  1  0.93574900  0.74626700  0.17807400  1
  Ho  Ho11  1  0.51734900  0.50000000  0.48503200  1
  Ho  Ho12  1  0.84676300  0.50000000  0.32736700  1
  Ho  Ho13  1  0.93574900  0.25373300  0.17807400  1
  Ho  Ho14  1  0.99775100  0.50000000  0.48982200  1
  Ho  Ho15  1  0.67231400  0.50000000  0.15434200  1
  Ho  Ho16  1  0.34197800  0.00000000  0.82140400  1
  Ho  Ho17  1  0.01572600  0.50000000  0.00223700  1
  Ho  Ho18  1  0.08173650  0.25543250  0.83336300  1
  Ho  Ho19  1  0.48192500  0.50000000  0.00892800  1
  Ho  Ho20  1  0.18207100  0.00000000  0.65980700  1
  Ho  Ho21  1  0.08173650  0.74456750  0.83336300  1
  Ho  Ho22  1  0.26145000  0.75927700  0.49569900  1
  Ho  Ho23  1  0.18513100  0.50000000  0.67410900  1
  Ho  Ho24  1  0.32617000  0.50000000  0.84933400  1
  Ho  Ho25  1  0.26145000  0.24072300  0.49569900  1
  Ho  Ho26  1  0.43574900  0.24626700  0.17807400  1
  Ho  Ho27  1  0.01734900  0.00000000  0.48503200  1
  Ho  Ho28  1  0.34676300  0.00000000  0.32736700  1
  Ho  Ho29  1  0.43574900  0.75373300  0.17807400  1
  Ho  Ho30  1  0.49775100  0.00000000  0.48982200  1
  Ho  Ho31  1  0.17231400  0.00000000  0.15434200  1
  Ti  Ti32  1  0.76211150  0.73753750  0.00069000  1
  Ti  Ti33  1  0.76211150  0.26246250  0.00069000  1
  Ti  Ti34  1  0.83678000  0.00000000  0.32726600  1
  Ti  Ti35  1  0.92057400  0.24774600  0.66485400  1
  Ti  Ti36  1  0.92057400  0.75225400  0.66485400  1
  Ti  Ti37  1  0.59411950  0.24593550  0.33641800  1
  Ti  Ti38  1  0.59411950  0.75406450  0.33641800  1
  Ti  Ti39  1  0.66636700  0.00000000  0.16271000  1
  Ti  Ti40  1  0.26211150  0.23753750  0.00069000  1
  Ti  Ti41  1  0.26211150  0.76246250  0.00069000  1
  Ti  Ti42  1  0.33678000  0.50000000  0.32726600  1
  Ti  Ti43  1  0.42057400  0.74774600  0.66485400  1
  Ti  Ti44  1  0.42057400  0.25225400  0.66485400  1
  Ti  Ti45  1  0.09411950  0.74593550  0.33641800  1
  Ti  Ti46  1  0.09411950  0.25406450  0.33641800  1
  Ti  Ti47  1  0.16636700  0.50000000  0.16271000  1
  O  O48  1  0.80733300  0.00000000  0.97715300  1
  O  O49  1  0.91641200  0.21782600  0.79041300  1
  O  O50  1  0.91641200  0.78217400  0.79041300  1
  O  O51  1  0.57239850  0.72238550  0.95760100  1
  O  O52  1  0.86312000  0.50000000  0.68998800  1
  O  O53  1  0.59696750  0.22073450  0.45279400  1
  O  O54  1  0.56113750  0.22680750  0.68285200  1
  O  O55  1  0.99381800  0.50000000  0.87805000  1
  O  O56  1  0.66139000  0.50000000  0.78497300  1
  O  O57  1  0.57239850  0.27761450  0.95760100  1
  O  O58  1  0.59696750  0.77926550  0.45279400  1
  O  O59  1  0.76696450  0.28606550  0.89717100  1
  O  O60  1  0.75308200  0.23354700  0.61941800  1
  O  O61  1  0.56113750  0.77319250  0.68285200  1
  O  O62  1  0.67860900  0.00000000  0.79522300  1
  O  O63  1  0.58555100  0.50000000  0.36112400  1
  O  O64  1  0.73771600  0.77367800  0.34586300  1
  O  O65  1  0.69232100  0.81601100  0.09385900  1
  O  O66  1  0.66808600  0.50000000  0.53657900  1
  O  O67  1  0.88693900  0.00000000  0.67389700  1
  O  O68  1  0.84449100  0.00000000  0.44069400  1
  O  O69  1  0.76696450  0.71393450  0.89717100  1
  O  O70  1  0.75308200  0.76645300  0.61941800  1
  O  O71  1  0.69232100  0.18398900  0.09385900  1
  O  O72  1  0.92809750  0.79683850  0.30660900  1
  O  O73  1  0.82804800  0.50000000  0.20530900  1
  O  O74  1  0.73771600  0.22632200  0.34586300  1
  O  O75  1  0.93911500  0.74799300  0.55641200  1
  O  O76  1  0.84121000  0.50000000  0.44917500  1
  O  O77  1  0.89436450  0.28711250  0.04333900  1
  O  O78  1  0.79921200  0.00000000  0.21737700  1
  O  O79  1  0.52485000  0.00000000  0.34545400  1
  O  O80  1  0.51892200  0.00000000  0.13711900  1
  O  O81  1  0.93911500  0.25200700  0.55641200  1
  O  O82  1  0.92809750  0.20316150  0.30660900  1
  O  O83  1  0.60573300  0.75074900  0.22783400  1
  O  O84  1  0.89436450  0.71288750  0.04333900  1
  O  O85  1  0.50282300  0.50000000  0.12822700  1
  O  O86  1  0.71872400  0.50000000  0.03415800  1
  O  O87  1  0.60573300  0.24925100  0.22783400  1
  O  O88  1  0.30733300  0.50000000  0.97715300  1
  O  O89  1  0.41641200  0.71782600  0.79041300  1
  O  O90  1  0.41641200  0.28217400  0.79041300  1
  O  O91  1  0.07239850  0.22238550  0.95760100  1
  O  O92  1  0.36312000  0.00000000  0.68998800  1
  O  O93  1  0.09696750  0.72073450  0.45279400  1
  O  O94  1  0.06113750  0.72680750  0.68285200  1
  O  O95  1  0.49381800  0.00000000  0.87805000  1
  O  O96  1  0.16139000  0.00000000  0.78497300  1
  O  O97  1  0.07239850  0.77761450  0.95760100  1
  O  O98  1  0.09696750  0.27926550  0.45279400  1
  O  O99  1  0.26696450  0.78606550  0.89717100  1
  O  O100  1  0.25308200  0.73354700  0.61941800  1
  O  O101  1  0.06113750  0.27319250  0.68285200  1
  O  O102  1  0.17860900  0.50000000  0.79522300  1
  O  O103  1  0.08555100  0.00000000  0.36112400  1
  O  O104  1  0.23771600  0.27367800  0.34586300  1
  O  O105  1  0.19232100  0.31601100  0.09385900  1
  O  O106  1  0.16808600  0.00000000  0.53657900  1
  O  O107  1  0.38693900  0.50000000  0.67389700  1
  O  O108  1  0.34449100  0.50000000  0.44069400  1
  O  O109  1  0.26696450  0.21393450  0.89717100  1
  O  O110  1  0.25308200  0.26645300  0.61941800  1
  O  O111  1  0.19232100  0.68398900  0.09385900  1
  O  O112  1  0.42809750  0.29683850  0.30660900  1
  O  O113  1  0.32804800  0.00000000  0.20530900  1
  O  O114  1  0.23771600  0.72632200  0.34586300  1
  O  O115  1  0.43911500  0.24799300  0.55641200  1
  O  O116  1  0.34121000  0.00000000  0.44917500  1
  O  O117  1  0.39436450  0.78711250  0.04333900  1
  O  O118  1  0.29921200  0.50000000  0.21737700  1
  O  O119  1  0.02485000  0.50000000  0.34545400  1
  O  O120  1  0.01892200  0.50000000  0.13711900  1
  O  O121  1  0.43911500  0.75200700  0.55641200  1
  O  O122  1  0.42809750  0.70316150  0.30660900  1
  O  O123  1  0.10573300  0.25074900  0.22783400  1
  O  O124  1  0.39436450  0.21288750  0.04333900  1
  O  O125  1  0.00282300  0.00000000  0.12822700  1
  O  O126  1  0.21872400  0.00000000  0.03415800  1
  O  O127  1  0.10573300  0.74925100  0.22783400  1
