# generated using pymatgen
data_Ga2S3
_symmetry_space_group_name_H-M   'P 1'
_cell_length_a   11.42174200
_cell_length_b   6.53830600
_cell_length_c   7.12142118
_cell_angle_alpha   90.00000000
_cell_angle_beta   121.08456925
_cell_angle_gamma   90.00000000
_symmetry_Int_Tables_number   1
_chemical_formula_structural   Ga2S3
_chemical_formula_sum   'Ga8 S12'
_cell_volume   455.45350099
_cell_formula_units_Z   4
loop_
 _symmetry_equiv_pos_site_id
 _symmetry_equiv_pos_as_xyz
  1  'x, y, z'
loop_
 _atom_site_type_symbol
 _atom_site_label
 _atom_site_symmetry_multiplicity
 _atom_site_fract_x
 _atom_site_fract_y
 _atom_site_fract_z
 _atom_site_occupancy
  Ga  Ga0  1  0.29701250  0.56521650  0.38076600  1
  Ga  Ga1  1  0.29701250  0.43478350  0.88076600  1
  Ga  Ga2  1  0.45651600  0.09801700  0.37037600  1
  Ga  Ga3  1  0.45651600  0.90198300  0.87037600  1
  Ga  Ga4  1  0.79701250  0.06521650  0.38076600  1
  Ga  Ga5  1  0.79701250  0.93478350  0.88076600  1
  Ga  Ga6  1  0.95651600  0.59801700  0.37037600  1
  Ga  Ga7  1  0.95651600  0.40198300  0.87037600  1
  S  S8  1  0.15979150  0.41355150  0.49702500  1
  S  S9  1  0.15979150  0.58644850  0.99702500  1
  S  S10  1  0.32785800  0.91200500  0.48679700  1
  S  S11  1  0.32785800  0.08799500  0.98679700  1
  S  S12  1  0.49782250  0.59064250  0.01603600  1
  S  S13  1  0.49782250  0.40935750  0.51603600  1
  S  S14  1  0.65979150  0.91355150  0.49702500  1
  S  S15  1  0.65979150  0.08644850  0.99702500  1
  S  S16  1  0.82785800  0.41200500  0.48679700  1
  S  S17  1  0.82785800  0.58799500  0.98679700  1
  S  S18  1  0.99782250  0.09064250  0.01603600  1
  S  S19  1  0.99782250  0.90935750  0.51603600  1
