# generated using pymatgen
data_K2Th(CuS2)2
_symmetry_space_group_name_H-M   'P 1'
_cell_length_a   14.53851200
_cell_length_b   4.02199600
_cell_length_c   7.62235470
_cell_angle_alpha   90.00000000
_cell_angle_beta   109.93432532
_cell_angle_gamma   90.00000000
_symmetry_Int_Tables_number   1
_chemical_formula_structural   K2Th(CuS2)2
_chemical_formula_sum   'K4 Th2 Cu4 S8'
_cell_volume   419.00328478
_cell_formula_units_Z   2
loop_
 _symmetry_equiv_pos_site_id
 _symmetry_equiv_pos_as_xyz
  1  'x, y, z'
loop_
 _atom_site_type_symbol
 _atom_site_label
 _atom_site_symmetry_multiplicity
 _atom_site_fract_x
 _atom_site_fract_y
 _atom_site_fract_z
 _atom_site_occupancy
  K  K0  1  0.36183800  0.50000000  0.43431500  1
  K  K1  1  0.13816200  0.00000000  0.56568500  1
  K  K2  1  0.86183800  0.00000000  0.43431500  1
  K  K3  1  0.63816200  0.50000000  0.56568500  1
  Th  Th4  1  0.00000000  0.00000000  0.00000000  1
  Th  Th5  1  0.50000000  0.50000000  0.00000000  1
  Cu  Cu6  1  0.31914400  0.00000000  0.01164400  1
  Cu  Cu7  1  0.18085600  0.50000000  0.98835600  1
  Cu  Cu8  1  0.81914400  0.50000000  0.01164400  1
  Cu  Cu9  1  0.68085600  0.00000000  0.98835600  1
  S  S10  1  0.47758500  0.00000000  0.23771400  1
  S  S11  1  0.02241500  0.50000000  0.76228600  1
  S  S12  1  0.29763700  0.50000000  0.82588800  1
  S  S13  1  0.20236300  0.00000000  0.17411200  1
  S  S14  1  0.97758500  0.50000000  0.23771400  1
  S  S15  1  0.52241500  0.00000000  0.76228600  1
  S  S16  1  0.79763700  0.00000000  0.82588800  1
  S  S17  1  0.70236300  0.50000000  0.17411200  1
