# generated using pymatgen
data_Ge3(Te3As)2
_symmetry_space_group_name_H-M   'P 1'
_cell_length_a   4.17957605
_cell_length_b   4.17957605
_cell_length_c   61.33220663
_cell_angle_alpha   90.00000000
_cell_angle_beta   90.00000000
_cell_angle_gamma   120.00000000
_symmetry_Int_Tables_number   1
_chemical_formula_structural   Ge3(Te3As)2
_chemical_formula_sum   'Ge9 Te18 As6'
_cell_volume   927.86263237
_cell_formula_units_Z   3
loop_
 _symmetry_equiv_pos_site_id
 _symmetry_equiv_pos_as_xyz
  1  'x, y, z'
loop_
 _atom_site_type_symbol
 _atom_site_label
 _atom_site_symmetry_multiplicity
 _atom_site_fract_x
 _atom_site_fract_y
 _atom_site_fract_z
 _atom_site_occupancy
  Ge  Ge0  1  0.00000000  0.00000000  0.00000000  1
  Ge  Ge1  1  0.66666667  0.33333333  0.05858433  1
  Ge  Ge2  1  0.00000000  0.00000000  0.27474900  1
  Ge  Ge3  1  0.66666667  0.33333333  0.33333333  1
  Ge  Ge4  1  0.33333333  0.66666667  0.39191767  1
  Ge  Ge5  1  0.66666667  0.33333333  0.60808233  1
  Ge  Ge6  1  0.33333333  0.66666667  0.66666667  1
  Ge  Ge7  1  0.00000000  0.00000000  0.72525100  1
  Ge  Ge8  1  0.33333333  0.66666667  0.94141567  1
  Te  Te9  1  0.66666667  0.33333333  0.24728433  1
  Te  Te10  1  0.00000000  0.00000000  0.08604900  1
  Te  Te11  1  0.66666667  0.33333333  0.14149133  1
  Te  Te12  1  0.00000000  0.00000000  0.19184200  1
  Te  Te13  1  0.33333333  0.66666667  0.30472167  1
  Te  Te14  1  0.33333333  0.66666667  0.02861167  1
  Te  Te15  1  0.33333333  0.66666667  0.58061767  1
  Te  Te16  1  0.66666667  0.33333333  0.41938233  1
  Te  Te17  1  0.33333333  0.66666667  0.47482467  1
  Te  Te18  1  0.66666667  0.33333333  0.52517533  1
  Te  Te19  1  0.00000000  0.00000000  0.63805500  1
  Te  Te20  1  0.00000000  0.00000000  0.36194500  1
  Te  Te21  1  0.00000000  0.00000000  0.91395100  1
  Te  Te22  1  0.33333333  0.66666667  0.75271567  1
  Te  Te23  1  0.00000000  0.00000000  0.80815800  1
  Te  Te24  1  0.33333333  0.66666667  0.85850867  1
  Te  Te25  1  0.66666667  0.33333333  0.97138833  1
  Te  Te26  1  0.66666667  0.33333333  0.69527833  1
  As  As27  1  0.33333333  0.66666667  0.21626767  1
  As  As28  1  0.33333333  0.66666667  0.11706567  1
  As  As29  1  0.00000000  0.00000000  0.54960100  1
  As  As30  1  0.00000000  0.00000000  0.45039900  1
  As  As31  1  0.66666667  0.33333333  0.88293433  1
  As  As32  1  0.66666667  0.33333333  0.78373233  1
