# generated using pymatgen
data_Pr(C2N3)3
_symmetry_space_group_name_H-M   'P 1'
_cell_length_a   7.89493800
_cell_length_b   11.89632800
_cell_length_c   10.57013900
_cell_angle_alpha   90.00000000
_cell_angle_beta   90.00000000
_cell_angle_gamma   90.00000000
_symmetry_Int_Tables_number   1
_chemical_formula_structural   Pr(C2N3)3
_chemical_formula_sum   'Pr4 C24 N36'
_cell_volume   992.75561490
_cell_formula_units_Z   4
loop_
 _symmetry_equiv_pos_site_id
 _symmetry_equiv_pos_as_xyz
  1  'x, y, z'
loop_
 _atom_site_type_symbol
 _atom_site_label
 _atom_site_symmetry_multiplicity
 _atom_site_fract_x
 _atom_site_fract_y
 _atom_site_fract_z
 _atom_site_occupancy
  Pr  Pr0  1  0.50000000  0.78580300  0.75000000  1
  Pr  Pr1  1  0.50000000  0.21419700  0.25000000  1
  Pr  Pr2  1  0.00000000  0.28580300  0.75000000  1
  Pr  Pr3  1  0.00000000  0.71419700  0.25000000  1
  C  C4  1  0.35637550  0.64550950  0.44859700  1
  C  C5  1  0.35637550  0.35449050  0.55140300  1
  C  C6  1  0.64362450  0.35449050  0.55140300  1
  C  C7  1  0.35741750  0.91320550  0.25000000  1
  C  C8  1  0.64362450  0.64550950  0.05140300  1
  C  C9  1  0.64258250  0.08679450  0.75000000  1
  C  C10  1  0.64258250  0.91320550  0.25000000  1
  C  C11  1  0.35741750  0.08679450  0.75000000  1
  C  C12  1  0.64362450  0.35449050  0.94859700  1
  C  C13  1  0.64362450  0.64550950  0.44859700  1
  C  C14  1  0.35637550  0.64550950  0.05140300  1
  C  C15  1  0.35637550  0.35449050  0.94859700  1
  C  C16  1  0.85637550  0.14550950  0.44859700  1
  C  C17  1  0.85637550  0.85449050  0.55140300  1
  C  C18  1  0.14362450  0.85449050  0.55140300  1
  C  C19  1  0.85741750  0.41320550  0.25000000  1
  C  C20  1  0.14362450  0.14550950  0.05140300  1
  C  C21  1  0.14258250  0.58679450  0.75000000  1
  C  C22  1  0.14258250  0.41320550  0.25000000  1
  C  C23  1  0.85741750  0.58679450  0.75000000  1
  C  C24  1  0.14362450  0.85449050  0.94859700  1
  C  C25  1  0.14362450  0.14550950  0.44859700  1
  C  C26  1  0.85637550  0.14550950  0.05140300  1
  C  C27  1  0.85637550  0.85449050  0.94859700  1
  N  N28  1  0.50000000  0.34319700  0.00792200  1
  N  N29  1  0.50000000  0.65680300  0.99207800  1
  N  N30  1  0.72135900  0.13834400  0.40205400  1
  N  N31  1  0.77494350  0.13234350  0.75000000  1
  N  N32  1  0.22505650  0.13234350  0.75000000  1
  N  N33  1  0.27864100  0.86165600  0.59794600  1
  N  N34  1  0.50000000  0.03141600  0.75000000  1
  N  N35  1  0.50000000  0.96858400  0.25000000  1
  N  N36  1  0.27864100  0.13834400  0.40205400  1
  N  N37  1  0.72135900  0.86165600  0.59794600  1
  N  N38  1  0.22505650  0.86765650  0.25000000  1
  N  N39  1  0.27864100  0.13834400  0.09794600  1
  N  N40  1  0.27864100  0.86165600  0.90205400  1
  N  N41  1  0.77494350  0.86765650  0.25000000  1
  N  N42  1  0.72135900  0.13834400  0.09794600  1
  N  N43  1  0.50000000  0.65680300  0.50792200  1
  N  N44  1  0.72135900  0.86165600  0.90205400  1
  N  N45  1  0.50000000  0.34319700  0.49207800  1
  N  N46  1  0.00000000  0.84319700  0.00792200  1
  N  N47  1  0.00000000  0.15680300  0.99207800  1
  N  N48  1  0.22135900  0.63834400  0.40205400  1
  N  N49  1  0.27494350  0.63234350  0.75000000  1
  N  N50  1  0.72505650  0.63234350  0.75000000  1
  N  N51  1  0.77864100  0.36165600  0.59794600  1
  N  N52  1  0.00000000  0.53141600  0.75000000  1
  N  N53  1  0.00000000  0.46858400  0.25000000  1
  N  N54  1  0.77864100  0.63834400  0.40205400  1
  N  N55  1  0.22135900  0.36165600  0.59794600  1
  N  N56  1  0.72505650  0.36765650  0.25000000  1
  N  N57  1  0.77864100  0.63834400  0.09794600  1
  N  N58  1  0.77864100  0.36165600  0.90205400  1
  N  N59  1  0.27494350  0.36765650  0.25000000  1
  N  N60  1  0.22135900  0.63834400  0.09794600  1
  N  N61  1  0.00000000  0.15680300  0.50792200  1
  N  N62  1  0.22135900  0.36165600  0.90205400  1
  N  N63  1  0.00000000  0.84319700  0.49207800  1
