# generated using pymatgen
data_Si2Ag6O7
_symmetry_space_group_name_H-M   'P 1'
_cell_length_a   8.05969200
_cell_length_b   5.40097700
_cell_length_c   10.77530043
_cell_angle_alpha   90.00000000
_cell_angle_beta   114.66056849
_cell_angle_gamma   90.00000000
_symmetry_Int_Tables_number   1
_chemical_formula_structural   Si2Ag6O7
_chemical_formula_sum   'Si4 Ag12 O14'
_cell_volume   426.27155124
_cell_formula_units_Z   2
loop_
 _symmetry_equiv_pos_site_id
 _symmetry_equiv_pos_as_xyz
  1  'x, y, z'
loop_
 _atom_site_type_symbol
 _atom_site_label
 _atom_site_symmetry_multiplicity
 _atom_site_fract_x
 _atom_site_fract_y
 _atom_site_fract_z
 _atom_site_occupancy
  Si  Si0  1  0.79991100  0.27382300  0.63868700  1
  Si  Si1  1  0.20008900  0.72617700  0.36131300  1
  Si  Si2  1  0.79991100  0.72617700  0.13868700  1
  Si  Si3  1  0.20008900  0.27382300  0.86131300  1
  Ag  Ag4  1  0.68751500  0.31068800  0.89982600  1
  Ag  Ag5  1  0.68751500  0.68931200  0.39982600  1
  Ag  Ag6  1  0.93594700  0.72886500  0.89330500  1
  Ag  Ag7  1  0.31248500  0.68931200  0.10017400  1
  Ag  Ag8  1  0.44659100  0.23461900  0.36301000  1
  Ag  Ag9  1  0.06405300  0.27113500  0.10669500  1
  Ag  Ag10  1  0.55340900  0.76538100  0.63699000  1
  Ag  Ag11  1  0.44659100  0.76538100  0.86301000  1
  Ag  Ag12  1  0.93594700  0.27113500  0.39330500  1
  Ag  Ag13  1  0.31248500  0.31068800  0.60017400  1
  Ag  Ag14  1  0.55340900  0.23461900  0.13699000  1
  Ag  Ag15  1  0.06405300  0.72886500  0.60669500  1
  O  O16  1  0.24519100  0.14915700  0.01232500  1
  O  O17  1  0.00000000  0.16526300  0.75000000  1
  O  O18  1  0.00000000  0.83473700  0.25000000  1
  O  O19  1  0.64321300  0.80795600  0.19012800  1
  O  O20  1  0.75480900  0.14915700  0.48767500  1
  O  O21  1  0.35678700  0.80795600  0.30987200  1
  O  O22  1  0.81278500  0.58121300  0.63131600  1
  O  O23  1  0.35678700  0.19204400  0.80987200  1
  O  O24  1  0.24519100  0.85084300  0.51232500  1
  O  O25  1  0.81278500  0.41878700  0.13131600  1
  O  O26  1  0.18721500  0.41878700  0.36868400  1
  O  O27  1  0.64321300  0.19204400  0.69012800  1
  O  O28  1  0.18721500  0.58121300  0.86868400  1
  O  O29  1  0.75480900  0.85084300  0.98767500  1
