# generated using pymatgen
data_Rb2Sb4O11
_symmetry_space_group_name_H-M   'P 1'
_cell_length_a   19.85546800
_cell_length_b   7.70840600
_cell_length_c   7.34175421
_cell_angle_alpha   90.00000000
_cell_angle_beta   95.47521016
_cell_angle_gamma   90.00000000
_symmetry_Int_Tables_number   1
_chemical_formula_structural   Rb2Sb4O11
_chemical_formula_sum   'Rb8 Sb16 O44'
_cell_volume   1118.55818325
_cell_formula_units_Z   4
loop_
 _symmetry_equiv_pos_site_id
 _symmetry_equiv_pos_as_xyz
  1  'x, y, z'
loop_
 _atom_site_type_symbol
 _atom_site_label
 _atom_site_symmetry_multiplicity
 _atom_site_fract_x
 _atom_site_fract_y
 _atom_site_fract_z
 _atom_site_occupancy
  Rb  Rb0  1  0.50808100  0.00000000  0.25474500  1
  Rb  Rb1  1  0.76536300  0.50000000  0.99403300  1
  Rb  Rb2  1  0.99191900  0.50000000  0.74525500  1
  Rb  Rb3  1  0.73463700  0.00000000  0.00596700  1
  Rb  Rb4  1  0.00808100  0.50000000  0.25474500  1
  Rb  Rb5  1  0.26536300  0.00000000  0.99403300  1
  Rb  Rb6  1  0.49191900  0.00000000  0.74525500  1
  Rb  Rb7  1  0.23463700  0.50000000  0.00596700  1
  Sb  Sb8  1  0.92839000  0.00000000  0.90177300  1
  Sb  Sb9  1  0.67438850  0.24317350  0.43669200  1
  Sb  Sb10  1  0.82561150  0.74317350  0.56330800  1
  Sb  Sb11  1  0.67438850  0.75682650  0.43669200  1
  Sb  Sb12  1  0.92406800  0.00000000  0.38282300  1
  Sb  Sb13  1  0.57161000  0.50000000  0.09822700  1
  Sb  Sb14  1  0.57593200  0.50000000  0.61717700  1
  Sb  Sb15  1  0.82561150  0.25682650  0.56330800  1
  Sb  Sb16  1  0.42839000  0.50000000  0.90177300  1
  Sb  Sb17  1  0.17438850  0.74317350  0.43669200  1
  Sb  Sb18  1  0.32561150  0.24317350  0.56330800  1
  Sb  Sb19  1  0.17438850  0.25682650  0.43669200  1
  Sb  Sb20  1  0.42406800  0.50000000  0.38282300  1
  Sb  Sb21  1  0.07161000  0.00000000  0.09822700  1
  Sb  Sb22  1  0.07593200  0.00000000  0.61717700  1
  Sb  Sb23  1  0.32561150  0.75682650  0.56330800  1
  O  O24  1  0.76321950  0.71283650  0.33316400  1
  O  O25  1  0.61761600  0.50000000  0.86863500  1
  O  O26  1  0.76321950  0.28716350  0.33316400  1
  O  O27  1  0.91110800  0.74561300  0.42919300  1
  O  O28  1  0.83351400  0.00000000  0.48998200  1
  O  O29  1  0.83997000  0.50000000  0.64177900  1
  O  O30  1  0.62865900  0.30162400  0.18951300  1
  O  O31  1  0.00000000  0.17089600  0.00000000  1
  O  O32  1  0.91110800  0.25438700  0.42919300  1
  O  O33  1  0.87134100  0.19837600  0.81048700  1
  O  O34  1  0.66648600  0.50000000  0.51001800  1
  O  O35  1  0.58889200  0.75438700  0.57080700  1
  O  O36  1  0.87134100  0.80162400  0.81048700  1
  O  O37  1  0.00000000  0.82910400  0.00000000  1
  O  O38  1  0.73678050  0.21283650  0.66683600  1
  O  O39  1  0.62865900  0.69837600  0.18951300  1
  O  O40  1  0.66003000  0.00000000  0.35822100  1
  O  O41  1  0.97668400  0.00000000  0.65421100  1
  O  O42  1  0.73678050  0.78716350  0.66683600  1
  O  O43  1  0.58889200  0.24561300  0.57080700  1
  O  O44  1  0.52331600  0.50000000  0.34578900  1
  O  O45  1  0.88238400  0.00000000  0.13136500  1
  O  O46  1  0.26321950  0.21283650  0.33316400  1
  O  O47  1  0.11761600  0.00000000  0.86863500  1
  O  O48  1  0.26321950  0.78716350  0.33316400  1
  O  O49  1  0.41110800  0.24561300  0.42919300  1
  O  O50  1  0.33351400  0.50000000  0.48998200  1
  O  O51  1  0.33997000  0.00000000  0.64177900  1
  O  O52  1  0.12865900  0.80162400  0.18951300  1
  O  O53  1  0.50000000  0.67089600  0.00000000  1
  O  O54  1  0.41110800  0.75438700  0.42919300  1
  O  O55  1  0.37134100  0.69837600  0.81048700  1
  O  O56  1  0.16648600  0.00000000  0.51001800  1
  O  O57  1  0.08889200  0.25438700  0.57080700  1
  O  O58  1  0.37134100  0.30162400  0.81048700  1
  O  O59  1  0.50000000  0.32910400  0.00000000  1
  O  O60  1  0.23678050  0.71283650  0.66683600  1
  O  O61  1  0.12865900  0.19837600  0.18951300  1
  O  O62  1  0.16003000  0.50000000  0.35822100  1
  O  O63  1  0.47668400  0.50000000  0.65421100  1
  O  O64  1  0.23678050  0.28716350  0.66683600  1
  O  O65  1  0.08889200  0.74561300  0.57080700  1
  O  O66  1  0.02331600  0.00000000  0.34578900  1
  O  O67  1  0.38238400  0.50000000  0.13136500  1
