# generated using pymatgen
data_Sm4Se3O4
_symmetry_space_group_name_H-M   'P 1'
_cell_length_a   3.97209200
_cell_length_b   12.83942400
_cell_length_c   8.43478900
_cell_angle_alpha   90.00000000
_cell_angle_beta   90.00000000
_cell_angle_gamma   90.00000000
_symmetry_Int_Tables_number   1
_chemical_formula_structural   Sm4Se3O4
_chemical_formula_sum   'Sm8 Se6 O8'
_cell_volume   430.16895338
_cell_formula_units_Z   2
loop_
 _symmetry_equiv_pos_site_id
 _symmetry_equiv_pos_as_xyz
  1  'x, y, z'
loop_
 _atom_site_type_symbol
 _atom_site_label
 _atom_site_symmetry_multiplicity
 _atom_site_fract_x
 _atom_site_fract_y
 _atom_site_fract_z
 _atom_site_occupancy
  Sm  Sm0  1  0.50000000  0.18163900  0.76282700  1
  Sm  Sm1  1  0.50000000  0.18163900  0.23717300  1
  Sm  Sm2  1  0.00000000  0.01804200  0.50000000  1
  Sm  Sm3  1  0.00000000  0.00127600  0.00000000  1
  Sm  Sm4  1  0.00000000  0.68163900  0.76282700  1
  Sm  Sm5  1  0.00000000  0.68163900  0.23717300  1
  Sm  Sm6  1  0.50000000  0.51804200  0.50000000  1
  Sm  Sm7  1  0.50000000  0.50127600  0.00000000  1
  Se  Se8  1  0.00000000  0.31240200  0.00000000  1
  Se  Se9  1  0.00000000  0.35510500  0.35067400  1
  Se  Se10  1  0.00000000  0.35510500  0.64932600  1
  Se  Se11  1  0.50000000  0.81240200  0.00000000  1
  Se  Se12  1  0.50000000  0.85510500  0.35067400  1
  Se  Se13  1  0.50000000  0.85510500  0.64932600  1
  O  O14  1  0.50000000  0.11576000  0.50000000  1
  O  O15  1  0.00000000  0.08697200  0.24409800  1
  O  O16  1  0.50000000  0.08765800  0.00000000  1
  O  O17  1  0.00000000  0.08697200  0.75590200  1
  O  O18  1  0.00000000  0.61576000  0.50000000  1
  O  O19  1  0.50000000  0.58697200  0.24409800  1
  O  O20  1  0.00000000  0.58765800  0.00000000  1
  O  O21  1  0.50000000  0.58697200  0.75590200  1
