# generated using pymatgen
data_Ti4Bi2O11
_symmetry_space_group_name_H-M   'P 1'
_cell_length_a   14.89278400
_cell_length_b   3.81737800
_cell_length_c   15.17679498
_cell_angle_alpha   90.00000000
_cell_angle_beta   93.03176690
_cell_angle_gamma   90.00000000
_symmetry_Int_Tables_number   1
_chemical_formula_structural   Ti4Bi2O11
_chemical_formula_sum   'Ti16 Bi8 O44'
_cell_volume   861.61419365
_cell_formula_units_Z   4
loop_
 _symmetry_equiv_pos_site_id
 _symmetry_equiv_pos_as_xyz
  1  'x, y, z'
loop_
 _atom_site_type_symbol
 _atom_site_label
 _atom_site_symmetry_multiplicity
 _atom_site_fract_x
 _atom_site_fract_y
 _atom_site_fract_z
 _atom_site_occupancy
  Ti  Ti0  1  0.64669050  0.23902650  0.51679400  1
  Ti  Ti1  1  0.94902200  0.75052300  0.35963200  1
  Ti  Ti2  1  0.94902200  0.24947700  0.85963200  1
  Ti  Ti3  1  0.85330950  0.26097350  0.48320600  1
  Ti  Ti4  1  0.55097800  0.74947700  0.64036800  1
  Ti  Ti5  1  0.85330950  0.73902650  0.98320600  1
  Ti  Ti6  1  0.64669050  0.76097350  0.01679400  1
  Ti  Ti7  1  0.55097800  0.25052300  0.14036800  1
  Ti  Ti8  1  0.14669050  0.73902650  0.51679400  1
  Ti  Ti9  1  0.44902200  0.25052300  0.35963200  1
  Ti  Ti10  1  0.44902200  0.74947700  0.85963200  1
  Ti  Ti11  1  0.35330950  0.76097350  0.48320600  1
  Ti  Ti12  1  0.05097800  0.24947700  0.64036800  1
  Ti  Ti13  1  0.35330950  0.23902650  0.98320600  1
  Ti  Ti14  1  0.14669050  0.26097350  0.01679400  1
  Ti  Ti15  1  0.05097800  0.75052300  0.14036800  1
  Bi  Bi16  1  0.68034550  0.31499750  0.82023000  1
  Bi  Bi17  1  0.81965450  0.81499750  0.67977000  1
  Bi  Bi18  1  0.68034550  0.68500250  0.32023000  1
  Bi  Bi19  1  0.81965450  0.18500250  0.17977000  1
  Bi  Bi20  1  0.18034550  0.81499750  0.82023000  1
  Bi  Bi21  1  0.31965450  0.31499750  0.67977000  1
  Bi  Bi22  1  0.18034550  0.18500250  0.32023000  1
  Bi  Bi23  1  0.31965450  0.68500250  0.17977000  1
  O  O24  1  0.76907800  0.23869500  0.58242900  1
  O  O25  1  0.73092200  0.26130500  0.41757100  1
  O  O26  1  0.92142000  0.25165700  0.37183600  1
  O  O27  1  0.86275750  0.75270350  0.46531200  1
  O  O28  1  0.55472350  0.74912850  0.92475000  1
  O  O29  1  0.68277150  0.23695450  0.22433100  1
  O  O30  1  0.00000000  0.77042600  0.25000000  1
  O  O31  1  0.81722850  0.73695450  0.27566900  1
  O  O32  1  0.63724250  0.25270350  0.03468800  1
  O  O33  1  0.55472350  0.25087150  0.42475000  1
  O  O34  1  0.57858000  0.24834300  0.62816400  1
  O  O35  1  0.68277150  0.76304550  0.72433100  1
  O  O36  1  0.57858000  0.75165700  0.12816400  1
  O  O37  1  0.76907800  0.76130500  0.08242900  1
  O  O38  1  0.81722850  0.26304550  0.77566900  1
  O  O39  1  0.94527650  0.75087150  0.07525000  1
  O  O40  1  0.94527650  0.24912850  0.57525000  1
  O  O41  1  0.73092200  0.73869500  0.91757100  1
  O  O42  1  0.00000000  0.22957400  0.75000000  1
  O  O43  1  0.92142000  0.74834300  0.87183600  1
  O  O44  1  0.86275750  0.24729650  0.96531200  1
  O  O45  1  0.63724250  0.74729650  0.53468800  1
  O  O46  1  0.26907800  0.73869500  0.58242900  1
  O  O47  1  0.23092200  0.76130500  0.41757100  1
  O  O48  1  0.42142000  0.75165700  0.37183600  1
  O  O49  1  0.36275750  0.25270350  0.46531200  1
  O  O50  1  0.05472350  0.24912850  0.92475000  1
  O  O51  1  0.18277150  0.73695450  0.22433100  1
  O  O52  1  0.50000000  0.27042600  0.25000000  1
  O  O53  1  0.31722850  0.23695450  0.27566900  1
  O  O54  1  0.13724250  0.75270350  0.03468800  1
  O  O55  1  0.05472350  0.75087150  0.42475000  1
  O  O56  1  0.07858000  0.74834300  0.62816400  1
  O  O57  1  0.18277150  0.26304550  0.72433100  1
  O  O58  1  0.07858000  0.25165700  0.12816400  1
  O  O59  1  0.26907800  0.26130500  0.08242900  1
  O  O60  1  0.31722850  0.76304550  0.77566900  1
  O  O61  1  0.44527650  0.25087150  0.07525000  1
  O  O62  1  0.44527650  0.74912850  0.57525000  1
  O  O63  1  0.23092200  0.23869500  0.91757100  1
  O  O64  1  0.50000000  0.72957400  0.75000000  1
  O  O65  1  0.42142000  0.24834300  0.87183600  1
  O  O66  1  0.36275750  0.74729650  0.96531200  1
  O  O67  1  0.13724250  0.24729650  0.53468800  1
