# generated using pymatgen
data_H2O
_symmetry_space_group_name_H-M   'P 1'
_cell_length_a   8.19203200
_cell_length_b   3.96558600
_cell_length_c   8.26164556
_cell_angle_alpha   90.00000000
_cell_angle_beta   90.93564926
_cell_angle_gamma   90.00000000
_symmetry_Int_Tables_number   1
_chemical_formula_structural   H2O
_chemical_formula_sum   'H24 O12'
_cell_volume   268.35374571
_cell_formula_units_Z   12
loop_
 _symmetry_equiv_pos_site_id
 _symmetry_equiv_pos_as_xyz
  1  'x, y, z'
loop_
 _atom_site_type_symbol
 _atom_site_label
 _atom_site_symmetry_multiplicity
 _atom_site_fract_x
 _atom_site_fract_y
 _atom_site_fract_z
 _atom_site_occupancy
  H  H0  1  0.69866400  0.39221900  0.15953200  1
  H  H1  1  0.46923200  0.31113900  0.97774200  1
  H  H2  1  0.02961400  0.94412700  0.47606900  1
  H  H3  1  0.47252000  0.03712900  0.46691800  1
  H  H4  1  0.17575700  0.01693300  0.59480100  1
  H  H5  1  0.90335800  0.98350500  0.16846900  1
  H  H6  1  0.30133600  0.89221900  0.84046800  1
  H  H7  1  0.32691300  0.23345300  0.09611800  1
  H  H8  1  0.09664200  0.48350500  0.83153100  1
  H  H9  1  0.67308700  0.73345300  0.90388200  1
  H  H10  1  0.84425300  0.14189800  0.79142400  1
  H  H11  1  0.19984200  0.35915100  0.34090100  1
  H  H12  1  0.53076800  0.81113900  0.02225800  1
  H  H13  1  0.52748000  0.53712900  0.53308200  1
  H  H14  1  0.15574700  0.64189800  0.20857600  1
  H  H15  1  0.40632900  0.76065500  0.33692300  1
  H  H16  1  0.97038600  0.44412700  0.52393100  1
  H  H17  1  0.97679700  0.56170200  0.97177700  1
  H  H18  1  0.80015800  0.85915100  0.65909900  1
  H  H19  1  0.65542400  0.10424900  0.28660200  1
  H  H20  1  0.82424300  0.51693300  0.40519900  1
  H  H21  1  0.59367100  0.26065500  0.66307700  1
  H  H22  1  0.34457600  0.60424900  0.71339800  1
  H  H23  1  0.02320300  0.06170200  0.02822300  1
  O  O24  1  0.88802800  0.62272800  0.49617300  1
  O  O25  1  0.00315200  0.38214300  0.89104000  1
  O  O26  1  0.99684800  0.88214300  0.10896000  1
  O  O27  1  0.11197200  0.12272800  0.50382700  1
  O  O28  1  0.49418900  0.35677800  0.61189100  1
  O  O29  1  0.61003600  0.63115500  0.99535400  1
  O  O30  1  0.75366600  0.99918400  0.74826400  1
  O  O31  1  0.38996400  0.13115500  0.00464600  1
  O  O32  1  0.24633400  0.49918400  0.25173600  1
  O  O33  1  0.74575500  0.24995800  0.24780200  1
  O  O34  1  0.25424500  0.74995800  0.75219800  1
  O  O35  1  0.50581100  0.85677800  0.38810900  1
