# generated using pymatgen
data_P4S(NF)6
_symmetry_space_group_name_H-M   'P 1'
_cell_length_a   9.62541600
_cell_length_b   11.86889200
_cell_length_c   20.69857422
_cell_angle_alpha   90.00000000
_cell_angle_beta   103.22507161
_cell_angle_gamma   90.00000000
_symmetry_Int_Tables_number   1
_chemical_formula_structural   P4S(NF)6
_chemical_formula_sum   'P32 S8 N48 F48'
_cell_volume   2301.95407149
_cell_formula_units_Z   8
loop_
 _symmetry_equiv_pos_site_id
 _symmetry_equiv_pos_as_xyz
  1  'x, y, z'
loop_
 _atom_site_type_symbol
 _atom_site_label
 _atom_site_symmetry_multiplicity
 _atom_site_fract_x
 _atom_site_fract_y
 _atom_site_fract_z
 _atom_site_occupancy
  P  P0  1  0.39406500  0.96893500  0.85837500  1
  P  P1  1  0.80017700  0.29656200  0.63956700  1
  P  P2  1  0.80017700  0.20343800  0.13956700  1
  P  P3  1  0.28528100  0.78955000  0.63328100  1
  P  P4  1  0.32873700  0.12862300  0.65003600  1
  P  P5  1  0.81048800  0.63852400  0.63144600  1
  P  P6  1  0.47944800  0.45591300  0.87169800  1
  P  P7  1  0.67126300  0.87137700  0.34996400  1
  P  P8  1  0.10969400  0.97585300  0.65002100  1
  P  P9  1  0.60593500  0.03106500  0.14162500  1
  P  P10  1  0.18951200  0.13852400  0.86855400  1
  P  P11  1  0.02116400  0.45097900  0.62608400  1
  P  P12  1  0.19982300  0.70343800  0.36043300  1
  P  P13  1  0.97883600  0.95097900  0.87391600  1
  P  P14  1  0.89030600  0.47585300  0.84997900  1
  P  P15  1  0.71471900  0.21045000  0.36671900  1
  P  P16  1  0.60593500  0.46893500  0.64162500  1
  P  P17  1  0.10969400  0.52414700  0.15002100  1
  P  P18  1  0.67126300  0.62862300  0.84996400  1
  P  P19  1  0.52055200  0.95591300  0.62830200  1
  P  P20  1  0.71471900  0.28955000  0.86671900  1
  P  P21  1  0.32873700  0.37137700  0.15003600  1
  P  P22  1  0.89030600  0.02414700  0.34997900  1
  P  P23  1  0.28528100  0.71045000  0.13328100  1
  P  P24  1  0.97883600  0.54902100  0.37391600  1
  P  P25  1  0.19982300  0.79656200  0.86043300  1
  P  P26  1  0.47944800  0.04408700  0.37169800  1
  P  P27  1  0.52055200  0.54408700  0.12830200  1
  P  P28  1  0.02116400  0.04902100  0.12608400  1
  P  P29  1  0.81048800  0.86147600  0.13144600  1
  P  P30  1  0.39406500  0.53106500  0.35837500  1
  P  P31  1  0.18951200  0.36147600  0.36855400  1
  S  S32  1  0.07494000  0.14241700  0.54986100  1
  S  S33  1  0.54912600  0.30908000  0.53769800  1
  S  S34  1  0.45087400  0.69092000  0.46230200  1
  S  S35  1  0.07494000  0.35758300  0.04986100  1
  S  S36  1  0.92506000  0.85758300  0.45013900  1
  S  S37  1  0.92506000  0.64241700  0.95013900  1
  S  S38  1  0.45087400  0.80908000  0.96230200  1
  S  S39  1  0.54912600  0.19092000  0.03769800  1
  N  N40  1  0.50452000  0.41539600  0.57149900  1
  N  N41  1  0.77192200  0.68449200  0.91938500  1
  N  N42  1  0.72076500  0.11947500  0.17853800  1
  N  N43  1  0.77192200  0.81550800  0.41938500  1
  N  N44  1  0.41933100  0.85246400  0.62202600  1
  N  N45  1  0.23796700  0.05227500  0.68789800  1
  N  N46  1  0.05041100  0.66829700  0.37415100  1
  N  N47  1  0.27923500  0.61947500  0.32146200  1
  N  N48  1  0.30616900  0.75186800  0.93149900  1
  N  N49  1  0.69383100  0.25186800  0.56850100  1
  N  N50  1  0.52943000  0.91950800  0.36548900  1
  N  N51  1  0.65635000  0.59100400  0.62692700  1
  N  N52  1  0.98397500  0.96031200  0.41849000  1
  N  N53  1  0.05982000  0.06361300  0.87297400  1
  N  N54  1  0.47057000  0.08049200  0.63451100  1
  N  N55  1  0.94958900  0.33170300  0.62584900  1
  N  N56  1  0.52943000  0.58049200  0.86548900  1
  N  N57  1  0.23796700  0.44772500  0.18789800  1
  N  N58  1  0.13998000  0.84987600  0.63273300  1
  N  N59  1  0.58066900  0.14753600  0.37797400  1
  N  N60  1  0.65635000  0.90899600  0.12692700  1
  N  N61  1  0.41933100  0.64753600  0.12202600  1
  N  N62  1  0.05982000  0.43638700  0.37297400  1
  N  N63  1  0.69383100  0.24813200  0.06850100  1
  N  N64  1  0.58066900  0.35246400  0.87797400  1
  N  N65  1  0.72076500  0.38052500  0.67853800  1
  N  N66  1  0.94018000  0.56361300  0.62702600  1
  N  N67  1  0.94958900  0.16829700  0.12584900  1
  N  N68  1  0.86002000  0.15012400  0.36726700  1
  N  N69  1  0.34365000  0.09100400  0.87307300  1
  N  N70  1  0.34365000  0.40899600  0.37307300  1
  N  N71  1  0.22807800  0.31550800  0.08061500  1
  N  N72  1  0.13998000  0.65012400  0.13273300  1
  N  N73  1  0.50452000  0.08460400  0.07149900  1
  N  N74  1  0.49548000  0.91539600  0.92850100  1
  N  N75  1  0.22807800  0.18449200  0.58061500  1
  N  N76  1  0.27923500  0.88052500  0.82146200  1
  N  N77  1  0.01602500  0.46031200  0.08151000  1
  N  N78  1  0.49548000  0.58460400  0.42850100  1
  N  N79  1  0.76203300  0.94772500  0.31210200  1
  N  N80  1  0.86002000  0.34987600  0.86726700  1
  N  N81  1  0.47057000  0.41950800  0.13451100  1
  N  N82  1  0.01602500  0.03968800  0.58151000  1
  N  N83  1  0.76203300  0.55227500  0.81210200  1
  N  N84  1  0.05041100  0.83170300  0.87415100  1
  N  N85  1  0.30616900  0.74813200  0.43149900  1
  N  N86  1  0.98397500  0.53968800  0.91849000  1
  N  N87  1  0.94018000  0.93638700  0.12702600  1
  F  F88  1  0.67151000  0.28617900  0.30360800  1
  F  F89  1  0.99814200  0.96925300  0.69409800  1
  F  F90  1  0.14588600  0.21557200  0.80609500  1
  F  F91  1  0.65582600  0.56660800  0.18465900  1
  F  F92  1  0.65582600  0.93339200  0.68465900  1
  F  F93  1  0.59142700  0.95244600  0.56749100  1
  F  F94  1  0.40857300  0.45244600  0.93250900  1
  F  F95  1  0.74992800  0.30547700  0.42037000  1
  F  F96  1  0.15909800  0.45347300  0.68284300  1
  F  F97  1  0.00185800  0.46925300  0.80590200  1
  F  F98  1  0.90812600  0.54724900  0.43477000  1
  F  F99  1  0.59142700  0.54755400  0.06749100  1
  F  F100  1  0.82960500  0.31452000  0.18082200  1
  F  F101  1  0.37545000  0.26415200  0.19340600  1
  F  F102  1  0.17039500  0.68548000  0.81917800  1
  F  F103  1  0.84090200  0.95347300  0.81715700  1
  F  F104  1  0.20557900  0.26904900  0.42363300  1
  F  F105  1  0.90812600  0.95275100  0.93477000  1
  F  F106  1  0.32849000  0.78617900  0.19639200  1
  F  F107  1  0.17039500  0.81452000  0.31917800  1
  F  F108  1  0.82960500  0.18548000  0.68082200  1
  F  F109  1  0.00185800  0.03074700  0.30590200  1
  F  F110  1  0.49390100  0.48533800  0.68479500  1
  F  F111  1  0.50609900  0.98533800  0.81520500  1
  F  F112  1  0.14588600  0.28442800  0.30609500  1
  F  F113  1  0.34417400  0.06660800  0.31534100  1
  F  F114  1  0.85411400  0.78442800  0.19390500  1
  F  F115  1  0.15909800  0.04652700  0.18284300  1
  F  F116  1  0.09187400  0.45275100  0.56523000  1
  F  F117  1  0.49390100  0.01466200  0.18479500  1
  F  F118  1  0.99814200  0.53074700  0.19409800  1
  F  F119  1  0.25007200  0.80547700  0.07963000  1
  F  F120  1  0.40857300  0.04755400  0.43250900  1
  F  F121  1  0.84090200  0.54652700  0.31715700  1
  F  F122  1  0.85411400  0.71557200  0.69390500  1
  F  F123  1  0.37545000  0.23584800  0.69340600  1
  F  F124  1  0.74992800  0.19452300  0.92037000  1
  F  F125  1  0.62455000  0.76415200  0.30659400  1
  F  F126  1  0.09187400  0.04724900  0.06523000  1
  F  F127  1  0.50609900  0.51466200  0.31520500  1
  F  F128  1  0.79442100  0.73095100  0.57636700  1
  F  F129  1  0.67151000  0.21382100  0.80360800  1
  F  F130  1  0.25007200  0.69452300  0.57963000  1
  F  F131  1  0.32849000  0.71382100  0.69639200  1
  F  F132  1  0.20557900  0.23095100  0.92363300  1
  F  F133  1  0.79442100  0.76904900  0.07636700  1
  F  F134  1  0.62455000  0.73584800  0.80659400  1
  F  F135  1  0.34417400  0.43339200  0.81534100  1
