# generated using pymatgen
data_Na3Ga3(TeO6)2
_symmetry_space_group_name_H-M   'P 1'
_cell_length_a   12.54510800
_cell_length_b   12.54510800
_cell_length_c   12.54510800
_cell_angle_alpha   90.00000000
_cell_angle_beta   90.00000000
_cell_angle_gamma   90.00000000
_symmetry_Int_Tables_number   1
_chemical_formula_structural   Na3Ga3(TeO6)2
_chemical_formula_sum   'Na24 Ga24 Te16 O96'
_cell_volume   1974.34576922
_cell_formula_units_Z   8
loop_
 _symmetry_equiv_pos_site_id
 _symmetry_equiv_pos_as_xyz
  1  'x, y, z'
loop_
 _atom_site_type_symbol
 _atom_site_label
 _atom_site_symmetry_multiplicity
 _atom_site_fract_x
 _atom_site_fract_y
 _atom_site_fract_z
 _atom_site_occupancy
  Na  Na0  1  0.25000000  0.87500000  0.50000000  1
  Na  Na1  1  0.00000000  0.25000000  0.62500000  1
  Na  Na2  1  0.25000000  0.62500000  0.00000000  1
  Na  Na3  1  0.12500000  0.00000000  0.25000000  1
  Na  Na4  1  0.50000000  0.25000000  0.87500000  1
  Na  Na5  1  0.00000000  0.25000000  0.12500000  1
  Na  Na6  1  0.37500000  0.50000000  0.25000000  1
  Na  Na7  1  0.25000000  0.37500000  0.50000000  1
  Na  Na8  1  0.62500000  0.00000000  0.25000000  1
  Na  Na9  1  0.87500000  0.50000000  0.25000000  1
  Na  Na10  1  0.50000000  0.25000000  0.37500000  1
  Na  Na11  1  0.25000000  0.12500000  0.00000000  1
  Na  Na12  1  0.75000000  0.37500000  0.00000000  1
  Na  Na13  1  0.50000000  0.75000000  0.12500000  1
  Na  Na14  1  0.75000000  0.12500000  0.50000000  1
  Na  Na15  1  0.62500000  0.50000000  0.75000000  1
  Na  Na16  1  0.00000000  0.75000000  0.37500000  1
  Na  Na17  1  0.50000000  0.75000000  0.62500000  1
  Na  Na18  1  0.87500000  0.00000000  0.75000000  1
  Na  Na19  1  0.75000000  0.87500000  0.00000000  1
  Na  Na20  1  0.12500000  0.50000000  0.75000000  1
  Na  Na21  1  0.37500000  0.00000000  0.75000000  1
  Na  Na22  1  0.00000000  0.75000000  0.87500000  1
  Na  Na23  1  0.75000000  0.62500000  0.50000000  1
  Ga  Ga24  1  0.50000000  0.25000000  0.12500000  1
  Ga  Ga25  1  0.37500000  0.00000000  0.25000000  1
  Ga  Ga26  1  0.25000000  0.12500000  0.50000000  1
  Ga  Ga27  1  0.37500000  0.50000000  0.75000000  1
  Ga  Ga28  1  0.75000000  0.12500000  0.00000000  1
  Ga  Ga29  1  0.12500000  0.00000000  0.75000000  1
  Ga  Ga30  1  0.12500000  0.50000000  0.25000000  1
  Ga  Ga31  1  0.00000000  0.75000000  0.12500000  1
  Ga  Ga32  1  0.50000000  0.75000000  0.37500000  1
  Ga  Ga33  1  0.25000000  0.37500000  0.00000000  1
  Ga  Ga34  1  0.75000000  0.37500000  0.50000000  1
  Ga  Ga35  1  0.00000000  0.25000000  0.37500000  1
  Ga  Ga36  1  0.00000000  0.75000000  0.62500000  1
  Ga  Ga37  1  0.87500000  0.50000000  0.75000000  1
  Ga  Ga38  1  0.75000000  0.62500000  0.00000000  1
  Ga  Ga39  1  0.87500000  0.00000000  0.25000000  1
  Ga  Ga40  1  0.25000000  0.62500000  0.50000000  1
  Ga  Ga41  1  0.62500000  0.50000000  0.25000000  1
  Ga  Ga42  1  0.62500000  0.00000000  0.75000000  1
  Ga  Ga43  1  0.50000000  0.25000000  0.62500000  1
  Ga  Ga44  1  0.00000000  0.25000000  0.87500000  1
  Ga  Ga45  1  0.75000000  0.87500000  0.50000000  1
  Ga  Ga46  1  0.25000000  0.87500000  0.00000000  1
  Ga  Ga47  1  0.50000000  0.75000000  0.87500000  1
  Te  Te48  1  0.50000000  0.00000000  0.00000000  1
  Te  Te49  1  0.25000000  0.25000000  0.25000000  1
  Te  Te50  1  0.00000000  0.00000000  0.00000000  1
  Te  Te51  1  0.75000000  0.25000000  0.25000000  1
  Te  Te52  1  0.00000000  0.00000000  0.50000000  1
  Te  Te53  1  0.25000000  0.25000000  0.75000000  1
  Te  Te54  1  0.00000000  0.50000000  0.00000000  1
  Te  Te55  1  0.25000000  0.75000000  0.25000000  1
  Te  Te56  1  0.00000000  0.50000000  0.50000000  1
  Te  Te57  1  0.75000000  0.75000000  0.75000000  1
  Te  Te58  1  0.50000000  0.50000000  0.50000000  1
  Te  Te59  1  0.25000000  0.75000000  0.75000000  1
  Te  Te60  1  0.50000000  0.50000000  0.00000000  1
  Te  Te61  1  0.75000000  0.75000000  0.25000000  1
  Te  Te62  1  0.50000000  0.00000000  0.50000000  1
  Te  Te63  1  0.75000000  0.25000000  0.75000000  1
  O  O64  1  0.89541200  0.70343700  0.21998300  1
  O  O65  1  0.04656300  0.14541200  0.96998300  1
  O  O66  1  0.14541200  0.03001700  0.45343700  1
  O  O67  1  0.60458800  0.79656300  0.28001700  1
  O  O68  1  0.04656300  0.64541200  0.03001700  1
  O  O69  1  0.78001700  0.89541200  0.20343700  1
  O  O70  1  0.20343700  0.21998300  0.60458800  1
  O  O71  1  0.45343700  0.14541200  0.03001700  1
  O  O72  1  0.21998300  0.89541200  0.70343700  1
  O  O73  1  0.35458800  0.03001700  0.54656300  1
  O  O74  1  0.54656300  0.35458800  0.03001700  1
  O  O75  1  0.53001700  0.45343700  0.35458800  1
  O  O76  1  0.70343700  0.21998300  0.89541200  1
  O  O77  1  0.95343700  0.14541200  0.46998300  1
  O  O78  1  0.04656300  0.35458800  0.46998300  1
  O  O79  1  0.03001700  0.45343700  0.14541200  1
  O  O80  1  0.29656300  0.28001700  0.89541200  1
  O  O81  1  0.85458800  0.46998300  0.45343700  1
  O  O82  1  0.03001700  0.54656300  0.35458800  1
  O  O83  1  0.46998300  0.45343700  0.85458800  1
  O  O84  1  0.28001700  0.10458800  0.20343700  1
  O  O85  1  0.96998300  0.04656300  0.14541200  1
  O  O86  1  0.39541200  0.29656300  0.21998300  1
  O  O87  1  0.89541200  0.29656300  0.28001700  1
  O  O88  1  0.46998300  0.95343700  0.14541200  1
  O  O89  1  0.79656300  0.28001700  0.60458800  1
  O  O90  1  0.03001700  0.04656300  0.64541200  1
  O  O91  1  0.46998300  0.04656300  0.35458800  1
  O  O92  1  0.60458800  0.20343700  0.21998300  1
  O  O93  1  0.28001700  0.89541200  0.29656300  1
  O  O94  1  0.28001700  0.60458800  0.79656300  1
  O  O95  1  0.29656300  0.21998300  0.39541200  1
  O  O96  1  0.45343700  0.85458800  0.46998300  1
  O  O97  1  0.60458800  0.29656300  0.71998300  1
  O  O98  1  0.20343700  0.78001700  0.89541200  1
  O  O99  1  0.89541200  0.20343700  0.78001700  1
  O  O100  1  0.14541200  0.96998300  0.04656300  1
  O  O101  1  0.45343700  0.35458800  0.53001700  1
  O  O102  1  0.10458800  0.20343700  0.28001700  1
  O  O103  1  0.21998300  0.60458800  0.20343700  1
  O  O104  1  0.14541200  0.46998300  0.95343700  1
  O  O105  1  0.21998300  0.39541200  0.29656300  1
  O  O106  1  0.71998300  0.60458800  0.29656300  1
  O  O107  1  0.64541200  0.03001700  0.04656300  1
  O  O108  1  0.20343700  0.28001700  0.10458800  1
  O  O109  1  0.35458800  0.46998300  0.04656300  1
  O  O110  1  0.35458800  0.53001700  0.45343700  1
  O  O111  1  0.29656300  0.71998300  0.60458800  1
  O  O112  1  0.39541200  0.20343700  0.71998300  1
  O  O113  1  0.54656300  0.64541200  0.46998300  1
  O  O114  1  0.64541200  0.53001700  0.95343700  1
  O  O115  1  0.10458800  0.29656300  0.78001700  1
  O  O116  1  0.54656300  0.14541200  0.53001700  1
  O  O117  1  0.28001700  0.39541200  0.70343700  1
  O  O118  1  0.70343700  0.71998300  0.10458800  1
  O  O119  1  0.95343700  0.64541200  0.53001700  1
  O  O120  1  0.71998300  0.39541200  0.20343700  1
  O  O121  1  0.85458800  0.53001700  0.04656300  1
  O  O122  1  0.04656300  0.85458800  0.53001700  1
  O  O123  1  0.03001700  0.95343700  0.85458800  1
  O  O124  1  0.20343700  0.71998300  0.39541200  1
  O  O125  1  0.45343700  0.64541200  0.96998300  1
  O  O126  1  0.54656300  0.85458800  0.96998300  1
  O  O127  1  0.53001700  0.95343700  0.64541200  1
  O  O128  1  0.79656300  0.78001700  0.39541200  1
  O  O129  1  0.35458800  0.96998300  0.95343700  1
  O  O130  1  0.53001700  0.04656300  0.85458800  1
  O  O131  1  0.96998300  0.95343700  0.35458800  1
  O  O132  1  0.78001700  0.60458800  0.70343700  1
  O  O133  1  0.46998300  0.54656300  0.64541200  1
  O  O134  1  0.89541200  0.79656300  0.71998300  1
  O  O135  1  0.39541200  0.79656300  0.78001700  1
  O  O136  1  0.96998300  0.45343700  0.64541200  1
  O  O137  1  0.29656300  0.78001700  0.10458800  1
  O  O138  1  0.53001700  0.54656300  0.14541200  1
  O  O139  1  0.96998300  0.54656300  0.85458800  1
  O  O140  1  0.10458800  0.70343700  0.71998300  1
  O  O141  1  0.78001700  0.39541200  0.79656300  1
  O  O142  1  0.78001700  0.10458800  0.29656300  1
  O  O143  1  0.79656300  0.71998300  0.89541200  1
  O  O144  1  0.95343700  0.35458800  0.96998300  1
  O  O145  1  0.10458800  0.79656300  0.21998300  1
  O  O146  1  0.70343700  0.28001700  0.39541200  1
  O  O147  1  0.39541200  0.70343700  0.28001700  1
  O  O148  1  0.64541200  0.46998300  0.54656300  1
  O  O149  1  0.95343700  0.85458800  0.03001700  1
  O  O150  1  0.60458800  0.70343700  0.78001700  1
  O  O151  1  0.71998300  0.10458800  0.70343700  1
  O  O152  1  0.64541200  0.96998300  0.45343700  1
  O  O153  1  0.71998300  0.89541200  0.79656300  1
  O  O154  1  0.21998300  0.10458800  0.79656300  1
  O  O155  1  0.14541200  0.53001700  0.54656300  1
  O  O156  1  0.70343700  0.78001700  0.60458800  1
  O  O157  1  0.85458800  0.96998300  0.54656300  1
  O  O158  1  0.85458800  0.03001700  0.95343700  1
  O  O159  1  0.79656300  0.21998300  0.10458800  1
