# generated using pymatgen
data_DyPO4
_symmetry_space_group_name_H-M   'P 1'
_cell_length_a   6.96493400
_cell_length_b   6.96493400
_cell_length_c   6.06113600
_cell_angle_alpha   90.00000000
_cell_angle_beta   90.00000000
_cell_angle_gamma   90.00000000
_symmetry_Int_Tables_number   1
_chemical_formula_structural   DyPO4
_chemical_formula_sum   'Dy4 P4 O16'
_cell_volume   294.02755979
_cell_formula_units_Z   4
loop_
 _symmetry_equiv_pos_site_id
 _symmetry_equiv_pos_as_xyz
  1  'x, y, z'
loop_
 _atom_site_type_symbol
 _atom_site_label
 _atom_site_symmetry_multiplicity
 _atom_site_fract_x
 _atom_site_fract_y
 _atom_site_fract_z
 _atom_site_occupancy
  Dy  Dy0  1  0.50000000  0.00000000  0.25000000  1
  Dy  Dy1  1  0.50000000  0.50000000  0.50000000  1
  Dy  Dy2  1  0.00000000  0.50000000  0.75000000  1
  Dy  Dy3  1  0.00000000  0.00000000  0.00000000  1
  P  P4  1  0.00000000  0.00000000  0.50000000  1
  P  P5  1  0.50000000  0.00000000  0.75000000  1
  P  P6  1  0.50000000  0.50000000  0.00000000  1
  P  P7  1  0.00000000  0.50000000  0.25000000  1
  O  O8  1  0.00000000  0.32563800  0.08982000  1
  O  O9  1  0.17436200  0.00000000  0.33982000  1
  O  O10  1  0.82563800  0.00000000  0.33982000  1
  O  O11  1  0.50000000  0.17436200  0.58982000  1
  O  O12  1  0.82563800  0.50000000  0.41018000  1
  O  O13  1  0.00000000  0.17436200  0.66018000  1
  O  O14  1  0.00000000  0.82563800  0.66018000  1
  O  O15  1  0.67436200  0.00000000  0.91018000  1
  O  O16  1  0.50000000  0.82563800  0.58982000  1
  O  O17  1  0.67436200  0.50000000  0.83982000  1
  O  O18  1  0.32563800  0.50000000  0.83982000  1
  O  O19  1  0.00000000  0.67436200  0.08982000  1
  O  O20  1  0.32563800  0.00000000  0.91018000  1
  O  O21  1  0.50000000  0.67436200  0.16018000  1
  O  O22  1  0.50000000  0.32563800  0.16018000  1
  O  O23  1  0.17436200  0.50000000  0.41018000  1
