# generated using pymatgen
data_Cd2BiAsO6
_symmetry_space_group_name_H-M   'P 1'
_cell_length_a   8.83773000
_cell_length_b   12.19318600
_cell_length_c   5.52824700
_cell_angle_alpha   90.00000000
_cell_angle_beta   90.00000000
_cell_angle_gamma   90.00000000
_symmetry_Int_Tables_number   1
_chemical_formula_structural   Cd2BiAsO6
_chemical_formula_sum   'Cd8 Bi4 As4 O24'
_cell_volume   595.72437053
_cell_formula_units_Z   4
loop_
 _symmetry_equiv_pos_site_id
 _symmetry_equiv_pos_as_xyz
  1  'x, y, z'
loop_
 _atom_site_type_symbol
 _atom_site_label
 _atom_site_symmetry_multiplicity
 _atom_site_fract_x
 _atom_site_fract_y
 _atom_site_fract_z
 _atom_site_occupancy
  Cd  Cd0  1  0.30259450  0.10434550  0.61355900  1
  Cd  Cd1  1  0.69740550  0.10434550  0.61355900  1
  Cd  Cd2  1  0.69740550  0.89565450  0.11355900  1
  Cd  Cd3  1  0.30259450  0.89565450  0.11355900  1
  Cd  Cd4  1  0.80259450  0.60434550  0.61355900  1
  Cd  Cd5  1  0.19740550  0.60434550  0.61355900  1
  Cd  Cd6  1  0.19740550  0.39565450  0.11355900  1
  Cd  Cd7  1  0.80259450  0.39565450  0.11355900  1
  Bi  Bi8  1  0.50000000  0.40645200  0.60800900  1
  Bi  Bi9  1  0.50000000  0.59354800  0.10800900  1
  Bi  Bi10  1  0.00000000  0.90645200  0.60800900  1
  Bi  Bi11  1  0.00000000  0.09354800  0.10800900  1
  As  As12  1  0.50000000  0.81657700  0.65377300  1
  As  As13  1  0.50000000  0.18342300  0.15377300  1
  As  As14  1  0.00000000  0.31657700  0.65377300  1
  As  As15  1  0.00000000  0.68342300  0.15377300  1
  O  O16  1  0.15418500  0.00251300  0.36770000  1
  O  O17  1  0.33957900  0.75316000  0.76402500  1
  O  O18  1  0.15418500  0.99748700  0.86770000  1
  O  O19  1  0.84581500  0.00251300  0.36770000  1
  O  O20  1  0.84581500  0.99748700  0.86770000  1
  O  O21  1  0.50000000  0.05670400  0.29753000  1
  O  O22  1  0.50000000  0.81969400  0.33871000  1
  O  O23  1  0.66042100  0.24684000  0.26402500  1
  O  O24  1  0.33957900  0.24684000  0.26402500  1
  O  O25  1  0.50000000  0.94329600  0.79753000  1
  O  O26  1  0.50000000  0.18030600  0.83871000  1
  O  O27  1  0.66042100  0.75316000  0.76402500  1
  O  O28  1  0.65418500  0.50251300  0.36770000  1
  O  O29  1  0.83957900  0.25316000  0.76402500  1
  O  O30  1  0.65418500  0.49748700  0.86770000  1
  O  O31  1  0.34581500  0.50251300  0.36770000  1
  O  O32  1  0.34581500  0.49748700  0.86770000  1
  O  O33  1  0.00000000  0.55670400  0.29753000  1
  O  O34  1  0.00000000  0.31969400  0.33871000  1
  O  O35  1  0.16042100  0.74684000  0.26402500  1
  O  O36  1  0.83957900  0.74684000  0.26402500  1
  O  O37  1  0.00000000  0.44329600  0.79753000  1
  O  O38  1  0.00000000  0.68030600  0.83871000  1
  O  O39  1  0.16042100  0.25316000  0.76402500  1
