# generated using pymatgen
data_RbReCl4
_symmetry_space_group_name_H-M   'P 1'
_cell_length_a   10.86846600
_cell_length_b   15.19485200
_cell_length_c   12.49848300
_cell_angle_alpha   90.00000000
_cell_angle_beta   90.00000000
_cell_angle_gamma   90.00000000
_symmetry_Int_Tables_number   1
_chemical_formula_structural   RbReCl4
_chemical_formula_sum   'Rb12 Re12 Cl48'
_cell_volume   2064.05862965
_cell_formula_units_Z   12
loop_
 _symmetry_equiv_pos_site_id
 _symmetry_equiv_pos_as_xyz
  1  'x, y, z'
loop_
 _atom_site_type_symbol
 _atom_site_label
 _atom_site_symmetry_multiplicity
 _atom_site_fract_x
 _atom_site_fract_y
 _atom_site_fract_z
 _atom_site_occupancy
  Rb  Rb0  1  0.24628000  0.00000000  0.00000000  1
  Rb  Rb1  1  0.50000000  0.24778200  0.75000000  1
  Rb  Rb2  1  0.24628000  0.00000000  0.50000000  1
  Rb  Rb3  1  0.75372000  0.00000000  0.50000000  1
  Rb  Rb4  1  0.75372000  0.00000000  0.00000000  1
  Rb  Rb5  1  0.50000000  0.75221800  0.25000000  1
  Rb  Rb6  1  0.74628000  0.50000000  0.00000000  1
  Rb  Rb7  1  0.00000000  0.74778200  0.75000000  1
  Rb  Rb8  1  0.74628000  0.50000000  0.50000000  1
  Rb  Rb9  1  0.25372000  0.50000000  0.50000000  1
  Rb  Rb10  1  0.25372000  0.50000000  0.00000000  1
  Rb  Rb11  1  0.00000000  0.25221800  0.25000000  1
  Re  Re12  1  0.50000000  0.71151400  0.65115700  1
  Re  Re13  1  0.50000000  0.71151400  0.84884300  1
  Re  Re14  1  0.50000000  0.28848600  0.34884300  1
  Re  Re15  1  0.50000000  0.85250700  0.75000000  1
  Re  Re16  1  0.50000000  0.28848600  0.15115700  1
  Re  Re17  1  0.50000000  0.14749300  0.25000000  1
  Re  Re18  1  0.00000000  0.21151400  0.65115700  1
  Re  Re19  1  0.00000000  0.21151400  0.84884300  1
  Re  Re20  1  0.00000000  0.78848600  0.34884300  1
  Re  Re21  1  0.00000000  0.35250700  0.75000000  1
  Re  Re22  1  0.00000000  0.78848600  0.15115700  1
  Re  Re23  1  0.00000000  0.64749300  0.25000000  1
  Cl  Cl24  1  0.50000000  0.62713900  0.46830200  1
  Cl  Cl25  1  0.50000000  0.02441300  0.75000000  1
  Cl  Cl26  1  0.21017350  0.19622750  0.87707700  1
  Cl  Cl27  1  0.50000000  0.14865800  0.44500500  1
  Cl  Cl28  1  0.21017350  0.80377250  0.37707700  1
  Cl  Cl29  1  0.78982650  0.80377250  0.12292300  1
  Cl  Cl30  1  0.50000000  0.14865800  0.05499500  1
  Cl  Cl31  1  0.21017350  0.80377250  0.12292300  1
  Cl  Cl32  1  0.78982650  0.19622750  0.62292300  1
  Cl  Cl33  1  0.50000000  0.37286100  0.53169800  1
  Cl  Cl34  1  0.28856300  0.88138600  0.75000000  1
  Cl  Cl35  1  0.50000000  0.97558700  0.25000000  1
  Cl  Cl36  1  0.78982650  0.80377250  0.37707700  1
  Cl  Cl37  1  0.50000000  0.62713900  0.03169800  1
  Cl  Cl38  1  0.50000000  0.42605500  0.25000000  1
  Cl  Cl39  1  0.78982650  0.19622750  0.87707700  1
  Cl  Cl40  1  0.71143700  0.88138600  0.75000000  1
  Cl  Cl41  1  0.50000000  0.37286100  0.96830200  1
  Cl  Cl42  1  0.21017350  0.19622750  0.62292300  1
  Cl  Cl43  1  0.28856300  0.11861400  0.25000000  1
  Cl  Cl44  1  0.50000000  0.57394500  0.75000000  1
  Cl  Cl45  1  0.71143700  0.11861400  0.25000000  1
  Cl  Cl46  1  0.50000000  0.85134200  0.55499500  1
  Cl  Cl47  1  0.50000000  0.85134200  0.94500500  1
  Cl  Cl48  1  0.00000000  0.12713900  0.46830200  1
  Cl  Cl49  1  0.00000000  0.52441300  0.75000000  1
  Cl  Cl50  1  0.71017350  0.69622750  0.87707700  1
  Cl  Cl51  1  0.00000000  0.64865800  0.44500500  1
  Cl  Cl52  1  0.71017350  0.30377250  0.37707700  1
  Cl  Cl53  1  0.28982650  0.30377250  0.12292300  1
  Cl  Cl54  1  0.00000000  0.64865800  0.05499500  1
  Cl  Cl55  1  0.71017350  0.30377250  0.12292300  1
  Cl  Cl56  1  0.28982650  0.69622750  0.62292300  1
  Cl  Cl57  1  0.00000000  0.87286100  0.53169800  1
  Cl  Cl58  1  0.78856300  0.38138600  0.75000000  1
  Cl  Cl59  1  0.00000000  0.47558700  0.25000000  1
  Cl  Cl60  1  0.28982650  0.30377250  0.37707700  1
  Cl  Cl61  1  0.00000000  0.12713900  0.03169800  1
  Cl  Cl62  1  0.00000000  0.92605500  0.25000000  1
  Cl  Cl63  1  0.28982650  0.69622750  0.87707700  1
  Cl  Cl64  1  0.21143700  0.38138600  0.75000000  1
  Cl  Cl65  1  0.00000000  0.87286100  0.96830200  1
  Cl  Cl66  1  0.71017350  0.69622750  0.62292300  1
  Cl  Cl67  1  0.78856300  0.61861400  0.25000000  1
  Cl  Cl68  1  0.00000000  0.07394500  0.75000000  1
  Cl  Cl69  1  0.21143700  0.61861400  0.25000000  1
  Cl  Cl70  1  0.00000000  0.35134200  0.55499500  1
  Cl  Cl71  1  0.00000000  0.35134200  0.94500500  1
