# generated using pymatgen
data_Ge4Te7As2
_symmetry_space_group_name_H-M   'P 1'
_cell_length_a   4.19190219
_cell_length_b   4.19190219
_cell_length_c   71.59414678
_cell_angle_alpha   90.00000000
_cell_angle_beta   90.00000000
_cell_angle_gamma   120.00000000
_symmetry_Int_Tables_number   1
_chemical_formula_structural   Ge4Te7As2
_chemical_formula_sum   'Ge12 Te21 As6'
_cell_volume   1089.50801991
_cell_formula_units_Z   3
loop_
 _symmetry_equiv_pos_site_id
 _symmetry_equiv_pos_as_xyz
  1  'x, y, z'
loop_
 _atom_site_type_symbol
 _atom_site_label
 _atom_site_symmetry_multiplicity
 _atom_site_fract_x
 _atom_site_fract_y
 _atom_site_fract_z
 _atom_site_occupancy
  Ge  Ge0  1  0.00000000  0.00000000  0.07464600  1
  Ge  Ge1  1  0.00000000  0.00000000  0.30857200  1
  Ge  Ge2  1  0.66666667  0.33333333  0.02476133  1
  Ge  Ge3  1  0.66666667  0.33333333  0.25868733  1
  Ge  Ge4  1  0.66666667  0.33333333  0.40797933  1
  Ge  Ge5  1  0.66666667  0.33333333  0.64190533  1
  Ge  Ge6  1  0.33333333  0.66666667  0.35809467  1
  Ge  Ge7  1  0.33333333  0.66666667  0.59202067  1
  Ge  Ge8  1  0.33333333  0.66666667  0.74131267  1
  Ge  Ge9  1  0.33333333  0.66666667  0.97523867  1
  Ge  Ge10  1  0.00000000  0.00000000  0.69142800  1
  Ge  Ge11  1  0.00000000  0.00000000  0.92535400  1
  Te  Te12  1  0.00000000  0.00000000  0.14525400  1
  Te  Te13  1  0.66666667  0.33333333  0.09792433  1
  Te  Te14  1  0.00000000  0.00000000  0.23540900  1
  Te  Te15  1  0.66666667  0.33333333  0.18807933  1
  Te  Te16  1  0.00000000  0.00000000  0.00000000  1
  Te  Te17  1  0.33333333  0.66666667  0.28456667  1
  Te  Te18  1  0.33333333  0.66666667  0.04876667  1
  Te  Te19  1  0.66666667  0.33333333  0.47858733  1
  Te  Te20  1  0.33333333  0.66666667  0.43125767  1
  Te  Te21  1  0.66666667  0.33333333  0.56874233  1
  Te  Te22  1  0.33333333  0.66666667  0.52141267  1
  Te  Te23  1  0.66666667  0.33333333  0.33333333  1
  Te  Te24  1  0.00000000  0.00000000  0.61790000  1
  Te  Te25  1  0.00000000  0.00000000  0.38210000  1
  Te  Te26  1  0.33333333  0.66666667  0.81192067  1
  Te  Te27  1  0.00000000  0.00000000  0.76459100  1
  Te  Te28  1  0.33333333  0.66666667  0.90207567  1
  Te  Te29  1  0.00000000  0.00000000  0.85474600  1
  Te  Te30  1  0.33333333  0.66666667  0.66666667  1
  Te  Te31  1  0.66666667  0.33333333  0.95123333  1
  Te  Te32  1  0.66666667  0.33333333  0.71543333  1
  As  As33  1  0.33333333  0.66666667  0.20879867  1
  As  As34  1  0.33333333  0.66666667  0.12453467  1
  As  As35  1  0.00000000  0.00000000  0.54213200  1
  As  As36  1  0.00000000  0.00000000  0.45786800  1
  As  As37  1  0.66666667  0.33333333  0.87546533  1
  As  As38  1  0.66666667  0.33333333  0.79120133  1
