# generated using pymatgen
data_K4Ti3S14
_symmetry_space_group_name_H-M   'P 1'
_cell_length_a   21.30461400
_cell_length_b   8.10649800
_cell_length_c   13.26820512
_cell_angle_alpha   90.00000000
_cell_angle_beta   113.11187650
_cell_angle_gamma   90.00000000
_symmetry_Int_Tables_number   1
_chemical_formula_structural   K4Ti3S14
_chemical_formula_sum   'K16 Ti12 S56'
_cell_volume   2107.58099342
_cell_formula_units_Z   4
loop_
 _symmetry_equiv_pos_site_id
 _symmetry_equiv_pos_as_xyz
  1  'x, y, z'
loop_
 _atom_site_type_symbol
 _atom_site_label
 _atom_site_symmetry_multiplicity
 _atom_site_fract_x
 _atom_site_fract_y
 _atom_site_fract_z
 _atom_site_occupancy
  K  K0  1  0.29846850  0.67752350  0.88717700  1
  K  K1  1  0.20153150  0.17752350  0.61282300  1
  K  K2  1  0.20153150  0.82247650  0.11282300  1
  K  K3  1  0.29846850  0.32247650  0.38717700  1
  K  K4  1  0.07048350  0.73994150  0.64732500  1
  K  K5  1  0.42951650  0.23994150  0.85267500  1
  K  K6  1  0.42951650  0.76005850  0.35267500  1
  K  K7  1  0.07048350  0.26005850  0.14732500  1
  K  K8  1  0.79846850  0.17752350  0.88717700  1
  K  K9  1  0.70153150  0.67752350  0.61282300  1
  K  K10  1  0.70153150  0.32247650  0.11282300  1
  K  K11  1  0.79846850  0.82247650  0.38717700  1
  K  K12  1  0.57048350  0.23994150  0.64732500  1
  K  K13  1  0.92951650  0.73994150  0.85267500  1
  K  K14  1  0.92951650  0.26005850  0.35267500  1
  K  K15  1  0.57048350  0.76005850  0.14732500  1
  Ti  Ti16  1  0.33263450  0.74522950  0.58390100  1
  Ti  Ti17  1  0.16736550  0.24522950  0.91609900  1
  Ti  Ti18  1  0.16736550  0.75477050  0.41609900  1
  Ti  Ti19  1  0.33263450  0.25477050  0.08390100  1
  Ti  Ti20  1  0.00000000  0.23664000  0.75000000  1
  Ti  Ti21  1  0.00000000  0.76336000  0.25000000  1
  Ti  Ti22  1  0.83263450  0.24522950  0.58390100  1
  Ti  Ti23  1  0.66736550  0.74522950  0.91609900  1
  Ti  Ti24  1  0.66736550  0.25477050  0.41609900  1
  Ti  Ti25  1  0.83263450  0.75477050  0.08390100  1
  Ti  Ti26  1  0.50000000  0.73664000  0.75000000  1
  Ti  Ti27  1  0.50000000  0.26336000  0.25000000  1
  S  S28  1  0.22144650  0.79005450  0.60235600  1
  S  S29  1  0.27855350  0.29005450  0.89764400  1
  S  S30  1  0.27855350  0.70994550  0.39764400  1
  S  S31  1  0.22144650  0.20994550  0.10235600  1
  S  S32  1  0.43047150  0.91058550  0.58110800  1
  S  S33  1  0.06952850  0.41058550  0.91889200  1
  S  S34  1  0.06952850  0.58941450  0.41889200  1
  S  S35  1  0.43047150  0.08941450  0.08110800  1
  S  S36  1  0.40477450  0.83912550  0.79097400  1
  S  S37  1  0.09522550  0.33912550  0.70902600  1
  S  S38  1  0.09522550  0.66087450  0.20902600  1
  S  S39  1  0.40477450  0.16087450  0.29097400  1
  S  S40  1  0.41420650  0.51495950  0.63124600  1
  S  S41  1  0.08579350  0.01495950  0.86875400  1
  S  S42  1  0.08579350  0.98504050  0.36875400  1
  S  S43  1  0.41420650  0.48504050  0.13124600  1
  S  S44  1  0.46200400  0.65531900  0.89630300  1
  S  S45  1  0.03799600  0.15531900  0.60369700  1
  S  S46  1  0.03799600  0.84468100  0.10369700  1
  S  S47  1  0.46200400  0.34468100  0.39630300  1
  S  S48  1  0.17216200  0.98234200  0.83491000  1
  S  S49  1  0.32783800  0.48234200  0.66509000  1
  S  S50  1  0.32783800  0.51765800  0.16509000  1
  S  S51  1  0.17216200  0.01765800  0.33491000  1
  S  S52  1  0.14639800  0.54648300  0.89841000  1
  S  S53  1  0.35360200  0.04648300  0.60159000  1
  S  S54  1  0.35360200  0.95351700  0.10159000  1
  S  S55  1  0.14639800  0.45351700  0.39841000  1
  S  S56  1  0.72144650  0.29005450  0.60235600  1
  S  S57  1  0.77855350  0.79005450  0.89764400  1
  S  S58  1  0.77855350  0.20994550  0.39764400  1
  S  S59  1  0.72144650  0.70994550  0.10235600  1
  S  S60  1  0.93047150  0.41058550  0.58110800  1
  S  S61  1  0.56952850  0.91058550  0.91889200  1
  S  S62  1  0.56952850  0.08941450  0.41889200  1
  S  S63  1  0.93047150  0.58941450  0.08110800  1
  S  S64  1  0.90477450  0.33912550  0.79097400  1
  S  S65  1  0.59522550  0.83912550  0.70902600  1
  S  S66  1  0.59522550  0.16087450  0.20902600  1
  S  S67  1  0.90477450  0.66087450  0.29097400  1
  S  S68  1  0.91420650  0.01495950  0.63124600  1
  S  S69  1  0.58579350  0.51495950  0.86875400  1
  S  S70  1  0.58579350  0.48504050  0.36875400  1
  S  S71  1  0.91420650  0.98504050  0.13124600  1
  S  S72  1  0.96200400  0.15531900  0.89630300  1
  S  S73  1  0.53799600  0.65531900  0.60369700  1
  S  S74  1  0.53799600  0.34468100  0.10369700  1
  S  S75  1  0.96200400  0.84468100  0.39630300  1
  S  S76  1  0.67216200  0.48234200  0.83491000  1
  S  S77  1  0.82783800  0.98234200  0.66509000  1
  S  S78  1  0.82783800  0.01765800  0.16509000  1
  S  S79  1  0.67216200  0.51765800  0.33491000  1
  S  S80  1  0.64639800  0.04648300  0.89841000  1
  S  S81  1  0.85360200  0.54648300  0.60159000  1
  S  S82  1  0.85360200  0.45351700  0.10159000  1
  S  S83  1  0.64639800  0.95351700  0.39841000  1
