# generated using pymatgen
data_TaP4S6Cl5
_symmetry_space_group_name_H-M   'P 1'
_cell_length_a   7.25330100
_cell_length_b   11.55703496
_cell_length_c   12.22439835
_cell_angle_alpha   102.17445165
_cell_angle_beta   95.84897218
_cell_angle_gamma   104.01633641
_symmetry_Int_Tables_number   1
_chemical_formula_structural   TaP4S6Cl5
_chemical_formula_sum   'Ta2 P8 S12 Cl10'
_cell_volume   959.13375025
_cell_formula_units_Z   2
loop_
 _symmetry_equiv_pos_site_id
 _symmetry_equiv_pos_as_xyz
  1  'x, y, z'
loop_
 _atom_site_type_symbol
 _atom_site_label
 _atom_site_symmetry_multiplicity
 _atom_site_fract_x
 _atom_site_fract_y
 _atom_site_fract_z
 _atom_site_occupancy
  Ta  Ta0  1  0.48326100  0.73583000  0.85178500  1
  Ta  Ta1  1  0.51673900  0.26417000  0.14821500  1
  P  P2  1  0.95557600  0.57549400  0.28694000  1
  P  P3  1  0.25183000  0.82606800  0.44731300  1
  P  P4  1  0.94378700  0.80058200  0.49619100  1
  P  P5  1  0.04442400  0.42450600  0.71306000  1
  P  P6  1  0.05621300  0.19941800  0.50380900  1
  P  P7  1  0.74817000  0.17393200  0.55268700  1
  P  P8  1  0.05271500  0.13551200  0.76360300  1
  P  P9  1  0.94728500  0.86448800  0.23639700  1
  S  S10  1  0.11120000  0.33242200  0.83538900  1
  S  S11  1  0.23623400  0.92406600  0.31964300  1
  S  S12  1  0.18300500  0.39144800  0.57140100  1
  S  S13  1  0.75331900  0.35594500  0.63910200  1
  S  S14  1  0.24668100  0.64405500  0.36089800  1
  S  S15  1  0.76376600  0.07593400  0.68035700  1
  S  S16  1  0.90488500  0.39831700  0.21418900  1
  S  S17  1  0.81699500  0.60855200  0.42859900  1
  S  S18  1  0.09511500  0.60168300  0.78581100  1
  S  S19  1  0.19073600  0.11721100  0.61863400  1
  S  S20  1  0.80926400  0.88278900  0.38136600  1
  S  S21  1  0.88880000  0.66757800  0.16461100  1
  Cl  Cl22  1  0.44477800  0.44710600  0.13722600  1
  Cl  Cl23  1  0.21063000  0.13777200  0.09294600  1
  Cl  Cl24  1  0.55522200  0.55289400  0.86277400  1
  Cl  Cl25  1  0.67249700  0.11484000  0.17792400  1
  Cl  Cl26  1  0.50905800  0.69206800  0.65729100  1
  Cl  Cl27  1  0.40577500  0.75941200  0.03450200  1
  Cl  Cl28  1  0.49094200  0.30793200  0.34270900  1
  Cl  Cl29  1  0.59422500  0.24058800  0.96549800  1
  Cl  Cl30  1  0.32750300  0.88516000  0.82207600  1
  Cl  Cl31  1  0.78937000  0.86222800  0.90705400  1
