# generated using pymatgen
data_Si(AgO)4
_symmetry_space_group_name_H-M   'P 1'
_cell_length_a   7.46189900
_cell_length_b   7.46189900
_cell_length_c   4.96775200
_cell_angle_alpha   90.00000000
_cell_angle_beta   90.00000000
_cell_angle_gamma   90.00000000
_symmetry_Int_Tables_number   1
_chemical_formula_structural   Si(AgO)4
_chemical_formula_sum   'Si2 Ag8 O8'
_cell_volume   276.60411683
_cell_formula_units_Z   2
loop_
 _symmetry_equiv_pos_site_id
 _symmetry_equiv_pos_as_xyz
  1  'x, y, z'
loop_
 _atom_site_type_symbol
 _atom_site_label
 _atom_site_symmetry_multiplicity
 _atom_site_fract_x
 _atom_site_fract_y
 _atom_site_fract_z
 _atom_site_occupancy
  Si  Si0  1  0.00000000  0.00000000  0.50000000  1
  Si  Si1  1  0.50000000  0.50000000  0.00000000  1
  Ag  Ag2  1  0.88677400  0.31891200  0.95379700  1
  Ag  Ag3  1  0.38677400  0.81891200  0.54620300  1
  Ag  Ag4  1  0.61322600  0.18108800  0.54620300  1
  Ag  Ag5  1  0.18108800  0.38677400  0.45379700  1
  Ag  Ag6  1  0.81891200  0.61322600  0.45379700  1
  Ag  Ag7  1  0.31891200  0.11322600  0.04620300  1
  Ag  Ag8  1  0.11322600  0.68108800  0.95379700  1
  Ag  Ag9  1  0.68108800  0.88677400  0.04620300  1
  O  O10  1  0.32771100  0.56146700  0.18929500  1
  O  O11  1  0.06146700  0.17228900  0.68929500  1
  O  O12  1  0.56146700  0.67228900  0.81070500  1
  O  O13  1  0.17228900  0.93853300  0.31070500  1
  O  O14  1  0.93853300  0.82771100  0.68929500  1
  O  O15  1  0.67228900  0.43853300  0.18929500  1
  O  O16  1  0.43853300  0.32771100  0.81070500  1
  O  O17  1  0.82771100  0.06146700  0.31070500  1
