# generated using pymatgen
data_TiPO4
_symmetry_space_group_name_H-M   'P 1'
_cell_length_a   5.28334800
_cell_length_b   8.04542600
_cell_length_c   6.59065200
_cell_angle_alpha   90.00000000
_cell_angle_beta   90.00000000
_cell_angle_gamma   90.00000000
_symmetry_Int_Tables_number   1
_chemical_formula_structural   TiPO4
_chemical_formula_sum   'Ti4 P4 O16'
_cell_volume   280.14742999
_cell_formula_units_Z   4
loop_
 _symmetry_equiv_pos_site_id
 _symmetry_equiv_pos_as_xyz
  1  'x, y, z'
loop_
 _atom_site_type_symbol
 _atom_site_label
 _atom_site_symmetry_multiplicity
 _atom_site_fract_x
 _atom_site_fract_y
 _atom_site_fract_z
 _atom_site_occupancy
  Ti  Ti0  1  0.00000000  0.00000000  0.50000000  1
  Ti  Ti1  1  0.00000000  0.00000000  0.00000000  1
  Ti  Ti2  1  0.50000000  0.50000000  0.50000000  1
  Ti  Ti3  1  0.50000000  0.50000000  0.00000000  1
  P  P4  1  0.50000000  0.84583300  0.25000000  1
  P  P5  1  0.50000000  0.15416700  0.75000000  1
  P  P6  1  0.00000000  0.34583300  0.25000000  1
  P  P7  1  0.00000000  0.65416700  0.75000000  1
  O  O8  1  0.50000000  0.26181700  0.55797700  1
  O  O9  1  0.50000000  0.73818300  0.05797700  1
  O  O10  1  0.50000000  0.73818300  0.44202300  1
  O  O11  1  0.50000000  0.26181700  0.94202300  1
  O  O12  1  0.74460000  0.04320800  0.75000000  1
  O  O13  1  0.25540000  0.95679200  0.25000000  1
  O  O14  1  0.74460000  0.95679200  0.25000000  1
  O  O15  1  0.25540000  0.04320800  0.75000000  1
  O  O16  1  0.00000000  0.76181700  0.55797700  1
  O  O17  1  0.00000000  0.23818300  0.05797700  1
  O  O18  1  0.00000000  0.23818300  0.44202300  1
  O  O19  1  0.00000000  0.76181700  0.94202300  1
  O  O20  1  0.24460000  0.54320800  0.75000000  1
  O  O21  1  0.75540000  0.45679200  0.25000000  1
  O  O22  1  0.24460000  0.45679200  0.25000000  1
  O  O23  1  0.75540000  0.54320800  0.75000000  1
