# generated using pymatgen
data_Ba7B4S13
_symmetry_space_group_name_H-M   'P 1'
_cell_length_a   10.29667000
_cell_length_b   24.28581000
_cell_length_c   10.28688689
_cell_angle_alpha   90.00000000
_cell_angle_beta   90.04982733
_cell_angle_gamma   90.00000000
_symmetry_Int_Tables_number   1
_chemical_formula_structural   Ba7B4S13
_chemical_formula_sum   'Ba28 B16 S52'
_cell_volume   2572.36852791
_cell_formula_units_Z   4
loop_
 _symmetry_equiv_pos_site_id
 _symmetry_equiv_pos_as_xyz
  1  'x, y, z'
loop_
 _atom_site_type_symbol
 _atom_site_label
 _atom_site_symmetry_multiplicity
 _atom_site_fract_x
 _atom_site_fract_y
 _atom_site_fract_z
 _atom_site_occupancy
  Ba  Ba0  1  0.50000000  0.49155300  0.75000000  1
  Ba  Ba1  1  0.00000000  0.00844700  0.25000000  1
  Ba  Ba2  1  0.27937250  0.17458750  0.14418200  1
  Ba  Ba3  1  0.50000000  0.00235600  0.25000000  1
  Ba  Ba4  1  0.22062750  0.32541250  0.85581800  1
  Ba  Ba5  1  0.00000000  0.49764400  0.75000000  1
  Ba  Ba6  1  0.39421500  0.32818400  0.47019200  1
  Ba  Ba7  1  0.60578500  0.32818400  0.02980800  1
  Ba  Ba8  1  0.50000000  0.16860500  0.75000000  1
  Ba  Ba9  1  0.10578500  0.17181600  0.52980800  1
  Ba  Ba10  1  0.00000000  0.33139500  0.25000000  1
  Ba  Ba11  1  0.89421500  0.17181600  0.97019200  1
  Ba  Ba12  1  0.77937250  0.32541250  0.64418200  1
  Ba  Ba13  1  0.72062750  0.17458750  0.35581800  1
  Ba  Ba14  1  0.00000000  0.99155300  0.75000000  1
  Ba  Ba15  1  0.50000000  0.50844700  0.25000000  1
  Ba  Ba16  1  0.77937250  0.67458750  0.14418200  1
  Ba  Ba17  1  0.00000000  0.50235600  0.25000000  1
  Ba  Ba18  1  0.72062750  0.82541250  0.85581800  1
  Ba  Ba19  1  0.50000000  0.99764400  0.75000000  1
  Ba  Ba20  1  0.89421500  0.82818400  0.47019200  1
  Ba  Ba21  1  0.10578500  0.82818400  0.02980800  1
  Ba  Ba22  1  0.00000000  0.66860500  0.75000000  1
  Ba  Ba23  1  0.60578500  0.67181600  0.52980800  1
  Ba  Ba24  1  0.50000000  0.83139500  0.25000000  1
  Ba  Ba25  1  0.39421500  0.67181600  0.97019200  1
  Ba  Ba26  1  0.27937250  0.82541250  0.64418200  1
  Ba  Ba27  1  0.22062750  0.67458750  0.35581800  1
  B  B28  1  0.17983300  0.11200000  0.84991700  1
  B  B29  1  0.09899800  0.38285100  0.56759500  1
  B  B30  1  0.90100200  0.38285100  0.93240500  1
  B  B31  1  0.40100200  0.11714900  0.43240500  1
  B  B32  1  0.82016700  0.11200000  0.65008300  1
  B  B33  1  0.67983300  0.38800000  0.34991700  1
  B  B34  1  0.59899800  0.11714900  0.06759500  1
  B  B35  1  0.32016700  0.38800000  0.15008300  1
  B  B36  1  0.67983300  0.61200000  0.84991700  1
  B  B37  1  0.59899800  0.88285100  0.56759500  1
  B  B38  1  0.40100200  0.88285100  0.93240500  1
  B  B39  1  0.90100200  0.61714900  0.43240500  1
  B  B40  1  0.32016700  0.61200000  0.65008300  1
  B  B41  1  0.17983300  0.88800000  0.34991700  1
  B  B42  1  0.09899800  0.61714900  0.06759500  1
  B  B43  1  0.82016700  0.88800000  0.15008300  1
  S  S44  1  0.18733850  0.18863450  0.84800500  1
  S  S45  1  0.81266150  0.18863450  0.65199500  1
  S  S46  1  0.24168250  0.07686150  0.70728200  1
  S  S47  1  0.45724200  0.08245100  0.00205500  1
  S  S48  1  0.31266150  0.31136550  0.15199500  1
  S  S49  1  0.04275800  0.41754900  0.99794500  1
  S  S50  1  0.74168250  0.42313850  0.20728200  1
  S  S51  1  0.00000000  0.20417500  0.25000000  1
  S  S52  1  0.89952600  0.07599900  0.51649100  1
  S  S53  1  0.39952600  0.42400100  0.01649100  1
  S  S54  1  0.26783950  0.08090250  0.35274800  1
  S  S55  1  0.68733850  0.31136550  0.34800500  1
  S  S56  1  0.95724200  0.41754900  0.50205500  1
  S  S57  1  0.75831750  0.07686150  0.79271800  1
  S  S58  1  0.25831750  0.42313850  0.29271800  1
  S  S59  1  0.10047400  0.07599900  0.98350900  1
  S  S60  1  0.73216050  0.08090250  0.14725200  1
  S  S61  1  0.50000000  0.29582500  0.75000000  1
  S  S62  1  0.23216050  0.41909750  0.64725200  1
  S  S63  1  0.40136650  0.19345650  0.43877200  1
  S  S64  1  0.59863350  0.19345650  0.06122800  1
  S  S65  1  0.90136650  0.30654350  0.93877200  1
  S  S66  1  0.60047400  0.42400100  0.48350900  1
  S  S67  1  0.76783950  0.41909750  0.85274800  1
  S  S68  1  0.09863350  0.30654350  0.56122800  1
  S  S69  1  0.54275800  0.08245100  0.49794500  1
  S  S70  1  0.68733850  0.68863450  0.84800500  1
  S  S71  1  0.31266150  0.68863450  0.65199500  1
  S  S72  1  0.74168250  0.57686150  0.70728200  1
  S  S73  1  0.95724200  0.58245100  0.00205500  1
  S  S74  1  0.81266150  0.81136550  0.15199500  1
  S  S75  1  0.54275800  0.91754900  0.99794500  1
  S  S76  1  0.24168250  0.92313850  0.20728200  1
  S  S77  1  0.50000000  0.70417500  0.25000000  1
  S  S78  1  0.39952600  0.57599900  0.51649100  1
  S  S79  1  0.89952600  0.92400100  0.01649100  1
  S  S80  1  0.76783950  0.58090250  0.35274800  1
  S  S81  1  0.18733850  0.81136550  0.34800500  1
  S  S82  1  0.45724200  0.91754900  0.50205500  1
  S  S83  1  0.25831750  0.57686150  0.79271800  1
  S  S84  1  0.75831750  0.92313850  0.29271800  1
  S  S85  1  0.60047400  0.57599900  0.98350900  1
  S  S86  1  0.23216050  0.58090250  0.14725200  1
  S  S87  1  0.00000000  0.79582500  0.75000000  1
  S  S88  1  0.73216050  0.91909750  0.64725200  1
  S  S89  1  0.90136650  0.69345650  0.43877200  1
  S  S90  1  0.09863350  0.69345650  0.06122800  1
  S  S91  1  0.40136650  0.80654350  0.93877200  1
  S  S92  1  0.10047400  0.92400100  0.48350900  1
  S  S93  1  0.26783950  0.91909750  0.85274800  1
  S  S94  1  0.59863350  0.80654350  0.56122800  1
  S  S95  1  0.04275800  0.58245100  0.49794500  1
