# generated using pymatgen
data_YbPt
_symmetry_space_group_name_H-M   'P 1'
_cell_length_a   4.40595500
_cell_length_b   5.57450900
_cell_length_c   7.14066300
_cell_angle_alpha   90.00000000
_cell_angle_beta   90.00000000
_cell_angle_gamma   90.00000000
_symmetry_Int_Tables_number   1
_chemical_formula_structural   YbPt
_chemical_formula_sum   'Yb4 Pt4'
_cell_volume   175.38207959
_cell_formula_units_Z   4
loop_
 _symmetry_equiv_pos_site_id
 _symmetry_equiv_pos_as_xyz
  1  'x, y, z'
loop_
 _atom_site_type_symbol
 _atom_site_label
 _atom_site_symmetry_multiplicity
 _atom_site_fract_x
 _atom_site_fract_y
 _atom_site_fract_z
 _atom_site_occupancy
  Yb  Yb0  1  0.25000000  0.13910100  0.18402400  1
  Yb  Yb1  1  0.75000000  0.63910100  0.31597600  1
  Yb  Yb2  1  0.75000000  0.86089900  0.81597600  1
  Yb  Yb3  1  0.25000000  0.36089900  0.68402400  1
  Pt  Pt4  1  0.75000000  0.14887300  0.46076900  1
  Pt  Pt5  1  0.25000000  0.85112700  0.53923100  1
  Pt  Pt6  1  0.25000000  0.64887300  0.03923100  1
  Pt  Pt7  1  0.75000000  0.35112700  0.96076900  1
