# generated using pymatgen
data_SeBr
_symmetry_space_group_name_H-M   'P 1'
_cell_length_a   5.36927000
_cell_length_b   7.14740800
_cell_length_c   15.11222500
_cell_angle_alpha   90.00000000
_cell_angle_beta   90.00000000
_cell_angle_gamma   90.00000000
_symmetry_Int_Tables_number   1
_chemical_formula_structural   SeBr
_chemical_formula_sum   'Se8 Br8'
_cell_volume   579.95223766
_cell_formula_units_Z   8
loop_
 _symmetry_equiv_pos_site_id
 _symmetry_equiv_pos_as_xyz
  1  'x, y, z'
loop_
 _atom_site_type_symbol
 _atom_site_label
 _atom_site_symmetry_multiplicity
 _atom_site_fract_x
 _atom_site_fract_y
 _atom_site_fract_z
 _atom_site_occupancy
  Se  Se0  1  0.19418000  0.12056100  0.45127000  1
  Se  Se1  1  0.69418000  0.87943900  0.95127000  1
  Se  Se2  1  0.69418000  0.12056100  0.04873000  1
  Se  Se3  1  0.19418000  0.87943900  0.54873000  1
  Se  Se4  1  0.69418000  0.62056100  0.45127000  1
  Se  Se5  1  0.19418000  0.37943900  0.95127000  1
  Se  Se6  1  0.19418000  0.62056100  0.04873000  1
  Se  Se7  1  0.69418000  0.37943900  0.54873000  1
  Br  Br8  1  0.49322000  0.55945300  0.16483800  1
  Br  Br9  1  0.49322000  0.05945300  0.33516200  1
  Br  Br10  1  0.49322000  0.44054700  0.83516200  1
  Br  Br11  1  0.49322000  0.94054700  0.66483800  1
  Br  Br12  1  0.99322000  0.05945300  0.16483800  1
  Br  Br13  1  0.99322000  0.55945300  0.33516200  1
  Br  Br14  1  0.99322000  0.94054700  0.83516200  1
  Br  Br15  1  0.99322000  0.44054700  0.66483800  1
