# generated using pymatgen
data_Pr3Si2Cl3O7
_symmetry_space_group_name_H-M   'P 1'
_cell_length_a   5.36168800
_cell_length_b   12.21945400
_cell_length_c   7.91486292
_cell_angle_alpha   90.00000000
_cell_angle_beta   108.78353071
_cell_angle_gamma   90.00000000
_symmetry_Int_Tables_number   1
_chemical_formula_structural   Pr3Si2Cl3O7
_chemical_formula_sum   'Pr6 Si4 Cl6 O14'
_cell_volume   490.93988240
_cell_formula_units_Z   2
loop_
 _symmetry_equiv_pos_site_id
 _symmetry_equiv_pos_as_xyz
  1  'x, y, z'
loop_
 _atom_site_type_symbol
 _atom_site_label
 _atom_site_symmetry_multiplicity
 _atom_site_fract_x
 _atom_site_fract_y
 _atom_site_fract_z
 _atom_site_occupancy
  Pr  Pr0  1  0.29423900  0.89753700  0.46937700  1
  Pr  Pr1  1  0.03230400  0.87586300  0.92066100  1
  Pr  Pr2  1  0.96769600  0.37586300  0.07933900  1
  Pr  Pr3  1  0.44694000  0.62180500  0.79725000  1
  Pr  Pr4  1  0.55306000  0.12180500  0.20275000  1
  Pr  Pr5  1  0.70576100  0.39753700  0.53062300  1
  Si  Si6  1  0.61305400  0.82367800  0.18254100  1
  Si  Si7  1  0.21163800  0.21128200  0.43562500  1
  Si  Si8  1  0.38694600  0.32367800  0.81745900  1
  Si  Si9  1  0.78836200  0.71128200  0.56437500  1
  Cl  Cl10  1  0.15512700  0.49475800  0.44283000  1
  Cl  Cl11  1  0.54270100  0.49114100  0.16760200  1
  Cl  Cl12  1  0.01209900  0.11791400  0.99191100  1
  Cl  Cl13  1  0.84487300  0.99475800  0.55717000  1
  Cl  Cl14  1  0.98790100  0.61791400  0.00808900  1
  Cl  Cl15  1  0.45729900  0.99114100  0.83239800  1
  O  O16  1  0.27311800  0.08490300  0.40240600  1
  O  O17  1  0.58016400  0.42707100  0.80343200  1
  O  O18  1  0.09824700  0.74785600  0.62146800  1
  O  O19  1  0.08985600  0.36058200  0.80843800  1
  O  O20  1  0.55982300  0.26204900  0.99915800  1
  O  O21  1  0.34798300  0.28005700  0.30659400  1
  O  O22  1  0.65201700  0.78005700  0.69340600  1
  O  O23  1  0.38344600  0.25152400  0.63886700  1
  O  O24  1  0.90175300  0.24785600  0.37853200  1
  O  O25  1  0.61655400  0.75152400  0.36113300  1
  O  O26  1  0.41983600  0.92707100  0.19656800  1
  O  O27  1  0.91014400  0.86058200  0.19156200  1
  O  O28  1  0.44017700  0.76204900  0.00084200  1
  O  O29  1  0.72688200  0.58490300  0.59759400  1
