# generated using pymatgen
data_Be(BC)2
_symmetry_space_group_name_H-M   'P 1'
_cell_length_a   4.70149600
_cell_length_b   5.43396800
_cell_length_c   6.13303400
_cell_angle_alpha   90.00000000
_cell_angle_beta   90.00000000
_cell_angle_gamma   90.00000000
_symmetry_Int_Tables_number   1
_chemical_formula_structural   Be(BC)2
_chemical_formula_sum   'Be4 B8 C8'
_cell_volume   156.68539610
_cell_formula_units_Z   4
loop_
 _symmetry_equiv_pos_site_id
 _symmetry_equiv_pos_as_xyz
  1  'x, y, z'
loop_
 _atom_site_type_symbol
 _atom_site_label
 _atom_site_symmetry_multiplicity
 _atom_site_fract_x
 _atom_site_fract_y
 _atom_site_fract_z
 _atom_site_occupancy
  Be  Be0  1  0.18362700  0.50000000  0.79668400  1
  Be  Be1  1  0.18362700  0.50000000  0.20331600  1
  Be  Be2  1  0.81637300  0.00000000  0.70331600  1
  Be  Be3  1  0.81637300  0.00000000  0.29668400  1
  B  B4  1  0.47856400  0.00000000  0.50000000  1
  B  B5  1  0.99177200  0.74833100  0.50000000  1
  B  B6  1  0.49928400  0.00000000  0.00000000  1
  B  B7  1  0.52143600  0.50000000  0.00000000  1
  B  B8  1  0.99177200  0.25166900  0.50000000  1
  B  B9  1  0.00822800  0.24833100  0.00000000  1
  B  B10  1  0.50071600  0.50000000  0.50000000  1
  B  B11  1  0.00822800  0.75166900  0.00000000  1
  C  C12  1  0.33982900  0.25682300  0.00000000  1
  C  C13  1  0.33982900  0.74317700  0.00000000  1
  C  C14  1  0.66017100  0.75682300  0.50000000  1
  C  C15  1  0.16600000  0.50000000  0.50000000  1
  C  C16  1  0.83400000  0.00000000  0.00000000  1
  C  C17  1  0.85533100  0.50000000  0.00000000  1
  C  C18  1  0.66017100  0.24317700  0.50000000  1
  C  C19  1  0.14466900  0.00000000  0.50000000  1
