# generated using pymatgen
data_La2GaN3
_symmetry_space_group_name_H-M   'P 1'
_cell_length_a   5.74238800
_cell_length_b   10.97934000
_cell_length_c   12.00902549
_cell_angle_alpha   90.00000000
_cell_angle_beta   93.55438113
_cell_angle_gamma   90.00000000
_symmetry_Int_Tables_number   1
_chemical_formula_structural   La2GaN3
_chemical_formula_sum   'La16 Ga8 N24'
_cell_volume   755.68416777
_cell_formula_units_Z   8
loop_
 _symmetry_equiv_pos_site_id
 _symmetry_equiv_pos_as_xyz
  1  'x, y, z'
loop_
 _atom_site_type_symbol
 _atom_site_label
 _atom_site_symmetry_multiplicity
 _atom_site_fract_x
 _atom_site_fract_y
 _atom_site_fract_z
 _atom_site_occupancy
  La  La0  1  0.76023000  0.79306000  0.15074500  1
  La  La1  1  0.23977000  0.79306000  0.34925500  1
  La  La2  1  0.26181950  0.60577950  0.07474300  1
  La  La3  1  0.73818050  0.60577950  0.42525700  1
  La  La4  1  0.73977000  0.70694000  0.84925500  1
  La  La5  1  0.76181950  0.89422050  0.57474300  1
  La  La6  1  0.26023000  0.70694000  0.65074500  1
  La  La7  1  0.23818050  0.89422050  0.92525700  1
  La  La8  1  0.26023000  0.29306000  0.15074500  1
  La  La9  1  0.73977000  0.29306000  0.34925500  1
  La  La10  1  0.76181950  0.10577950  0.07474300  1
  La  La11  1  0.23818050  0.10577950  0.42525700  1
  La  La12  1  0.23977000  0.20694000  0.84925500  1
  La  La13  1  0.26181950  0.39422050  0.57474300  1
  La  La14  1  0.76023000  0.20694000  0.65074500  1
  La  La15  1  0.73818050  0.39422050  0.92525700  1
  Ga  Ga16  1  0.72984300  0.99833600  0.33754200  1
  Ga  Ga17  1  0.27015700  0.99833600  0.16245800  1
  Ga  Ga18  1  0.22984300  0.50166400  0.83754200  1
  Ga  Ga19  1  0.77015700  0.50166400  0.66245800  1
  Ga  Ga20  1  0.22984300  0.49833600  0.33754200  1
  Ga  Ga21  1  0.77015700  0.49833600  0.16245800  1
  Ga  Ga22  1  0.72984300  0.00166400  0.83754200  1
  Ga  Ga23  1  0.27015700  0.00166400  0.66245800  1
  N  N24  1  0.71860800  0.60053600  0.02701300  1
  N  N25  1  0.50000000  0.50842800  0.75000000  1
  N  N26  1  0.00000000  0.99157200  0.25000000  1
  N  N27  1  0.00000000  0.60043600  0.25000000  1
  N  N28  1  0.50000000  0.89956400  0.75000000  1
  N  N29  1  0.28139200  0.60053600  0.47298700  1
  N  N30  1  0.78139200  0.89946400  0.97298700  1
  N  N31  1  0.82602600  0.67867600  0.62957800  1
  N  N32  1  0.32602600  0.82132400  0.12957800  1
  N  N33  1  0.67397400  0.82132400  0.37042200  1
  N  N34  1  0.21860800  0.89946400  0.52701300  1
  N  N35  1  0.17397400  0.67867600  0.87042200  1
  N  N36  1  0.21860800  0.10053600  0.02701300  1
  N  N37  1  0.00000000  0.00842800  0.75000000  1
  N  N38  1  0.50000000  0.49157200  0.25000000  1
  N  N39  1  0.50000000  0.10043600  0.25000000  1
  N  N40  1  0.00000000  0.39956400  0.75000000  1
  N  N41  1  0.78139200  0.10053600  0.47298700  1
  N  N42  1  0.28139200  0.39946400  0.97298700  1
  N  N43  1  0.32602600  0.17867600  0.62957800  1
  N  N44  1  0.82602600  0.32132400  0.12957800  1
  N  N45  1  0.17397400  0.32132400  0.37042200  1
  N  N46  1  0.71860800  0.39946400  0.52701300  1
  N  N47  1  0.67397400  0.17867600  0.87042200  1
