# generated using pymatgen
data_Ba7Sn3Se13
_symmetry_space_group_name_H-M   'P 1'
_cell_length_a   9.42361900
_cell_length_b   12.91534500
_cell_length_c   25.41887900
_cell_angle_alpha   90.00000000
_cell_angle_beta   90.00000000
_cell_angle_gamma   90.00000000
_symmetry_Int_Tables_number   1
_chemical_formula_structural   Ba7Sn3Se13
_chemical_formula_sum   'Ba28 Sn12 Se52'
_cell_volume   3093.71372925
_cell_formula_units_Z   4
loop_
 _symmetry_equiv_pos_site_id
 _symmetry_equiv_pos_as_xyz
  1  'x, y, z'
loop_
 _atom_site_type_symbol
 _atom_site_label
 _atom_site_symmetry_multiplicity
 _atom_site_fract_x
 _atom_site_fract_y
 _atom_site_fract_z
 _atom_site_occupancy
  Ba  Ba0  1  0.89663500  0.34344700  0.84340600  1
  Ba  Ba1  1  0.91344800  0.02430600  0.15866100  1
  Ba  Ba2  1  0.60336500  0.84344700  0.65659400  1
  Ba  Ba3  1  0.88002100  0.31256800  0.03029000  1
  Ba  Ba4  1  0.10336500  0.65655300  0.15659400  1
  Ba  Ba5  1  0.91344800  0.02430600  0.34133900  1
  Ba  Ba6  1  0.39663500  0.15655300  0.34340600  1
  Ba  Ba7  1  0.58655200  0.52430600  0.34133900  1
  Ba  Ba8  1  0.11997900  0.68743200  0.53029000  1
  Ba  Ba9  1  0.60212200  0.14616900  0.75000000  1
  Ba  Ba10  1  0.39787800  0.85383100  0.25000000  1
  Ba  Ba11  1  0.89663500  0.34344700  0.65659400  1
  Ba  Ba12  1  0.39663500  0.15655300  0.15659400  1
  Ba  Ba13  1  0.10212200  0.35383100  0.25000000  1
  Ba  Ba14  1  0.38002100  0.18743200  0.53029000  1
  Ba  Ba15  1  0.88002100  0.31256800  0.46971000  1
  Ba  Ba16  1  0.08655200  0.97569400  0.84133900  1
  Ba  Ba17  1  0.41344800  0.47569400  0.65866100  1
  Ba  Ba18  1  0.61997900  0.81256800  0.03029000  1
  Ba  Ba19  1  0.61997900  0.81256800  0.46971000  1
  Ba  Ba20  1  0.60336500  0.84344700  0.84340600  1
  Ba  Ba21  1  0.41344800  0.47569400  0.84133900  1
  Ba  Ba22  1  0.11997900  0.68743200  0.96971000  1
  Ba  Ba23  1  0.10336500  0.65655300  0.34340600  1
  Ba  Ba24  1  0.08655200  0.97569400  0.65866100  1
  Ba  Ba25  1  0.89787800  0.64616900  0.75000000  1
  Ba  Ba26  1  0.58655200  0.52430600  0.15866100  1
  Ba  Ba27  1  0.38002100  0.18743200  0.96971000  1
  Sn  Sn28  1  0.80065100  0.04934400  0.94759200  1
  Sn  Sn29  1  0.80065100  0.04934400  0.55240800  1
  Sn  Sn30  1  0.80625100  0.74297900  0.25000000  1
  Sn  Sn31  1  0.19934900  0.95065600  0.44759200  1
  Sn  Sn32  1  0.30065100  0.45065600  0.44759200  1
  Sn  Sn33  1  0.69374900  0.24297900  0.25000000  1
  Sn  Sn34  1  0.19374900  0.25702100  0.75000000  1
  Sn  Sn35  1  0.69934900  0.54934400  0.55240800  1
  Sn  Sn36  1  0.19934900  0.95065600  0.05240800  1
  Sn  Sn37  1  0.69934900  0.54934400  0.94759200  1
  Sn  Sn38  1  0.30625100  0.75702100  0.75000000  1
  Sn  Sn39  1  0.30065100  0.45065600  0.05240800  1
  Se  Se40  1  0.33315300  0.21637000  0.83214800  1
  Se  Se41  1  0.16684700  0.71637000  0.83214800  1
  Se  Se42  1  0.83315300  0.28363000  0.33214800  1
  Se  Se43  1  0.01280300  0.16627700  0.57276200  1
  Se  Se44  1  0.68908300  0.07911500  0.46176000  1
  Se  Se45  1  0.63987600  0.35892000  0.92728100  1
  Se  Se46  1  0.36012400  0.64108000  0.42728100  1
  Se  Se47  1  0.53553700  0.64985100  0.75000000  1
  Se  Se48  1  0.18908300  0.42088500  0.53824000  1
  Se  Se49  1  0.51280300  0.33372300  0.42723800  1
  Se  Se50  1  0.35865100  0.95310100  0.75000000  1
  Se  Se51  1  0.51280300  0.33372300  0.07276200  1
  Se  Se52  1  0.98719700  0.83372300  0.42723800  1
  Se  Se53  1  0.83315300  0.28363000  0.16785200  1
  Se  Se54  1  0.36012400  0.64108000  0.07271900  1
  Se  Se55  1  0.64134900  0.04689900  0.25000000  1
  Se  Se56  1  0.66861600  0.39572900  0.75000000  1
  Se  Se57  1  0.16861600  0.10427100  0.25000000  1
  Se  Se58  1  0.66684700  0.78363000  0.16785200  1
  Se  Se59  1  0.83138400  0.89572900  0.75000000  1
  Se  Se60  1  0.18908300  0.42088500  0.96176000  1
  Se  Se61  1  0.10912000  0.40801600  0.12089200  1
  Se  Se62  1  0.63987600  0.35892000  0.57271900  1
  Se  Se63  1  0.39088000  0.90801600  0.12089200  1
  Se  Se64  1  0.16684700  0.71637000  0.66785200  1
  Se  Se65  1  0.33315300  0.21637000  0.66785200  1
  Se  Se66  1  0.60912000  0.09198400  0.87910800  1
  Se  Se67  1  0.85865100  0.54689900  0.25000000  1
  Se  Se68  1  0.33138400  0.60427100  0.25000000  1
  Se  Se69  1  0.66684700  0.78363000  0.33214800  1
  Se  Se70  1  0.89088000  0.59198400  0.62089200  1
  Se  Se71  1  0.86012400  0.85892000  0.92728100  1
  Se  Se72  1  0.31091700  0.92088500  0.53824000  1
  Se  Se73  1  0.48719700  0.66627700  0.57276200  1
  Se  Se74  1  0.96446300  0.14985100  0.75000000  1
  Se  Se75  1  0.48719700  0.66627700  0.92723800  1
  Se  Se76  1  0.68908300  0.07911500  0.03824000  1
  Se  Se77  1  0.14134900  0.45310100  0.75000000  1
  Se  Se78  1  0.86012400  0.85892000  0.57271900  1
  Se  Se79  1  0.89088000  0.59198400  0.87910800  1
  Se  Se80  1  0.81091700  0.57911500  0.46176000  1
  Se  Se81  1  0.31091700  0.92088500  0.96176000  1
  Se  Se82  1  0.60912000  0.09198400  0.62089200  1
  Se  Se83  1  0.81091700  0.57911500  0.03824000  1
  Se  Se84  1  0.03553700  0.85014900  0.25000000  1
  Se  Se85  1  0.98719700  0.83372300  0.07276200  1
  Se  Se86  1  0.46446300  0.35014900  0.25000000  1
  Se  Se87  1  0.13987600  0.14108000  0.07271900  1
  Se  Se88  1  0.39088000  0.90801600  0.37910800  1
  Se  Se89  1  0.01280300  0.16627700  0.92723800  1
  Se  Se90  1  0.10912000  0.40801600  0.37910800  1
  Se  Se91  1  0.13987600  0.14108000  0.42728100  1
