# generated using pymatgen
data_LaTa3O9
_symmetry_space_group_name_H-M   'P 1'
_cell_length_a   6.62099900
_cell_length_b   7.75428800
_cell_length_c   12.67823500
_cell_angle_alpha   90.00000000
_cell_angle_beta   90.00000000
_cell_angle_gamma   90.00000000
_symmetry_Int_Tables_number   1
_chemical_formula_structural   LaTa3O9
_chemical_formula_sum   'La4 Ta12 O36'
_cell_volume   650.91495053
_cell_formula_units_Z   4
loop_
 _symmetry_equiv_pos_site_id
 _symmetry_equiv_pos_as_xyz
  1  'x, y, z'
loop_
 _atom_site_type_symbol
 _atom_site_label
 _atom_site_symmetry_multiplicity
 _atom_site_fract_x
 _atom_site_fract_y
 _atom_site_fract_z
 _atom_site_occupancy
  La  La0  1  0.05072100  0.25000000  0.47323300  1
  La  La1  1  0.55072100  0.25000000  0.02676700  1
  La  La2  1  0.94927900  0.75000000  0.52676700  1
  La  La3  1  0.44927900  0.75000000  0.97323300  1
  Ta  Ta4  1  0.78329100  0.50206500  0.28453800  1
  Ta  Ta5  1  0.28329100  0.99793500  0.21546200  1
  Ta  Ta6  1  0.21670900  0.00206500  0.71546200  1
  Ta  Ta7  1  0.71670900  0.49793500  0.78453800  1
  Ta  Ta8  1  0.21670900  0.49793500  0.71546200  1
  Ta  Ta9  1  0.71670900  0.00206500  0.78453800  1
  Ta  Ta10  1  0.78329100  0.99793500  0.28453800  1
  Ta  Ta11  1  0.28329100  0.50206500  0.21546200  1
  Ta  Ta12  1  0.00000000  0.50000000  0.00000000  1
  Ta  Ta13  1  0.50000000  0.00000000  0.50000000  1
  Ta  Ta14  1  0.00000000  0.00000000  0.00000000  1
  Ta  Ta15  1  0.50000000  0.50000000  0.50000000  1
  O  O16  1  0.20651700  0.75000000  0.70157000  1
  O  O17  1  0.70651700  0.75000000  0.79843000  1
  O  O18  1  0.79348300  0.25000000  0.29843000  1
  O  O19  1  0.29348300  0.25000000  0.20157000  1
  O  O20  1  0.80982800  0.75000000  0.31805400  1
  O  O21  1  0.30982800  0.75000000  0.18194600  1
  O  O22  1  0.19017200  0.25000000  0.68194600  1
  O  O23  1  0.69017200  0.25000000  0.81805400  1
  O  O24  1  0.56288700  0.75000000  0.51960900  1
  O  O25  1  0.06288700  0.75000000  0.98039100  1
  O  O26  1  0.43711300  0.25000000  0.48039100  1
  O  O27  1  0.93711300  0.25000000  0.01960900  1
  O  O28  1  0.09131700  0.47952200  0.33307900  1
  O  O29  1  0.59131700  0.02047800  0.16692100  1
  O  O30  1  0.90868300  0.97952200  0.66692100  1
  O  O31  1  0.40868300  0.52047800  0.83307900  1
  O  O32  1  0.28586800  0.47312600  0.04183100  1
  O  O33  1  0.78586800  0.02687400  0.45816900  1
  O  O34  1  0.71413200  0.97312600  0.95816900  1
  O  O35  1  0.21413200  0.52687400  0.54183100  1
  O  O36  1  0.71413200  0.52687400  0.95816900  1
  O  O37  1  0.21413200  0.97312600  0.54183100  1
  O  O38  1  0.28586800  0.02687400  0.04183100  1
  O  O39  1  0.78586800  0.47312600  0.45816900  1
  O  O40  1  0.02632600  0.46868300  0.84371900  1
  O  O41  1  0.52632600  0.03131700  0.65628100  1
  O  O42  1  0.97367400  0.96868300  0.15628100  1
  O  O43  1  0.47367400  0.53131700  0.34371900  1
  O  O44  1  0.97367400  0.53131700  0.15628100  1
  O  O45  1  0.47367400  0.96868300  0.34371900  1
  O  O46  1  0.02632600  0.03131700  0.84371900  1
  O  O47  1  0.52632600  0.46868300  0.65628100  1
  O  O48  1  0.59131700  0.47952200  0.16692100  1
  O  O49  1  0.09131700  0.02047800  0.33307900  1
  O  O50  1  0.40868300  0.97952200  0.83307900  1
  O  O51  1  0.90868300  0.52047800  0.66692100  1
