# generated using pymatgen
data_LiAlB2O5
_symmetry_space_group_name_H-M   'P 1'
_cell_length_a   10.06944000
_cell_length_b   10.19483400
_cell_length_c   9.46906120
_cell_angle_alpha   90.00000000
_cell_angle_beta   120.28124125
_cell_angle_gamma   90.00000000
_symmetry_Int_Tables_number   1
_chemical_formula_structural   LiAlB2O5
_chemical_formula_sum   'Li8 Al8 B16 O40'
_cell_volume   839.43150338
_cell_formula_units_Z   8
loop_
 _symmetry_equiv_pos_site_id
 _symmetry_equiv_pos_as_xyz
  1  'x, y, z'
loop_
 _atom_site_type_symbol
 _atom_site_label
 _atom_site_symmetry_multiplicity
 _atom_site_fract_x
 _atom_site_fract_y
 _atom_site_fract_z
 _atom_site_occupancy
  Li  Li0  1  0.50000000  0.12329900  0.75000000  1
  Li  Li1  1  0.50000000  0.87670100  0.25000000  1
  Li  Li2  1  0.50000000  0.33971700  0.25000000  1
  Li  Li3  1  0.50000000  0.66028300  0.75000000  1
  Li  Li4  1  0.00000000  0.62329900  0.75000000  1
  Li  Li5  1  0.00000000  0.37670100  0.25000000  1
  Li  Li6  1  0.00000000  0.83971700  0.25000000  1
  Li  Li7  1  0.00000000  0.16028300  0.75000000  1
  Al  Al8  1  0.80483850  0.15131250  0.34789200  1
  Al  Al9  1  0.19516150  0.84868750  0.65210800  1
  Al  Al10  1  0.19516150  0.15131250  0.15210800  1
  Al  Al11  1  0.80483850  0.84868750  0.84789200  1
  Al  Al12  1  0.30483850  0.65131250  0.34789200  1
  Al  Al13  1  0.69516150  0.34868750  0.65210800  1
  Al  Al14  1  0.69516150  0.65131250  0.15210800  1
  Al  Al15  1  0.30483850  0.34868750  0.84789200  1
  B  B16  1  0.76706300  0.99502700  0.09166900  1
  B  B17  1  0.23293700  0.99502700  0.40833100  1
  B  B18  1  0.43184900  0.82815800  0.97139500  1
  B  B19  1  0.56815100  0.82815800  0.52860500  1
  B  B20  1  0.43184900  0.17184200  0.47139500  1
  B  B21  1  0.56815100  0.17184200  0.02860500  1
  B  B22  1  0.23293700  0.00497300  0.90833100  1
  B  B23  1  0.76706300  0.00497300  0.59166900  1
  B  B24  1  0.26706300  0.49502700  0.09166900  1
  B  B25  1  0.73293700  0.49502700  0.40833100  1
  B  B26  1  0.93184900  0.32815800  0.97139500  1
  B  B27  1  0.06815100  0.32815800  0.52860500  1
  B  B28  1  0.93184900  0.67184200  0.47139500  1
  B  B29  1  0.06815100  0.67184200  0.02860500  1
  B  B30  1  0.73293700  0.50497300  0.90833100  1
  B  B31  1  0.26706300  0.50497300  0.59166900  1
  O  O32  1  0.44369400  0.22474100  0.89432600  1
  O  O33  1  0.18800400  0.89480000  0.47051800  1
  O  O34  1  0.81199600  0.89480000  0.02948200  1
  O  O35  1  0.35978800  0.92612600  0.01766800  1
  O  O36  1  0.37856650  0.79363150  0.81306300  1
  O  O37  1  0.37856650  0.20636850  0.31306300  1
  O  O38  1  0.62143350  0.20636850  0.18693700  1
  O  O39  1  0.18800400  0.10520000  0.97051800  1
  O  O40  1  0.84224100  0.01742900  0.25499900  1
  O  O41  1  0.62143350  0.79363150  0.68693700  1
  O  O42  1  0.44369400  0.77525900  0.39432600  1
  O  O43  1  0.15775900  0.01742900  0.24500100  1
  O  O44  1  0.84224100  0.98257100  0.75499900  1
  O  O45  1  0.64021200  0.92612600  0.48233200  1
  O  O46  1  0.81199600  0.10520000  0.52948200  1
  O  O47  1  0.55630600  0.22474100  0.60567400  1
  O  O48  1  0.35978800  0.07387400  0.51766800  1
  O  O49  1  0.15775900  0.98257100  0.74500100  1
  O  O50  1  0.64021200  0.07387400  0.98233200  1
  O  O51  1  0.55630600  0.77525900  0.10567400  1
  O  O52  1  0.94369400  0.72474100  0.89432600  1
  O  O53  1  0.68800400  0.39480000  0.47051800  1
  O  O54  1  0.31199600  0.39480000  0.02948200  1
  O  O55  1  0.85978800  0.42612600  0.01766800  1
  O  O56  1  0.87856650  0.29363150  0.81306300  1
  O  O57  1  0.87856650  0.70636850  0.31306300  1
  O  O58  1  0.12143350  0.70636850  0.18693700  1
  O  O59  1  0.68800400  0.60520000  0.97051800  1
  O  O60  1  0.34224100  0.51742900  0.25499900  1
  O  O61  1  0.12143350  0.29363150  0.68693700  1
  O  O62  1  0.94369400  0.27525900  0.39432600  1
  O  O63  1  0.65775900  0.51742900  0.24500100  1
  O  O64  1  0.34224100  0.48257100  0.75499900  1
  O  O65  1  0.14021200  0.42612600  0.48233200  1
  O  O66  1  0.31199600  0.60520000  0.52948200  1
  O  O67  1  0.05630600  0.72474100  0.60567400  1
  O  O68  1  0.85978800  0.57387400  0.51766800  1
  O  O69  1  0.65775900  0.48257100  0.74500100  1
  O  O70  1  0.14021200  0.57387400  0.98233200  1
  O  O71  1  0.05630600  0.27525900  0.10567400  1
