# generated using pymatgen
data_Sm2Ti3(BiO6)2
_symmetry_space_group_name_H-M   'P 1'
_cell_length_a   3.82300800
_cell_length_b   3.82300800
_cell_length_c   33.10006000
_cell_angle_alpha   90.00000000
_cell_angle_beta   90.00000000
_cell_angle_gamma   90.00000000
_symmetry_Int_Tables_number   1
_chemical_formula_structural   Sm2Ti3(BiO6)2
_chemical_formula_sum   'Sm4 Ti6 Bi4 O24'
_cell_volume   483.77029149
_cell_formula_units_Z   2
loop_
 _symmetry_equiv_pos_site_id
 _symmetry_equiv_pos_as_xyz
  1  'x, y, z'
loop_
 _atom_site_type_symbol
 _atom_site_label
 _atom_site_symmetry_multiplicity
 _atom_site_fract_x
 _atom_site_fract_y
 _atom_site_fract_z
 _atom_site_occupancy
  Sm  Sm0  1  0.00000000  0.00000000  0.06582400  1
  Sm  Sm1  1  0.50000000  0.50000000  0.43417600  1
  Sm  Sm2  1  0.50000000  0.50000000  0.56582400  1
  Sm  Sm3  1  0.00000000  0.00000000  0.93417600  1
  Ti  Ti4  1  0.00000000  0.00000000  0.37299100  1
  Ti  Ti5  1  0.50000000  0.50000000  0.00000000  1
  Ti  Ti6  1  0.50000000  0.50000000  0.12700900  1
  Ti  Ti7  1  0.50000000  0.50000000  0.87299100  1
  Ti  Ti8  1  0.00000000  0.00000000  0.50000000  1
  Ti  Ti9  1  0.00000000  0.00000000  0.62700900  1
  Bi  Bi10  1  0.00000000  0.00000000  0.21096600  1
  Bi  Bi11  1  0.50000000  0.50000000  0.28903400  1
  Bi  Bi12  1  0.50000000  0.50000000  0.71096600  1
  Bi  Bi13  1  0.00000000  0.00000000  0.78903400  1
  O  O14  1  0.50000000  0.50000000  0.18115000  1
  O  O15  1  0.00000000  0.50000000  0.11349200  1
  O  O16  1  0.00000000  0.50000000  0.25000000  1
  O  O17  1  0.50000000  0.00000000  0.25000000  1
  O  O18  1  0.00000000  0.50000000  0.00000000  1
  O  O19  1  0.50000000  0.00000000  0.11349200  1
  O  O20  1  0.50000000  0.00000000  0.38650800  1
  O  O21  1  0.00000000  0.50000000  0.38650800  1
  O  O22  1  0.00000000  0.00000000  0.31885000  1
  O  O23  1  0.50000000  0.50000000  0.05863400  1
  O  O24  1  0.00000000  0.00000000  0.44136600  1
  O  O25  1  0.50000000  0.00000000  0.00000000  1
  O  O26  1  0.00000000  0.00000000  0.68115000  1
  O  O27  1  0.50000000  0.00000000  0.61349200  1
  O  O28  1  0.50000000  0.00000000  0.75000000  1
  O  O29  1  0.00000000  0.50000000  0.75000000  1
  O  O30  1  0.50000000  0.00000000  0.50000000  1
  O  O31  1  0.00000000  0.50000000  0.61349200  1
  O  O32  1  0.00000000  0.50000000  0.88650800  1
  O  O33  1  0.50000000  0.00000000  0.88650800  1
  O  O34  1  0.50000000  0.50000000  0.81885000  1
  O  O35  1  0.00000000  0.00000000  0.55863400  1
  O  O36  1  0.50000000  0.50000000  0.94136600  1
  O  O37  1  0.00000000  0.50000000  0.50000000  1
