# generated using pymatgen
data_CsSbS6(O3F)6
_symmetry_space_group_name_H-M   'P 1'
_cell_length_a   12.32186355
_cell_length_b   12.32186355
_cell_length_c   12.30973297
_cell_angle_alpha   90.00000000
_cell_angle_beta   90.00000000
_cell_angle_gamma   120.00000000
_symmetry_Int_Tables_number   1
_chemical_formula_structural   CsSbS6(O3F)6
_chemical_formula_sum   'Cs3 Sb3 S18 O54 F18'
_cell_volume   1618.57211466
_cell_formula_units_Z   3
loop_
 _symmetry_equiv_pos_site_id
 _symmetry_equiv_pos_as_xyz
  1  'x, y, z'
loop_
 _atom_site_type_symbol
 _atom_site_label
 _atom_site_symmetry_multiplicity
 _atom_site_fract_x
 _atom_site_fract_y
 _atom_site_fract_z
 _atom_site_occupancy
  Cs  Cs0  1  0.00000000  0.00000000  0.00000000  1
  Cs  Cs1  1  0.66666667  0.33333333  0.33333333  1
  Cs  Cs2  1  0.33333333  0.66666667  0.66666667  1
  Sb  Sb3  1  0.00000000  0.00000000  0.50000000  1
  Sb  Sb4  1  0.66666667  0.33333333  0.83333333  1
  Sb  Sb5  1  0.33333333  0.66666667  0.16666667  1
  S  S6  1  0.06503467  0.23221133  0.67195033  1
  S  S7  1  0.83282333  0.06503467  0.32804967  1
  S  S8  1  0.16717667  0.93496533  0.67195033  1
  S  S9  1  0.23221133  0.16717667  0.32804967  1
  S  S10  1  0.93496533  0.76778867  0.32804967  1
  S  S11  1  0.76778867  0.83282333  0.67195033  1
  S  S12  1  0.73170133  0.56554467  0.00528367  1
  S  S13  1  0.49949000  0.39836800  0.66138300  1
  S  S14  1  0.83384333  0.26829867  0.00528367  1
  S  S15  1  0.89887800  0.50051000  0.66138300  1
  S  S16  1  0.60163200  0.10112200  0.66138300  1
  S  S17  1  0.43445533  0.16615667  0.00528367  1
  S  S18  1  0.39836800  0.89887800  0.33861700  1
  S  S19  1  0.16615667  0.73170133  0.99471633  1
  S  S20  1  0.50051000  0.60163200  0.33861700  1
  S  S21  1  0.56554467  0.83384333  0.99471633  1
  S  S22  1  0.26829867  0.43445533  0.99471633  1
  S  S23  1  0.10112200  0.49949000  0.33861700  1
  O  O24  1  0.05961133  0.90134367  0.58800367  1
  O  O25  1  0.15826767  0.05961133  0.41199633  1
  O  O26  1  0.18489067  0.82946233  0.67790933  1
  O  O27  1  0.00499433  0.15976567  0.76616867  1
  O  O28  1  0.15477133  0.99500567  0.76616867  1
  O  O29  1  0.84173233  0.94038867  0.58800367  1
  O  O30  1  0.99500567  0.84023433  0.23383133  1
  O  O31  1  0.81510933  0.17053767  0.32209067  1
  O  O32  1  0.94038867  0.09865633  0.41199633  1
  O  O33  1  0.17053767  0.35542833  0.67790933  1
  O  O34  1  0.64457167  0.81510933  0.67790933  1
  O  O35  1  0.09865633  0.15826767  0.58800367  1
  O  O36  1  0.84023433  0.84522867  0.76616867  1
  O  O37  1  0.15976567  0.15477133  0.23383133  1
  O  O38  1  0.35542833  0.18489067  0.32209067  1
  O  O39  1  0.84522867  0.00499433  0.23383133  1
  O  O40  1  0.82946233  0.64457167  0.32209067  1
  O  O41  1  0.90134367  0.84173233  0.41199633  1
  O  O42  1  0.72627800  0.23467700  0.92133700  1
  O  O43  1  0.82493433  0.39294467  0.74532967  1
  O  O44  1  0.85155733  0.16279567  0.01124267  1
  O  O45  1  0.67166100  0.49309900  0.09950200  1
  O  O46  1  0.82143800  0.32833900  0.09950200  1
  O  O47  1  0.50839900  0.27372200  0.92133700  1
  O  O48  1  0.66167233  0.17356767  0.56716467  1
  O  O49  1  0.48177600  0.50387100  0.65542400  1
  O  O50  1  0.60705533  0.43198967  0.74532967  1
  O  O51  1  0.83720433  0.68876167  0.01124267  1
  O  O52  1  0.31123833  0.14844267  0.01124267  1
  O  O53  1  0.76532300  0.49160100  0.92133700  1
  O  O54  1  0.50690100  0.17856200  0.09950200  1
  O  O55  1  0.82643233  0.48810467  0.56716467  1
  O  O56  1  0.02209500  0.51822400  0.65542400  1
  O  O57  1  0.51189533  0.33832767  0.56716467  1
  O  O58  1  0.49612900  0.97790500  0.65542400  1
  O  O59  1  0.56801033  0.17506567  0.74532967  1
  O  O60  1  0.39294467  0.56801033  0.25467033  1
  O  O61  1  0.49160100  0.72627800  0.07866300  1
  O  O62  1  0.51822400  0.49612900  0.34457600  1
  O  O63  1  0.33832767  0.82643233  0.43283533  1
  O  O64  1  0.48810467  0.66167233  0.43283533  1
  O  O65  1  0.17506567  0.60705533  0.25467033  1
  O  O66  1  0.32833900  0.50690100  0.90049800  1
  O  O67  1  0.14844267  0.83720433  0.98875733  1
  O  O68  1  0.27372200  0.76532300  0.07866300  1
  O  O69  1  0.50387100  0.02209500  0.34457600  1
  O  O70  1  0.97790500  0.48177600  0.34457600  1
  O  O71  1  0.43198967  0.82493433  0.25467033  1
  O  O72  1  0.17356767  0.51189533  0.43283533  1
  O  O73  1  0.49309900  0.82143800  0.90049800  1
  O  O74  1  0.68876167  0.85155733  0.98875733  1
  O  O75  1  0.17856200  0.67166100  0.90049800  1
  O  O76  1  0.16279567  0.31123833  0.98875733  1
  O  O77  1  0.23467700  0.50839900  0.07866300  1
  F  F78  1  0.04047333  0.75757767  0.39420067  1
  F  F79  1  0.75757767  0.71710433  0.60579933  1
  F  F80  1  0.28289567  0.04047333  0.60579933  1
  F  F81  1  0.24242233  0.28289567  0.39420067  1
  F  F82  1  0.95952667  0.24242233  0.60579933  1
  F  F83  1  0.71710433  0.95952667  0.39420067  1
  F  F84  1  0.70714000  0.09091100  0.72753400  1
  F  F85  1  0.42424433  0.05043767  0.93913267  1
  F  F86  1  0.94956233  0.37380667  0.93913267  1
  F  F87  1  0.90908900  0.61622900  0.72753400  1
  F  F88  1  0.62619333  0.57575567  0.93913267  1
  F  F89  1  0.38377100  0.29286000  0.72753400  1
  F  F90  1  0.37380667  0.42424433  0.06086733  1
  F  F91  1  0.09091100  0.38377100  0.27246600  1
  F  F92  1  0.61622900  0.70714000  0.27246600  1
  F  F93  1  0.57575567  0.94956233  0.06086733  1
  F  F94  1  0.29286000  0.90908900  0.27246600  1
  F  F95  1  0.05043767  0.62619333  0.06086733  1
