# generated using pymatgen
data_KCa4(BO3)3
_symmetry_space_group_name_H-M   'P 1'
_cell_length_a   6.56838800
_cell_length_b   11.65571400
_cell_length_c   10.72920800
_cell_angle_alpha   90.00000000
_cell_angle_beta   90.00000000
_cell_angle_gamma   90.00000000
_symmetry_Int_Tables_number   1
_chemical_formula_structural   KCa4(BO3)3
_chemical_formula_sum   'K4 Ca16 B12 O36'
_cell_volume   821.42013870
_cell_formula_units_Z   4
loop_
 _symmetry_equiv_pos_site_id
 _symmetry_equiv_pos_as_xyz
  1  'x, y, z'
loop_
 _atom_site_type_symbol
 _atom_site_label
 _atom_site_symmetry_multiplicity
 _atom_site_fract_x
 _atom_site_fract_y
 _atom_site_fract_z
 _atom_site_occupancy
  K  K0  1  0.81369000  0.08029900  0.75000000  1
  K  K1  1  0.31369000  0.41970100  0.25000000  1
  K  K2  1  0.31369000  0.58029900  0.75000000  1
  K  K3  1  0.81369000  0.91970100  0.25000000  1
  Ca  Ca4  1  0.28105100  0.00000000  0.00000000  1
  Ca  Ca5  1  0.92126150  0.21316050  0.47048700  1
  Ca  Ca6  1  0.55171850  0.15244850  0.25000000  1
  Ca  Ca7  1  0.42126150  0.28683950  0.52951300  1
  Ca  Ca8  1  0.42126150  0.28683950  0.97048700  1
  Ca  Ca9  1  0.05171850  0.34755150  0.75000000  1
  Ca  Ca10  1  0.28105100  0.00000000  0.50000000  1
  Ca  Ca11  1  0.92126150  0.21316050  0.02951300  1
  Ca  Ca12  1  0.78105100  0.50000000  0.00000000  1
  Ca  Ca13  1  0.42126150  0.71316050  0.47048700  1
  Ca  Ca14  1  0.05171850  0.65244850  0.25000000  1
  Ca  Ca15  1  0.92126150  0.78683950  0.52951300  1
  Ca  Ca16  1  0.92126150  0.78683950  0.97048700  1
  Ca  Ca17  1  0.55171850  0.84755150  0.75000000  1
  Ca  Ca18  1  0.78105100  0.50000000  0.50000000  1
  Ca  Ca19  1  0.42126150  0.71316050  0.02951300  1
  B  B20  1  0.63045500  0.32513700  0.75000000  1
  B  B21  1  0.25599650  0.12194650  0.75000000  1
  B  B22  1  0.70878100  0.00000000  0.00000000  1
  B  B23  1  0.70878100  0.00000000  0.50000000  1
  B  B24  1  0.13045500  0.17486300  0.25000000  1
  B  B25  1  0.75599650  0.37805350  0.25000000  1
  B  B26  1  0.13045500  0.82513700  0.75000000  1
  B  B27  1  0.75599650  0.62194650  0.75000000  1
  B  B28  1  0.20878100  0.50000000  0.00000000  1
  B  B29  1  0.20878100  0.50000000  0.50000000  1
  B  B30  1  0.63045500  0.67486300  0.25000000  1
  B  B31  1  0.25599650  0.87805350  0.25000000  1
  O  O32  1  0.67682000  0.33344800  0.36222800  1
  O  O33  1  0.89566350  0.46534950  0.25000000  1
  O  O34  1  0.10332350  0.39946950  0.52828000  1
  O  O35  1  0.91866300  0.00000000  0.00000000  1
  O  O36  1  0.10332350  0.39946950  0.97172000  1
  O  O37  1  0.23584850  0.19278750  0.36179000  1
  O  O38  1  0.60332350  0.10053050  0.02828000  1
  O  O39  1  0.92627600  0.14878500  0.25000000  1
  O  O40  1  0.73584850  0.30721250  0.63821000  1
  O  O41  1  0.23584850  0.19278750  0.13821000  1
  O  O42  1  0.17682000  0.16655200  0.63777200  1
  O  O43  1  0.17682000  0.16655200  0.86222800  1
  O  O44  1  0.73584850  0.30721250  0.86179000  1
  O  O45  1  0.39566350  0.03465050  0.75000000  1
  O  O46  1  0.60332350  0.10053050  0.47172000  1
  O  O47  1  0.91866300  0.00000000  0.50000000  1
  O  O48  1  0.67682000  0.33344800  0.13777200  1
  O  O49  1  0.42627600  0.35121500  0.75000000  1
  O  O50  1  0.17682000  0.83344800  0.36222800  1
  O  O51  1  0.39566350  0.96534950  0.25000000  1
  O  O52  1  0.60332350  0.89946950  0.52828000  1
  O  O53  1  0.41866300  0.50000000  0.00000000  1
  O  O54  1  0.60332350  0.89946950  0.97172000  1
  O  O55  1  0.73584850  0.69278750  0.36179000  1
  O  O56  1  0.10332350  0.60053050  0.02828000  1
  O  O57  1  0.42627600  0.64878500  0.25000000  1
  O  O58  1  0.23584850  0.80721250  0.63821000  1
  O  O59  1  0.73584850  0.69278750  0.13821000  1
  O  O60  1  0.67682000  0.66655200  0.63777200  1
  O  O61  1  0.67682000  0.66655200  0.86222800  1
  O  O62  1  0.23584850  0.80721250  0.86179000  1
  O  O63  1  0.89566350  0.53465050  0.75000000  1
  O  O64  1  0.10332350  0.60053050  0.47172000  1
  O  O65  1  0.41866300  0.50000000  0.50000000  1
  O  O66  1  0.17682000  0.83344800  0.13777200  1
  O  O67  1  0.92627600  0.85121500  0.75000000  1
