# generated using pymatgen
data_Li3Zn2SbO6
_symmetry_space_group_name_H-M   'P 1'
_cell_length_a   5.31978400
_cell_length_b   9.17070800
_cell_length_c   5.27085166
_cell_angle_alpha   90.00000000
_cell_angle_beta   110.29446747
_cell_angle_gamma   90.00000000
_symmetry_Int_Tables_number   1
_chemical_formula_structural   Li3Zn2SbO6
_chemical_formula_sum   'Li6 Zn4 Sb2 O12'
_cell_volume   241.18182687
_cell_formula_units_Z   2
loop_
 _symmetry_equiv_pos_site_id
 _symmetry_equiv_pos_as_xyz
  1  'x, y, z'
loop_
 _atom_site_type_symbol
 _atom_site_label
 _atom_site_symmetry_multiplicity
 _atom_site_fract_x
 _atom_site_fract_y
 _atom_site_fract_z
 _atom_site_occupancy
  Li  Li0  1  0.50000000  0.32989900  0.50000000  1
  Li  Li1  1  0.50000000  0.67010100  0.50000000  1
  Li  Li2  1  0.50000000  0.00000000  0.50000000  1
  Li  Li3  1  0.00000000  0.82989900  0.50000000  1
  Li  Li4  1  0.00000000  0.17010100  0.50000000  1
  Li  Li5  1  0.00000000  0.50000000  0.50000000  1
  Zn  Zn6  1  0.50000000  0.16659600  0.00000000  1
  Zn  Zn7  1  0.50000000  0.83340400  0.00000000  1
  Zn  Zn8  1  0.00000000  0.66659600  0.00000000  1
  Zn  Zn9  1  0.00000000  0.33340400  0.00000000  1
  Sb  Sb10  1  0.00000000  0.00000000  0.00000000  1
  Sb  Sb11  1  0.50000000  0.50000000  0.00000000  1
  O  O12  1  0.76438150  0.84308950  0.76441600  1
  O  O13  1  0.76473000  0.00000000  0.22851600  1
  O  O14  1  0.23561850  0.15691050  0.23558400  1
  O  O15  1  0.76438150  0.15691050  0.76441600  1
  O  O16  1  0.23527000  0.00000000  0.77148400  1
  O  O17  1  0.23561850  0.84308950  0.23558400  1
  O  O18  1  0.26438150  0.34308950  0.76441600  1
  O  O19  1  0.26473000  0.50000000  0.22851600  1
  O  O20  1  0.73561850  0.65691050  0.23558400  1
  O  O21  1  0.26438150  0.65691050  0.76441600  1
  O  O22  1  0.73527000  0.50000000  0.77148400  1
  O  O23  1  0.73561850  0.34308950  0.23558400  1
