# generated using pymatgen
data_K3Nd(AsS4)2
_symmetry_space_group_name_H-M   'P 1'
_cell_length_a   10.62529000
_cell_length_b   19.36330600
_cell_length_c   9.10152070
_cell_angle_alpha   90.00000000
_cell_angle_beta   117.64797041
_cell_angle_gamma   90.00000000
_symmetry_Int_Tables_number   1
_chemical_formula_structural   K3Nd(AsS4)2
_chemical_formula_sum   'K12 Nd4 As8 S32'
_cell_volume   1658.73679163
_cell_formula_units_Z   4
loop_
 _symmetry_equiv_pos_site_id
 _symmetry_equiv_pos_as_xyz
  1  'x, y, z'
loop_
 _atom_site_type_symbol
 _atom_site_label
 _atom_site_symmetry_multiplicity
 _atom_site_fract_x
 _atom_site_fract_y
 _atom_site_fract_z
 _atom_site_occupancy
  K  K0  1  0.50000000  0.49645400  0.75000000  1
  K  K1  1  0.00000000  0.00354600  0.25000000  1
  K  K2  1  0.50000000  0.24184700  0.75000000  1
  K  K3  1  0.50000000  0.00000000  0.00000000  1
  K  K4  1  0.00000000  0.25815300  0.25000000  1
  K  K5  1  0.50000000  0.00000000  0.50000000  1
  K  K6  1  0.00000000  0.99645400  0.75000000  1
  K  K7  1  0.50000000  0.50354600  0.25000000  1
  K  K8  1  0.00000000  0.74184700  0.75000000  1
  K  K9  1  0.00000000  0.50000000  0.00000000  1
  K  K10  1  0.50000000  0.75815300  0.25000000  1
  K  K11  1  0.00000000  0.50000000  0.50000000  1
  Nd  Nd12  1  0.50000000  0.25728100  0.25000000  1
  Nd  Nd13  1  0.00000000  0.24271900  0.75000000  1
  Nd  Nd14  1  0.00000000  0.75728100  0.25000000  1
  Nd  Nd15  1  0.50000000  0.74271900  0.75000000  1
  As  As16  1  0.28161950  0.37577250  0.89572000  1
  As  As17  1  0.21838050  0.12422750  0.10428000  1
  As  As18  1  0.78161950  0.12422750  0.39572000  1
  As  As19  1  0.71838050  0.37577250  0.60428000  1
  As  As20  1  0.78161950  0.87577250  0.89572000  1
  As  As21  1  0.71838050  0.62422750  0.10428000  1
  As  As22  1  0.28161950  0.62422750  0.39572000  1
  As  As23  1  0.21838050  0.87577250  0.60428000  1
  S  S24  1  0.98834050  0.14413450  0.98106400  1
  S  S25  1  0.75358650  0.48577850  0.62919400  1
  S  S26  1  0.18327100  0.32210200  0.65525800  1
  S  S27  1  0.68327100  0.17789800  0.15525800  1
  S  S28  1  0.79806750  0.32806150  0.44373600  1
  S  S29  1  0.24641350  0.48577850  0.87080600  1
  S  S30  1  0.31672900  0.17789800  0.34474200  1
  S  S31  1  0.70193250  0.17193850  0.55626400  1
  S  S32  1  0.48834050  0.35586550  0.48106400  1
  S  S33  1  0.20193250  0.32806150  0.05626400  1
  S  S34  1  0.29806750  0.17193850  0.94373600  1
  S  S35  1  0.74641350  0.01422150  0.37080600  1
  S  S36  1  0.81672900  0.32210200  0.84474200  1
  S  S37  1  0.51165950  0.35586550  0.01893600  1
  S  S38  1  0.01165950  0.14413450  0.51893600  1
  S  S39  1  0.25358650  0.01422150  0.12919400  1
  S  S40  1  0.48834050  0.64413450  0.98106400  1
  S  S41  1  0.25358650  0.98577850  0.62919400  1
  S  S42  1  0.68327100  0.82210200  0.65525800  1
  S  S43  1  0.18327100  0.67789800  0.15525800  1
  S  S44  1  0.29806750  0.82806150  0.44373600  1
  S  S45  1  0.74641350  0.98577850  0.87080600  1
  S  S46  1  0.81672900  0.67789800  0.34474200  1
  S  S47  1  0.20193250  0.67193850  0.55626400  1
  S  S48  1  0.98834050  0.85586550  0.48106400  1
  S  S49  1  0.70193250  0.82806150  0.05626400  1
  S  S50  1  0.79806750  0.67193850  0.94373600  1
  S  S51  1  0.24641350  0.51422150  0.37080600  1
  S  S52  1  0.31672900  0.82210200  0.84474200  1
  S  S53  1  0.01165950  0.85586550  0.01893600  1
  S  S54  1  0.51165950  0.64413450  0.51893600  1
  S  S55  1  0.75358650  0.51422150  0.12919400  1
