# generated using pymatgen
data_Na2SbSO4F3
_symmetry_space_group_name_H-M   'P 1'
_cell_length_a   7.32537200
_cell_length_b   15.26466600
_cell_length_c   11.25367300
_cell_angle_alpha   90.00000000
_cell_angle_beta   90.00000000
_cell_angle_gamma   90.00000000
_symmetry_Int_Tables_number   1
_chemical_formula_structural   Na2SbSO4F3
_chemical_formula_sum   'Na16 Sb8 S8 O32 F24'
_cell_volume   1258.37847769
_cell_formula_units_Z   8
loop_
 _symmetry_equiv_pos_site_id
 _symmetry_equiv_pos_as_xyz
  1  'x, y, z'
loop_
 _atom_site_type_symbol
 _atom_site_label
 _atom_site_symmetry_multiplicity
 _atom_site_fract_x
 _atom_site_fract_y
 _atom_site_fract_z
 _atom_site_occupancy
  Na  Na0  1  0.78021600  0.25000000  0.25000000  1
  Na  Na1  1  0.00000000  0.38197000  0.00000000  1
  Na  Na2  1  0.71978400  0.25000000  0.75000000  1
  Na  Na3  1  0.50000000  0.11803000  0.00000000  1
  Na  Na4  1  0.50000000  0.38197000  0.50000000  1
  Na  Na5  1  0.21978400  0.25000000  0.75000000  1
  Na  Na6  1  0.28021600  0.25000000  0.25000000  1
  Na  Na7  1  0.00000000  0.11803000  0.50000000  1
  Na  Na8  1  0.28021600  0.75000000  0.25000000  1
  Na  Na9  1  0.50000000  0.88197000  0.00000000  1
  Na  Na10  1  0.21978400  0.75000000  0.75000000  1
  Na  Na11  1  0.00000000  0.61803000  0.00000000  1
  Na  Na12  1  0.00000000  0.88197000  0.50000000  1
  Na  Na13  1  0.71978400  0.75000000  0.75000000  1
  Na  Na14  1  0.78021600  0.75000000  0.25000000  1
  Na  Na15  1  0.50000000  0.61803000  0.50000000  1
  Sb  Sb16  1  0.88745900  0.00000000  0.16283900  1
  Sb  Sb17  1  0.61254100  0.00000000  0.66283900  1
  Sb  Sb18  1  0.11254100  0.00000000  0.83716100  1
  Sb  Sb19  1  0.38745900  0.00000000  0.33716100  1
  Sb  Sb20  1  0.38745900  0.50000000  0.16283900  1
  Sb  Sb21  1  0.11254100  0.50000000  0.66283900  1
  Sb  Sb22  1  0.61254100  0.50000000  0.83716100  1
  Sb  Sb23  1  0.88745900  0.50000000  0.33716100  1
  S  S24  1  0.50000000  0.18292600  0.50000000  1
  S  S25  1  0.00000000  0.18292600  0.00000000  1
  S  S26  1  0.00000000  0.31707400  0.50000000  1
  S  S27  1  0.50000000  0.31707400  0.00000000  1
  S  S28  1  0.00000000  0.68292600  0.50000000  1
  S  S29  1  0.50000000  0.68292600  0.00000000  1
  S  S30  1  0.50000000  0.81707400  0.50000000  1
  S  S31  1  0.00000000  0.81707400  0.00000000  1
  O  O32  1  0.96548100  0.23895100  0.89440400  1
  O  O33  1  0.46548100  0.26104900  0.89440400  1
  O  O34  1  0.16187900  0.12478200  0.97649600  1
  O  O35  1  0.83812100  0.37521800  0.47649600  1
  O  O36  1  0.53451900  0.23895100  0.39440400  1
  O  O37  1  0.03451900  0.23895100  0.10559600  1
  O  O38  1  0.03451900  0.26104900  0.39440400  1
  O  O39  1  0.46548100  0.23895100  0.60559600  1
  O  O40  1  0.33812100  0.12478200  0.47649600  1
  O  O41  1  0.33812100  0.37521800  0.02350400  1
  O  O42  1  0.66187900  0.37521800  0.97649600  1
  O  O43  1  0.96548100  0.26104900  0.60559600  1
  O  O44  1  0.66187900  0.12478200  0.52350400  1
  O  O45  1  0.16187900  0.37521800  0.52350400  1
  O  O46  1  0.53451900  0.26104900  0.10559600  1
  O  O47  1  0.83812100  0.12478200  0.02350400  1
  O  O48  1  0.46548100  0.73895100  0.89440400  1
  O  O49  1  0.96548100  0.76104900  0.89440400  1
  O  O50  1  0.66187900  0.62478200  0.97649600  1
  O  O51  1  0.33812100  0.87521800  0.47649600  1
  O  O52  1  0.03451900  0.73895100  0.39440400  1
  O  O53  1  0.53451900  0.73895100  0.10559600  1
  O  O54  1  0.53451900  0.76104900  0.39440400  1
  O  O55  1  0.96548100  0.73895100  0.60559600  1
  O  O56  1  0.83812100  0.62478200  0.47649600  1
  O  O57  1  0.83812100  0.87521800  0.02350400  1
  O  O58  1  0.16187900  0.87521800  0.97649600  1
  O  O59  1  0.46548100  0.76104900  0.60559600  1
  O  O60  1  0.16187900  0.62478200  0.52350400  1
  O  O61  1  0.66187900  0.87521800  0.52350400  1
  O  O62  1  0.03451900  0.76104900  0.10559600  1
  O  O63  1  0.33812100  0.62478200  0.02350400  1
  F  F64  1  0.68779000  0.40808600  0.71922600  1
  F  F65  1  0.62309900  0.00000000  0.11605900  1
  F  F66  1  0.31221000  0.40808600  0.28077400  1
  F  F67  1  0.12309900  0.00000000  0.38394100  1
  F  F68  1  0.68779000  0.09191400  0.78077400  1
  F  F69  1  0.37690100  0.00000000  0.88394100  1
  F  F70  1  0.18779000  0.09191400  0.71922600  1
  F  F71  1  0.81221000  0.40808600  0.21922600  1
  F  F72  1  0.18779000  0.40808600  0.78077400  1
  F  F73  1  0.87690100  0.00000000  0.61605900  1
  F  F74  1  0.81221000  0.09191400  0.28077400  1
  F  F75  1  0.31221000  0.09191400  0.21922600  1
  F  F76  1  0.18779000  0.90808600  0.71922600  1
  F  F77  1  0.12309900  0.50000000  0.11605900  1
  F  F78  1  0.81221000  0.90808600  0.28077400  1
  F  F79  1  0.62309900  0.50000000  0.38394100  1
  F  F80  1  0.18779000  0.59191400  0.78077400  1
  F  F81  1  0.87690100  0.50000000  0.88394100  1
  F  F82  1  0.68779000  0.59191400  0.71922600  1
  F  F83  1  0.31221000  0.90808600  0.21922600  1
  F  F84  1  0.68779000  0.90808600  0.78077400  1
  F  F85  1  0.37690100  0.50000000  0.61605900  1
  F  F86  1  0.31221000  0.59191400  0.28077400  1
  F  F87  1  0.81221000  0.59191400  0.21922600  1
