# generated using pymatgen
data_RbSb2
_symmetry_space_group_name_H-M   'P 1'
_cell_length_a   14.19749600
_cell_length_b   4.23863200
_cell_length_c   8.72431741
_cell_angle_alpha   90.00000000
_cell_angle_beta   104.14017344
_cell_angle_gamma   90.00000000
_symmetry_Int_Tables_number   1
_chemical_formula_structural   RbSb2
_chemical_formula_sum   'Rb4 Sb8'
_cell_volume   509.10428518
_cell_formula_units_Z   4
loop_
 _symmetry_equiv_pos_site_id
 _symmetry_equiv_pos_as_xyz
  1  'x, y, z'
loop_
 _atom_site_type_symbol
 _atom_site_label
 _atom_site_symmetry_multiplicity
 _atom_site_fract_x
 _atom_site_fract_y
 _atom_site_fract_z
 _atom_site_occupancy
  Rb  Rb0  1  0.66470900  0.50000000  0.69777300  1
  Rb  Rb1  1  0.83529100  0.00000000  0.30222700  1
  Rb  Rb2  1  0.16470900  0.00000000  0.69777300  1
  Rb  Rb3  1  0.33529100  0.50000000  0.30222700  1
  Sb  Sb4  1  0.93471100  0.50000000  0.68635700  1
  Sb  Sb5  1  0.59523300  0.50000000  0.10750500  1
  Sb  Sb6  1  0.90476700  0.00000000  0.89249500  1
  Sb  Sb7  1  0.56528900  0.00000000  0.31364300  1
  Sb  Sb8  1  0.43471100  0.00000000  0.68635700  1
  Sb  Sb9  1  0.09523300  0.00000000  0.10750500  1
  Sb  Sb10  1  0.40476700  0.50000000  0.89249500  1
  Sb  Sb11  1  0.06528900  0.50000000  0.31364300  1
