# generated using pymatgen
data_Pr10S14O
_symmetry_space_group_name_H-M   'P 1'
_cell_length_a   15.26185000
_cell_length_b   15.26185000
_cell_length_c   20.22782000
_cell_angle_alpha   90.00000000
_cell_angle_beta   90.00000000
_cell_angle_gamma   90.00000000
_symmetry_Int_Tables_number   1
_chemical_formula_structural   Pr10S14O
_chemical_formula_sum   'Pr80 S112 O8'
_cell_volume   4711.54606903
_cell_formula_units_Z   8
loop_
 _symmetry_equiv_pos_site_id
 _symmetry_equiv_pos_as_xyz
  1  'x, y, z'
loop_
 _atom_site_type_symbol
 _atom_site_label
 _atom_site_symmetry_multiplicity
 _atom_site_fract_x
 _atom_site_fract_y
 _atom_site_fract_z
 _atom_site_occupancy
  Pr  Pr0  1  0.86525850  0.13474150  0.25000000  1
  Pr  Pr1  1  0.49368600  0.36758100  0.43270800  1
  Pr  Pr2  1  0.13474150  0.13474150  0.75000000  1
  Pr  Pr3  1  0.50631400  0.36758100  0.93270800  1
  Pr  Pr4  1  0.27746800  0.12791200  0.92168400  1
  Pr  Pr5  1  0.13241900  0.00631400  0.56729200  1
  Pr  Pr6  1  0.00631400  0.63241900  0.31729200  1
  Pr  Pr7  1  0.72253200  0.37208800  0.32831600  1
  Pr  Pr8  1  0.27746800  0.37208800  0.82831600  1
  Pr  Pr9  1  0.36758100  0.99368600  0.18270800  1
  Pr  Pr10  1  0.13474150  0.86525850  0.25000000  1
  Pr  Pr11  1  0.36758100  0.49368600  0.06729200  1
  Pr  Pr12  1  0.87208800  0.77746800  0.17168400  1
  Pr  Pr13  1  0.13241900  0.49368600  0.18270800  1
  Pr  Pr14  1  0.50631400  0.86758100  0.31729200  1
  Pr  Pr15  1  0.87208800  0.22253200  0.67168400  1
  Pr  Pr16  1  0.86758100  0.00631400  0.06729200  1
  Pr  Pr17  1  0.50631400  0.63241900  0.43270800  1
  Pr  Pr18  1  0.22253200  0.62791200  0.92168400  1
  Pr  Pr19  1  0.86758100  0.50631400  0.18270800  1
  Pr  Pr20  1  0.12791200  0.27746800  0.57831600  1
  Pr  Pr21  1  0.12791200  0.22253200  0.17168400  1
  Pr  Pr22  1  0.36525850  0.13474150  0.50000000  1
  Pr  Pr23  1  0.63241900  0.00631400  0.18270800  1
  Pr  Pr24  1  0.86525850  0.36525850  0.50000000  1
  Pr  Pr25  1  0.13241900  0.99368600  0.06729200  1
  Pr  Pr26  1  0.27746800  0.62791200  0.32831600  1
  Pr  Pr27  1  0.37208800  0.22253200  0.07831600  1
  Pr  Pr28  1  0.22253200  0.12791200  0.32831600  1
  Pr  Pr29  1  0.12791200  0.72253200  0.07831600  1
  Pr  Pr30  1  0.37208800  0.77746800  0.57831600  1
  Pr  Pr31  1  0.27746800  0.87208800  0.42168400  1
  Pr  Pr32  1  0.63474150  0.13474150  0.00000000  1
  Pr  Pr33  1  0.62791200  0.27746800  0.17168400  1
  Pr  Pr34  1  0.36525850  0.36525850  0.25000000  1
  Pr  Pr35  1  0.99368600  0.36758100  0.31729200  1
  Pr  Pr36  1  0.13474150  0.36525850  0.00000000  1
  Pr  Pr37  1  0.22253200  0.37208800  0.42168400  1
  Pr  Pr38  1  0.49368600  0.13241900  0.31729200  1
  Pr  Pr39  1  0.99368600  0.13241900  0.43270800  1
  Pr  Pr40  1  0.36525850  0.63474150  0.75000000  1
  Pr  Pr41  1  0.99368600  0.86758100  0.93270800  1
  Pr  Pr42  1  0.63474150  0.63474150  0.25000000  1
  Pr  Pr43  1  0.00631400  0.86758100  0.43270800  1
  Pr  Pr44  1  0.77746800  0.62791200  0.42168400  1
  Pr  Pr45  1  0.63241900  0.50631400  0.06729200  1
  Pr  Pr46  1  0.50631400  0.13241900  0.81729200  1
  Pr  Pr47  1  0.22253200  0.87208800  0.82831600  1
  Pr  Pr48  1  0.77746800  0.87208800  0.32831600  1
  Pr  Pr49  1  0.86758100  0.49368600  0.68270800  1
  Pr  Pr50  1  0.63474150  0.36525850  0.75000000  1
  Pr  Pr51  1  0.86758100  0.99368600  0.56729200  1
  Pr  Pr52  1  0.37208800  0.27746800  0.67168400  1
  Pr  Pr53  1  0.63241900  0.99368600  0.68270800  1
  Pr  Pr54  1  0.00631400  0.36758100  0.81729200  1
  Pr  Pr55  1  0.37208800  0.72253200  0.17168400  1
  Pr  Pr56  1  0.36758100  0.50631400  0.56729200  1
  Pr  Pr57  1  0.00631400  0.13241900  0.93270800  1
  Pr  Pr58  1  0.72253200  0.12791200  0.42168400  1
  Pr  Pr59  1  0.36758100  0.00631400  0.68270800  1
  Pr  Pr60  1  0.62791200  0.77746800  0.07831600  1
  Pr  Pr61  1  0.62791200  0.72253200  0.67168400  1
  Pr  Pr62  1  0.86525850  0.63474150  0.00000000  1
  Pr  Pr63  1  0.13241900  0.50631400  0.68270800  1
  Pr  Pr64  1  0.36525850  0.86525850  0.00000000  1
  Pr  Pr65  1  0.63241900  0.49368600  0.56729200  1
  Pr  Pr66  1  0.77746800  0.12791200  0.82831600  1
  Pr  Pr67  1  0.87208800  0.72253200  0.57831600  1
  Pr  Pr68  1  0.72253200  0.62791200  0.82831600  1
  Pr  Pr69  1  0.62791200  0.22253200  0.57831600  1
  Pr  Pr70  1  0.87208800  0.27746800  0.07831600  1
  Pr  Pr71  1  0.77746800  0.37208800  0.92168400  1
  Pr  Pr72  1  0.13474150  0.63474150  0.50000000  1
  Pr  Pr73  1  0.12791200  0.77746800  0.67168400  1
  Pr  Pr74  1  0.86525850  0.86525850  0.75000000  1
  Pr  Pr75  1  0.49368600  0.86758100  0.81729200  1
  Pr  Pr76  1  0.63474150  0.86525850  0.50000000  1
  Pr  Pr77  1  0.72253200  0.87208800  0.92168400  1
  Pr  Pr78  1  0.99368600  0.63241900  0.81729200  1
  Pr  Pr79  1  0.49368600  0.63241900  0.93270800  1
  S  S80  1  0.36719150  0.02454350  0.37815150  1
  S  S81  1  0.25000000  0.14755000  0.62500000  1
  S  S82  1  0.46179700  0.17922100  0.95348900  1
  S  S83  1  0.32077900  0.46179700  0.70348900  1
  S  S84  1  0.67735300  0.15712900  0.28178900  1
  S  S85  1  0.15712900  0.17735300  0.03178900  1
  S  S86  1  0.34287100  0.32264700  0.53178900  1
  S  S87  1  0.65712900  0.82264700  0.21821100  1
  S  S88  1  0.13280850  0.47545650  0.87815150  1
  S  S89  1  0.32077900  0.96179700  0.54651100  1
  S  S90  1  0.02454350  0.13280850  0.62815150  1
  S  S91  1  0.25000000  0.35245000  0.12500000  1
  S  S92  1  0.17735300  0.15712900  0.46821100  1
  S  S93  1  0.97545650  0.13280850  0.12815150  1
  S  S94  1  0.53820300  0.32077900  0.29651100  1
  S  S95  1  0.53820300  0.17922100  0.45348900  1
  S  S96  1  0.82264700  0.15712900  0.96821100  1
  S  S97  1  0.02454350  0.86719150  0.12815150  1
  S  S98  1  0.97545650  0.63280850  0.12184850  1
  S  S99  1  0.15712900  0.67735300  0.21821100  1
  S  S100  1  0.96179700  0.17922100  0.79651100  1
  S  S101  1  0.75000000  0.14755000  0.12500000  1
  S  S102  1  0.84287100  0.32264700  0.21821100  1
  S  S103  1  0.85245000  0.25000000  0.37500000  1
  S  S104  1  0.32264700  0.34287100  0.96821100  1
  S  S105  1  0.34287100  0.17735300  0.21821100  1
  S  S106  1  0.65712900  0.32264700  0.03178900  1
  S  S107  1  0.84287100  0.17735300  0.53178900  1
  S  S108  1  0.64755000  0.25000000  0.87500000  1
  S  S109  1  0.67735300  0.34287100  0.46821100  1
  S  S110  1  0.47545650  0.36719150  0.12815150  1
  S  S111  1  0.46179700  0.82077900  0.45348900  1
  S  S112  1  0.17922100  0.53820300  0.04651100  1
  S  S113  1  0.17922100  0.96179700  0.70348900  1
  S  S114  1  0.46179700  0.32077900  0.79651100  1
  S  S115  1  0.14755000  0.25000000  0.87500000  1
  S  S116  1  0.86719150  0.47545650  0.37815150  1
  S  S117  1  0.36719150  0.47545650  0.37184850  1
  S  S118  1  0.17735300  0.34287100  0.28178900  1
  S  S119  1  0.03820300  0.32077900  0.45348900  1
  S  S120  1  0.52454350  0.13280850  0.12184850  1
  S  S121  1  0.36719150  0.52454350  0.87184850  1
  S  S122  1  0.97545650  0.36719150  0.62184850  1
  S  S123  1  0.03820300  0.17922100  0.29651100  1
  S  S124  1  0.82264700  0.65712900  0.28178900  1
  S  S125  1  0.13280850  0.52454350  0.37815150  1
  S  S126  1  0.02454350  0.36719150  0.12184850  1
  S  S127  1  0.13280850  0.97545650  0.37184850  1
  S  S128  1  0.35245000  0.25000000  0.37500000  1
  S  S129  1  0.67922100  0.96179700  0.04651100  1
  S  S130  1  0.17922100  0.03820300  0.20348900  1
  S  S131  1  0.32077900  0.03820300  0.04651100  1
  S  S132  1  0.75000000  0.35245000  0.62500000  1
  S  S133  1  0.32264700  0.84287100  0.28178900  1
  S  S134  1  0.32077900  0.53820300  0.20348900  1
  S  S135  1  0.63280850  0.52454350  0.37184850  1
  S  S136  1  0.86719150  0.52454350  0.87815150  1
  S  S137  1  0.75000000  0.64755000  0.12500000  1
  S  S138  1  0.96179700  0.67922100  0.45348900  1
  S  S139  1  0.82077900  0.96179700  0.20348900  1
  S  S140  1  0.17735300  0.65712900  0.78178900  1
  S  S141  1  0.65712900  0.67735300  0.53178900  1
  S  S142  1  0.84287100  0.82264700  0.03178900  1
  S  S143  1  0.15712900  0.32264700  0.71821100  1
  S  S144  1  0.63280850  0.97545650  0.37815150  1
  S  S145  1  0.82077900  0.46179700  0.04651100  1
  S  S146  1  0.52454350  0.63280850  0.12815150  1
  S  S147  1  0.75000000  0.85245000  0.62500000  1
  S  S148  1  0.67735300  0.65712900  0.96821100  1
  S  S149  1  0.47545650  0.63280850  0.62815150  1
  S  S150  1  0.03820300  0.82077900  0.79651100  1
  S  S151  1  0.03820300  0.67922100  0.95348900  1
  S  S152  1  0.32264700  0.65712900  0.46821100  1
  S  S153  1  0.52454350  0.36719150  0.62815150  1
  S  S154  1  0.47545650  0.13280850  0.62184850  1
  S  S155  1  0.65712900  0.17735300  0.71821100  1
  S  S156  1  0.46179700  0.67922100  0.29651100  1
  S  S157  1  0.25000000  0.64755000  0.62500000  1
  S  S158  1  0.34287100  0.82264700  0.71821100  1
  S  S159  1  0.35245000  0.75000000  0.87500000  1
  S  S160  1  0.82264700  0.84287100  0.46821100  1
  S  S161  1  0.84287100  0.67735300  0.71821100  1
  S  S162  1  0.15712900  0.82264700  0.53178900  1
  S  S163  1  0.34287100  0.67735300  0.03178900  1
  S  S164  1  0.14755000  0.75000000  0.37500000  1
  S  S165  1  0.17735300  0.84287100  0.96821100  1
  S  S166  1  0.97545650  0.86719150  0.62815150  1
  S  S167  1  0.96179700  0.32077900  0.95348900  1
  S  S168  1  0.67922100  0.03820300  0.54651100  1
  S  S169  1  0.67922100  0.46179700  0.20348900  1
  S  S170  1  0.96179700  0.82077900  0.29651100  1
  S  S171  1  0.64755000  0.75000000  0.37500000  1
  S  S172  1  0.36719150  0.97545650  0.87815150  1
  S  S173  1  0.86719150  0.97545650  0.87184850  1
  S  S174  1  0.67735300  0.84287100  0.78178900  1
  S  S175  1  0.53820300  0.82077900  0.95348900  1
  S  S176  1  0.02454350  0.63280850  0.62184850  1
  S  S177  1  0.86719150  0.02454350  0.37184850  1
  S  S178  1  0.47545650  0.86719150  0.12184850  1
  S  S179  1  0.53820300  0.67922100  0.79651100  1
  S  S180  1  0.32264700  0.15712900  0.78178900  1
  S  S181  1  0.63280850  0.02454350  0.87815150  1
  S  S182  1  0.52454350  0.86719150  0.62184850  1
  S  S183  1  0.63280850  0.47545650  0.87184850  1
  S  S184  1  0.85245000  0.75000000  0.87500000  1
  S  S185  1  0.17922100  0.46179700  0.54651100  1
  S  S186  1  0.67922100  0.53820300  0.70348900  1
  S  S187  1  0.82077900  0.53820300  0.54651100  1
  S  S188  1  0.25000000  0.85245000  0.12500000  1
  S  S189  1  0.82264700  0.34287100  0.78178900  1
  S  S190  1  0.82077900  0.03820300  0.70348900  1
  S  S191  1  0.13280850  0.02454350  0.87184850  1
  O  O192  1  0.50000000  0.00000000  0.25000000  1
  O  O193  1  0.00000000  0.00000000  0.50000000  1
  O  O194  1  0.00000000  0.50000000  0.25000000  1
  O  O195  1  0.00000000  0.00000000  0.00000000  1
  O  O196  1  0.00000000  0.50000000  0.75000000  1
  O  O197  1  0.50000000  0.50000000  0.00000000  1
  O  O198  1  0.50000000  0.00000000  0.75000000  1
  O  O199  1  0.50000000  0.50000000  0.50000000  1
