# generated using pymatgen
data_Er3B5O12
_symmetry_space_group_name_H-M   'P 1'
_cell_length_a   4.63898800
_cell_length_b   12.57301500
_cell_length_c   12.88483600
_cell_angle_alpha   90.00000000
_cell_angle_beta   90.00000000
_cell_angle_gamma   90.00000000
_symmetry_Int_Tables_number   1
_chemical_formula_structural   Er3B5O12
_chemical_formula_sum   'Er12 B20 O48'
_cell_volume   751.52179118
_cell_formula_units_Z   4
loop_
 _symmetry_equiv_pos_site_id
 _symmetry_equiv_pos_as_xyz
  1  'x, y, z'
loop_
 _atom_site_type_symbol
 _atom_site_label
 _atom_site_symmetry_multiplicity
 _atom_site_fract_x
 _atom_site_fract_y
 _atom_site_fract_z
 _atom_site_occupancy
  Er  Er0  1  0.99946800  0.69260700  0.63527600  1
  Er  Er1  1  0.00053200  0.30739300  0.36472400  1
  Er  Er2  1  0.00053200  0.19260700  0.86472400  1
  Er  Er3  1  0.99946800  0.80739300  0.86472400  1
  Er  Er4  1  0.00000000  0.50000000  0.13221200  1
  Er  Er5  1  0.00053200  0.19260700  0.13527600  1
  Er  Er6  1  0.00000000  0.50000000  0.86778800  1
  Er  Er7  1  0.00053200  0.30739300  0.63527600  1
  Er  Er8  1  0.00000000  0.00000000  0.63221200  1
  Er  Er9  1  0.99946800  0.69260700  0.36472400  1
  Er  Er10  1  0.99946800  0.80739300  0.13527600  1
  Er  Er11  1  0.00000000  0.00000000  0.36778800  1
  B  B12  1  0.50000000  0.50000000  0.33823600  1
  B  B13  1  0.50000000  0.00000000  0.83823600  1
  B  B14  1  0.53953900  0.84938500  0.50000000  1
  B  B15  1  0.52941200  0.15144000  0.70181600  1
  B  B16  1  0.53953900  0.65061500  0.00000000  1
  B  B17  1  0.47058800  0.65144000  0.20181600  1
  B  B18  1  0.52941200  0.34856000  0.79818400  1
  B  B19  1  0.45681200  0.37474400  0.50000000  1
  B  B20  1  0.50000000  0.00000000  0.16176400  1
  B  B21  1  0.47058800  0.84856000  0.70181600  1
  B  B22  1  0.45681200  0.12525600  0.00000000  1
  B  B23  1  0.46046100  0.34938500  0.00000000  1
  B  B24  1  0.47058800  0.84856000  0.29818400  1
  B  B25  1  0.46046100  0.15061500  0.50000000  1
  B  B26  1  0.47058800  0.65144000  0.79818400  1
  B  B27  1  0.54318800  0.62525600  0.50000000  1
  B  B28  1  0.54318800  0.87474400  0.00000000  1
  B  B29  1  0.52941200  0.15144000  0.29818400  1
  B  B30  1  0.50000000  0.50000000  0.66176400  1
  B  B31  1  0.52941200  0.34856000  0.20181600  1
  O  O32  1  0.31181900  0.56490600  0.73354100  1
  O  O33  1  0.65644500  0.14581600  0.40506300  1
  O  O34  1  0.66486600  0.57345400  0.40408300  1
  O  O35  1  0.31181900  0.93509400  0.76645900  1
  O  O36  1  0.65688600  0.25000000  0.25000000  1
  O  O37  1  0.66486600  0.92654600  0.90408300  1
  O  O38  1  0.68818100  0.43509400  0.26645900  1
  O  O39  1  0.24034700  0.42827500  0.00000000  1
  O  O40  1  0.33513400  0.42654600  0.59591700  1
  O  O41  1  0.77901000  0.84819300  0.70430100  1
  O  O42  1  0.34311400  0.75000000  0.75000000  1
  O  O43  1  0.31181900  0.56490600  0.26645900  1
  O  O44  1  0.68818100  0.06490600  0.76645900  1
  O  O45  1  0.22099000  0.15180700  0.29569900  1
  O  O46  1  0.24034700  0.07172500  0.50000000  1
  O  O47  1  0.69585400  0.76288700  0.00000000  1
  O  O48  1  0.75765600  0.36139800  0.50000000  1
  O  O49  1  0.68818100  0.06490600  0.23354100  1
  O  O50  1  0.65644500  0.35418400  0.09493700  1
  O  O51  1  0.34355500  0.85418400  0.59493700  1
  O  O52  1  0.34311400  0.75000000  0.25000000  1
  O  O53  1  0.65688600  0.25000000  0.75000000  1
  O  O54  1  0.34355500  0.85418400  0.40506300  1
  O  O55  1  0.66486600  0.92654600  0.09591700  1
  O  O56  1  0.33513400  0.07345400  0.90408300  1
  O  O57  1  0.77901000  0.65180700  0.79569900  1
  O  O58  1  0.75965300  0.57172500  0.00000000  1
  O  O59  1  0.22099000  0.34819300  0.79569900  1
  O  O60  1  0.69585400  0.73711300  0.50000000  1
  O  O61  1  0.77901000  0.84819300  0.29569900  1
  O  O62  1  0.31181900  0.93509400  0.23354100  1
  O  O63  1  0.65644500  0.14581600  0.59493700  1
  O  O64  1  0.30414600  0.26288700  0.50000000  1
  O  O65  1  0.66486600  0.57345400  0.59591700  1
  O  O66  1  0.24234400  0.86139800  0.00000000  1
  O  O67  1  0.22099000  0.34819300  0.20430100  1
  O  O68  1  0.77901000  0.65180700  0.20430100  1
  O  O69  1  0.65644500  0.35418400  0.90506300  1
  O  O70  1  0.33513400  0.42654600  0.40408300  1
  O  O71  1  0.22099000  0.15180700  0.70430100  1
  O  O72  1  0.33513400  0.07345400  0.09591700  1
  O  O73  1  0.68818100  0.43509400  0.73354100  1
  O  O74  1  0.34355500  0.64581600  0.90506300  1
  O  O75  1  0.75765600  0.13860200  0.00000000  1
  O  O76  1  0.75965300  0.92827500  0.50000000  1
  O  O77  1  0.34355500  0.64581600  0.09493700  1
  O  O78  1  0.24234400  0.63860200  0.50000000  1
  O  O79  1  0.30414600  0.23711300  0.00000000  1
