# generated using pymatgen
data_K2Sm2IrO7
_symmetry_space_group_name_H-M   'P 1'
_cell_length_a   5.73557228
_cell_length_b   5.73557228
_cell_length_c   37.94280955
_cell_angle_alpha   90.00000000
_cell_angle_beta   90.00000000
_cell_angle_gamma   120.00000000
_symmetry_Int_Tables_number   1
_chemical_formula_structural   K2Sm2IrO7
_chemical_formula_sum   'K12 Sm12 Ir6 O42'
_cell_volume   1080.96997783
_cell_formula_units_Z   6
loop_
 _symmetry_equiv_pos_site_id
 _symmetry_equiv_pos_as_xyz
  1  'x, y, z'
loop_
 _atom_site_type_symbol
 _atom_site_label
 _atom_site_symmetry_multiplicity
 _atom_site_fract_x
 _atom_site_fract_y
 _atom_site_fract_z
 _atom_site_occupancy
  K  K0  1  0.33333333  0.66666667  0.07961767  1
  K  K1  1  0.66666667  0.33333333  0.24628433  1
  K  K2  1  0.00000000  0.00000000  0.08704900  1
  K  K3  1  0.33333333  0.66666667  0.25371567  1
  K  K4  1  0.00000000  0.00000000  0.41295100  1
  K  K5  1  0.33333333  0.66666667  0.57961767  1
  K  K6  1  0.66666667  0.33333333  0.42038233  1
  K  K7  1  0.00000000  0.00000000  0.58704900  1
  K  K8  1  0.66666667  0.33333333  0.74628433  1
  K  K9  1  0.00000000  0.00000000  0.91295100  1
  K  K10  1  0.33333333  0.66666667  0.75371567  1
  K  K11  1  0.66666667  0.33333333  0.92038233  1
  Sm  Sm12  1  0.66666667  0.33333333  0.14248533  1
  Sm  Sm13  1  0.00000000  0.00000000  0.30915200  1
  Sm  Sm14  1  0.66666667  0.33333333  0.02418133  1
  Sm  Sm15  1  0.00000000  0.00000000  0.19084800  1
  Sm  Sm16  1  0.33333333  0.66666667  0.47581867  1
  Sm  Sm17  1  0.66666667  0.33333333  0.64248533  1
  Sm  Sm18  1  0.33333333  0.66666667  0.35751467  1
  Sm  Sm19  1  0.66666667  0.33333333  0.52418133  1
  Sm  Sm20  1  0.00000000  0.00000000  0.80915200  1
  Sm  Sm21  1  0.33333333  0.66666667  0.97581867  1
  Sm  Sm22  1  0.00000000  1.00000000  0.69084800  1
  Sm  Sm23  1  0.33333333  0.66666667  0.85751467  1
  Ir  Ir24  1  0.33333333  0.66666667  0.16666667  1
  Ir  Ir25  1  0.00000000  0.00000000  0.00000000  1
  Ir  Ir26  1  1.00000000  0.00000000  0.50000000  1
  Ir  Ir27  1  0.66666667  0.33333333  0.33333333  1
  Ir  Ir28  1  0.66666667  0.33333333  0.83333333  1
  Ir  Ir29  1  0.33333333  0.66666667  0.66666667  1
  O  O30  1  0.40218200  0.41626200  0.19388300  1
  O  O31  1  0.68074667  0.74959533  0.02721633  1
  O  O32  1  0.98592000  0.58373800  0.30611700  1
  O  O33  1  0.58373800  0.98592000  0.19388300  1
  O  O34  1  0.25040467  0.93115133  0.02721633  1
  O  O35  1  0.26448467  0.91707133  0.13945033  1
  O  O36  1  0.01408000  0.59781800  0.19388300  1
  O  O37  1  0.08292867  0.34741333  0.13945033  1
  O  O38  1  0.59781800  0.01408000  0.30611700  1
  O  O39  1  0.06884867  0.31925333  0.02721633  1
  O  O40  1  0.65258667  0.73551533  0.13945033  1
  O  O41  1  0.66666667  0.33333333  0.08333333  1
  O  O42  1  0.00000000  0.00000000  0.25000000  1
  O  O43  1  0.41626200  0.40218200  0.30611700  1
  O  O44  1  0.06884867  0.74959533  0.52721633  1
  O  O45  1  0.34741333  0.08292867  0.36054967  1
  O  O46  1  0.65258667  0.91707133  0.63945033  1
  O  O47  1  0.25040467  0.31925333  0.52721633  1
  O  O48  1  0.91707133  0.26448467  0.36054967  1
  O  O49  1  0.93115133  0.25040467  0.47278367  1
  O  O50  1  0.68074667  0.93115133  0.52721633  1
  O  O51  1  0.74959533  0.68074667  0.47278367  1
  O  O52  1  0.26448467  0.34741333  0.63945033  1
  O  O53  1  0.73551533  0.65258667  0.36054967  1
  O  O54  1  0.31925333  0.06884867  0.47278367  1
  O  O55  1  0.33333333  0.66666667  0.41666667  1
  O  O56  1  0.66666667  0.33333333  0.58333333  1
  O  O57  1  0.08292867  0.73551533  0.63945033  1
  O  O58  1  0.73551533  0.08292867  0.86054967  1
  O  O59  1  0.01408000  0.41626200  0.69388300  1
  O  O60  1  0.31925333  0.25040467  0.97278367  1
  O  O61  1  0.91707133  0.65258667  0.86054967  1
  O  O62  1  0.58373800  0.59781800  0.69388300  1
  O  O63  1  0.59781800  0.58373800  0.80611700  1
  O  O64  1  0.34741333  0.26448467  0.86054967  1
  O  O65  1  0.41626200  0.01408000  0.80611700  1
  O  O66  1  0.93115133  0.68074667  0.97278367  1
  O  O67  1  0.40218200  0.98592000  0.69388300  1
  O  O68  1  0.98592000  0.40218200  0.80611700  1
  O  O69  1  0.00000000  0.00000000  0.75000000  1
  O  O70  1  0.33333333  0.66666667  0.91666667  1
  O  O71  1  0.74959533  0.06884867  0.97278367  1
