# generated using pymatgen
data_AlTeCl7
_symmetry_space_group_name_H-M   'P 1'
_cell_length_a   6.74796600
_cell_length_b   12.91575700
_cell_length_c   14.37480492
_cell_angle_alpha   90.00000000
_cell_angle_beta   105.87703580
_cell_angle_gamma   90.00000000
_symmetry_Int_Tables_number   1
_chemical_formula_structural   AlTeCl7
_chemical_formula_sum   'Al4 Te4 Cl28'
_cell_volume   1205.04295419
_cell_formula_units_Z   4
loop_
 _symmetry_equiv_pos_site_id
 _symmetry_equiv_pos_as_xyz
  1  'x, y, z'
loop_
 _atom_site_type_symbol
 _atom_site_label
 _atom_site_symmetry_multiplicity
 _atom_site_fract_x
 _atom_site_fract_y
 _atom_site_fract_z
 _atom_site_occupancy
  Al  Al0  1  0.37275000  0.95722200  0.27826100  1
  Al  Al1  1  0.62725000  0.45722200  0.22173900  1
  Al  Al2  1  0.62725000  0.04277800  0.72173900  1
  Al  Al3  1  0.37275000  0.54277800  0.77826100  1
  Te  Te4  1  0.08825700  0.24812500  0.61073200  1
  Te  Te5  1  0.08825700  0.25187500  0.11073200  1
  Te  Te6  1  0.91174300  0.75187500  0.38926800  1
  Te  Te7  1  0.91174300  0.74812500  0.88926800  1
  Cl  Cl8  1  0.94328400  0.09255800  0.73457400  1
  Cl  Cl9  1  0.57251400  0.89765200  0.41389400  1
  Cl  Cl10  1  0.89134200  0.15605500  0.47799800  1
  Cl  Cl11  1  0.42748600  0.39765200  0.08610600  1
  Cl  Cl12  1  0.57251400  0.60234800  0.91389400  1
  Cl  Cl13  1  0.20980200  0.13544800  0.01500400  1
  Cl  Cl14  1  0.94328400  0.40744200  0.23457400  1
  Cl  Cl15  1  0.10865800  0.84394500  0.52200200  1
  Cl  Cl16  1  0.18180800  0.64650400  0.37314100  1
  Cl  Cl17  1  0.79019800  0.86455200  0.98499600  1
  Cl  Cl18  1  0.20980200  0.36455200  0.51500400  1
  Cl  Cl19  1  0.42748600  0.10234800  0.58610600  1
  Cl  Cl20  1  0.52214500  0.09666700  0.83915800  1
  Cl  Cl21  1  0.89134200  0.34394500  0.97799800  1
  Cl  Cl22  1  0.62793000  0.87451600  0.71392100  1
  Cl  Cl23  1  0.05671600  0.90744200  0.26542600  1
  Cl  Cl24  1  0.52214500  0.40333300  0.33915800  1
  Cl  Cl25  1  0.47785500  0.90333300  0.16084200  1
  Cl  Cl26  1  0.62793000  0.62548400  0.21392100  1
  Cl  Cl27  1  0.05671600  0.59255800  0.76542600  1
  Cl  Cl28  1  0.79019800  0.63544800  0.48499600  1
  Cl  Cl29  1  0.81819200  0.35349600  0.62685900  1
  Cl  Cl30  1  0.10865800  0.65605500  0.02200200  1
  Cl  Cl31  1  0.18180800  0.85349600  0.87314100  1
  Cl  Cl32  1  0.37207000  0.12548400  0.28607900  1
  Cl  Cl33  1  0.37207000  0.37451600  0.78607900  1
  Cl  Cl34  1  0.47785500  0.59666700  0.66084200  1
  Cl  Cl35  1  0.81819200  0.14650400  0.12685900  1
