# generated using pymatgen
data_Sb5IO7
_symmetry_space_group_name_H-M   'P 1'
_cell_length_a   6.94938300
_cell_length_b   13.12612000
_cell_length_c   13.59036774
_cell_angle_alpha   90.00000000
_cell_angle_beta   119.63717396
_cell_angle_gamma   90.00000000
_symmetry_Int_Tables_number   1
_chemical_formula_structural   Sb5IO7
_chemical_formula_sum   'Sb20 I4 O28'
_cell_volume   1077.50846133
_cell_formula_units_Z   4
loop_
 _symmetry_equiv_pos_site_id
 _symmetry_equiv_pos_as_xyz
  1  'x, y, z'
loop_
 _atom_site_type_symbol
 _atom_site_label
 _atom_site_symmetry_multiplicity
 _atom_site_fract_x
 _atom_site_fract_y
 _atom_site_fract_z
 _atom_site_occupancy
  Sb  Sb0  1  0.18132800  0.55427200  0.92486300  1
  Sb  Sb1  1  0.53829900  0.75870700  0.93448500  1
  Sb  Sb2  1  0.85803100  0.26392800  0.90724500  1
  Sb  Sb3  1  0.83108800  0.75832300  0.74102100  1
  Sb  Sb4  1  0.18132800  0.94572800  0.42486300  1
  Sb  Sb5  1  0.83509100  0.05692900  0.08111200  1
  Sb  Sb6  1  0.16490900  0.94307100  0.91888800  1
  Sb  Sb7  1  0.14196900  0.76392800  0.59275500  1
  Sb  Sb8  1  0.81867200  0.05427200  0.57513700  1
  Sb  Sb9  1  0.16891200  0.25832300  0.75897900  1
  Sb  Sb10  1  0.85803100  0.23607200  0.40724500  1
  Sb  Sb11  1  0.46170100  0.24129300  0.06551500  1
  Sb  Sb12  1  0.53829900  0.74129300  0.43448500  1
  Sb  Sb13  1  0.16490900  0.55692900  0.41888800  1
  Sb  Sb14  1  0.16891200  0.24167700  0.25897900  1
  Sb  Sb15  1  0.14196900  0.73607200  0.09275500  1
  Sb  Sb16  1  0.81867200  0.44572800  0.07513700  1
  Sb  Sb17  1  0.46170100  0.25870700  0.56551500  1
  Sb  Sb18  1  0.83108800  0.74167700  0.24102100  1
  Sb  Sb19  1  0.83509100  0.44307100  0.58111200  1
  I  I20  1  0.43542300  0.99525900  0.24376200  1
  I  I21  1  0.43542300  0.50474100  0.74376200  1
  I  I22  1  0.56457700  0.00474100  0.75623800  1
  I  I23  1  0.56457700  0.49525900  0.25623800  1
  O  O24  1  0.59498000  0.33163900  0.99689400  1
  O  O25  1  0.97987400  0.36502100  0.21724200  1
  O  O26  1  0.92021000  0.14251600  0.22128700  1
  O  O27  1  0.83348300  0.75000400  0.08606900  1
  O  O28  1  0.02012600  0.63497900  0.78275800  1
  O  O29  1  0.01536700  0.82848400  0.95766700  1
  O  O30  1  0.53221900  0.38074700  0.50368900  1
  O  O31  1  0.59498000  0.16836100  0.49689400  1
  O  O32  1  0.92021000  0.35748400  0.72128700  1
  O  O33  1  0.97987400  0.13497900  0.71724200  1
  O  O34  1  0.83348300  0.74999600  0.58606900  1
  O  O35  1  0.07979000  0.85748400  0.77871300  1
  O  O36  1  0.02012600  0.86502100  0.28275800  1
  O  O37  1  0.98777400  0.11396300  0.50411400  1
  O  O38  1  0.16651700  0.24999600  0.91393100  1
  O  O39  1  0.46778100  0.61925300  0.49631100  1
  O  O40  1  0.98463300  0.17151600  0.04233300  1
  O  O41  1  0.40502000  0.66836100  0.00310600  1
  O  O42  1  0.16651700  0.25000400  0.41393100  1
  O  O43  1  0.53221900  0.11925300  0.00368900  1
  O  O44  1  0.07979000  0.64251600  0.27871300  1
  O  O45  1  0.98463300  0.32848400  0.54233300  1
  O  O46  1  0.01222600  0.88603700  0.49588600  1
  O  O47  1  0.40502000  0.83163900  0.50310600  1
  O  O48  1  0.01536700  0.67151600  0.45766700  1
  O  O49  1  0.46778100  0.88074700  0.99631100  1
  O  O50  1  0.01222600  0.61396300  0.99588600  1
  O  O51  1  0.98777400  0.38603700  0.00411400  1
