# generated using pymatgen
data_SiO2
_symmetry_space_group_name_H-M   'P 1'
_cell_length_a   6.92249900
_cell_length_b   6.92249900
_cell_length_c   7.13624300
_cell_angle_alpha   90.00000000
_cell_angle_beta   90.00000000
_cell_angle_gamma   90.00000000
_symmetry_Int_Tables_number   1
_chemical_formula_structural   SiO2
_chemical_formula_sum   'Si8 O16'
_cell_volume   341.97584660
_cell_formula_units_Z   8
loop_
 _symmetry_equiv_pos_site_id
 _symmetry_equiv_pos_as_xyz
  1  'x, y, z'
loop_
 _atom_site_type_symbol
 _atom_site_label
 _atom_site_symmetry_multiplicity
 _atom_site_fract_x
 _atom_site_fract_y
 _atom_site_fract_z
 _atom_site_occupancy
  Si  Si0  1  0.20492700  0.45194000  0.94868000  1
  Si  Si1  1  0.04806000  0.29507300  0.55132000  1
  Si  Si2  1  0.95194000  0.70492700  0.55132000  1
  Si  Si3  1  0.45194000  0.79507300  0.05132000  1
  Si  Si4  1  0.79507300  0.54806000  0.94868000  1
  Si  Si5  1  0.70492700  0.04806000  0.44868000  1
  Si  Si6  1  0.29507300  0.95194000  0.44868000  1
  Si  Si7  1  0.54806000  0.20492700  0.05132000  1
  O  O8  1  0.15851100  0.81690600  0.58077500  1
  O  O9  1  0.34148900  0.31690600  0.08077500  1
  O  O10  1  0.65851100  0.68309400  0.08077500  1
  O  O11  1  0.00000000  0.50000000  0.05124700  1
  O  O12  1  0.15799200  0.34200800  0.75000000  1
  O  O13  1  0.50000000  0.00000000  0.94875300  1
  O  O14  1  0.68309400  0.34148900  0.91922500  1
  O  O15  1  0.31690600  0.65851100  0.91922500  1
  O  O16  1  0.00000000  0.50000000  0.44875300  1
  O  O17  1  0.84148900  0.18309400  0.58077500  1
  O  O18  1  0.50000000  0.00000000  0.55124700  1
  O  O19  1  0.18309400  0.15851100  0.41922500  1
  O  O20  1  0.81690600  0.84148900  0.41922500  1
  O  O21  1  0.65799200  0.15799200  0.25000000  1
  O  O22  1  0.34200800  0.84200800  0.25000000  1
  O  O23  1  0.84200800  0.65799200  0.75000000  1
