# generated using pymatgen
data_K4Ru2Cl10O
_symmetry_space_group_name_H-M   'P 1'
_cell_length_a   7.30951400
_cell_length_b   7.30951400
_cell_length_c   17.34615600
_cell_angle_alpha   90.00000000
_cell_angle_beta   90.00000000
_cell_angle_gamma   90.00000000
_symmetry_Int_Tables_number   1
_chemical_formula_structural   K4Ru2Cl10O
_chemical_formula_sum   'K8 Ru4 Cl20 O2'
_cell_volume   926.78768074
_cell_formula_units_Z   2
loop_
 _symmetry_equiv_pos_site_id
 _symmetry_equiv_pos_as_xyz
  1  'x, y, z'
loop_
 _atom_site_type_symbol
 _atom_site_label
 _atom_site_symmetry_multiplicity
 _atom_site_fract_x
 _atom_site_fract_y
 _atom_site_fract_z
 _atom_site_occupancy
  K  K0  1  0.50000000  0.00000000  0.00000000  1
  K  K1  1  0.00000000  0.50000000  0.25000000  1
  K  K2  1  0.50000000  0.00000000  0.25000000  1
  K  K3  1  0.00000000  0.50000000  0.00000000  1
  K  K4  1  0.00000000  0.50000000  0.50000000  1
  K  K5  1  0.50000000  0.00000000  0.75000000  1
  K  K6  1  0.00000000  0.50000000  0.75000000  1
  K  K7  1  0.50000000  0.00000000  0.50000000  1
  Ru  Ru8  1  0.50000000  0.50000000  0.39562100  1
  Ru  Ru9  1  0.00000000  0.00000000  0.10437900  1
  Ru  Ru10  1  0.00000000  0.00000000  0.89562100  1
  Ru  Ru11  1  0.50000000  0.50000000  0.60437900  1
  Cl  Cl12  1  0.76824050  0.23175950  0.11311450  1
  Cl  Cl13  1  0.26824050  0.73175950  0.38688550  1
  Cl  Cl14  1  0.73175950  0.26824050  0.38688550  1
  Cl  Cl15  1  0.76824050  0.76824050  0.11311450  1
  Cl  Cl16  1  0.73175950  0.73175950  0.38688550  1
  Cl  Cl17  1  0.50000000  0.50000000  0.26092500  1
  Cl  Cl18  1  0.23175950  0.76824050  0.11311450  1
  Cl  Cl19  1  0.23175950  0.23175950  0.11311450  1
  Cl  Cl20  1  0.00000000  0.00000000  0.23907500  1
  Cl  Cl21  1  0.26824050  0.26824050  0.38688550  1
  Cl  Cl22  1  0.26824050  0.73175950  0.61311450  1
  Cl  Cl23  1  0.76824050  0.23175950  0.88688550  1
  Cl  Cl24  1  0.23175950  0.76824050  0.88688550  1
  Cl  Cl25  1  0.26824050  0.26824050  0.61311450  1
  Cl  Cl26  1  0.23175950  0.23175950  0.88688550  1
  Cl  Cl27  1  0.00000000  0.00000000  0.76092500  1
  Cl  Cl28  1  0.73175950  0.26824050  0.61311450  1
  Cl  Cl29  1  0.73175950  0.73175950  0.61311450  1
  Cl  Cl30  1  0.50000000  0.50000000  0.73907500  1
  Cl  Cl31  1  0.76824050  0.76824050  0.88688550  1
  O  O32  1  0.00000000  0.00000000  0.00000000  1
  O  O33  1  0.50000000  0.50000000  0.50000000  1
