# generated using pymatgen
data_Rb2Hg2PdBr8
_symmetry_space_group_name_H-M   'P 1'
_cell_length_a   12.25526200
_cell_length_b   7.45814400
_cell_length_c   10.78974588
_cell_angle_alpha   90.00000000
_cell_angle_beta   109.69725782
_cell_angle_gamma   90.00000000
_symmetry_Int_Tables_number   1
_chemical_formula_structural   Rb2Hg2PdBr8
_chemical_formula_sum   'Rb4 Hg4 Pd2 Br16'
_cell_volume   928.49326933
_cell_formula_units_Z   2
loop_
 _symmetry_equiv_pos_site_id
 _symmetry_equiv_pos_as_xyz
  1  'x, y, z'
loop_
 _atom_site_type_symbol
 _atom_site_label
 _atom_site_symmetry_multiplicity
 _atom_site_fract_x
 _atom_site_fract_y
 _atom_site_fract_z
 _atom_site_occupancy
  Rb  Rb0  1  0.39703600  0.00000000  0.16661800  1
  Rb  Rb1  1  0.60296400  0.00000000  0.83338200  1
  Rb  Rb2  1  0.89703600  0.50000000  0.16661800  1
  Rb  Rb3  1  0.10296400  0.50000000  0.83338200  1
  Hg  Hg4  1  0.13237200  0.00000000  0.39179000  1
  Hg  Hg5  1  0.86762800  0.00000000  0.60821000  1
  Hg  Hg6  1  0.63237200  0.50000000  0.39179000  1
  Hg  Hg7  1  0.36762800  0.50000000  0.60821000  1
  Pd  Pd8  1  0.00000000  0.00000000  0.00000000  1
  Pd  Pd9  1  0.50000000  0.50000000  0.00000000  1
  Br  Br10  1  0.34722200  0.00000000  0.49941300  1
  Br  Br11  1  0.63215250  0.26591150  0.13238400  1
  Br  Br12  1  0.08352300  0.00000000  0.69307500  1
  Br  Br13  1  0.91647700  0.00000000  0.30692500  1
  Br  Br14  1  0.65277800  0.00000000  0.50058700  1
  Br  Br15  1  0.36784750  0.73408850  0.86761600  1
  Br  Br16  1  0.36784750  0.26591150  0.86761600  1
  Br  Br17  1  0.63215250  0.73408850  0.13238400  1
  Br  Br18  1  0.84722200  0.50000000  0.49941300  1
  Br  Br19  1  0.13215250  0.76591150  0.13238400  1
  Br  Br20  1  0.58352300  0.50000000  0.69307500  1
  Br  Br21  1  0.41647700  0.50000000  0.30692500  1
  Br  Br22  1  0.15277800  0.50000000  0.50058700  1
  Br  Br23  1  0.86784750  0.23408850  0.86761600  1
  Br  Br24  1  0.86784750  0.76591150  0.86761600  1
  Br  Br25  1  0.13215250  0.23408850  0.13238400  1
