# generated using pymatgen
data_ThSiO4
_symmetry_space_group_name_H-M   'P 1'
_cell_length_a   7.20174400
_cell_length_b   7.20174400
_cell_length_c   6.36268800
_cell_angle_alpha   90.00000000
_cell_angle_beta   90.00000000
_cell_angle_gamma   90.00000000
_symmetry_Int_Tables_number   1
_chemical_formula_structural   ThSiO4
_chemical_formula_sum   'Th4 Si4 O16'
_cell_volume   330.00155527
_cell_formula_units_Z   4
loop_
 _symmetry_equiv_pos_site_id
 _symmetry_equiv_pos_as_xyz
  1  'x, y, z'
loop_
 _atom_site_type_symbol
 _atom_site_label
 _atom_site_symmetry_multiplicity
 _atom_site_fract_x
 _atom_site_fract_y
 _atom_site_fract_z
 _atom_site_occupancy
  Th  Th0  1  0.50000000  0.00000000  0.75000000  1
  Th  Th1  1  0.00000000  0.00000000  0.50000000  1
  Th  Th2  1  0.00000000  0.50000000  0.25000000  1
  Th  Th3  1  0.50000000  0.50000000  0.00000000  1
  Si  Si4  1  0.50000000  0.00000000  0.25000000  1
  Si  Si5  1  0.50000000  0.50000000  0.50000000  1
  Si  Si6  1  0.00000000  0.50000000  0.75000000  1
  Si  Si7  1  0.00000000  0.00000000  0.00000000  1
  O  O8  1  0.67647000  0.00000000  0.41643000  1
  O  O9  1  0.50000000  0.32353000  0.66643000  1
  O  O10  1  0.00000000  0.17647000  0.16643000  1
  O  O11  1  0.32353000  0.00000000  0.41643000  1
  O  O12  1  0.00000000  0.32353000  0.58357000  1
  O  O13  1  0.67647000  0.50000000  0.33357000  1
  O  O14  1  0.82353000  0.00000000  0.83357000  1
  O  O15  1  0.00000000  0.67647000  0.58357000  1
  O  O16  1  0.17647000  0.50000000  0.91643000  1
  O  O17  1  0.00000000  0.82353000  0.16643000  1
  O  O18  1  0.50000000  0.67647000  0.66643000  1
  O  O19  1  0.82353000  0.50000000  0.91643000  1
  O  O20  1  0.50000000  0.82353000  0.08357000  1
  O  O21  1  0.17647000  0.00000000  0.83357000  1
  O  O22  1  0.32353000  0.50000000  0.33357000  1
  O  O23  1  0.50000000  0.17647000  0.08357000  1
