# generated using pymatgen
data_Cs2Al2As2O7
_symmetry_space_group_name_H-M   'P 1'
_cell_length_a   5.56240800
_cell_length_b   9.04917200
_cell_length_c   10.15689800
_cell_angle_alpha   90.00000000
_cell_angle_beta   90.00000000
_cell_angle_gamma   90.00000000
_symmetry_Int_Tables_number   1
_chemical_formula_structural   Cs2Al2As2O7
_chemical_formula_sum   'Cs4 Al4 As4 O14'
_cell_volume   511.24935739
_cell_formula_units_Z   2
loop_
 _symmetry_equiv_pos_site_id
 _symmetry_equiv_pos_as_xyz
  1  'x, y, z'
loop_
 _atom_site_type_symbol
 _atom_site_label
 _atom_site_symmetry_multiplicity
 _atom_site_fract_x
 _atom_site_fract_y
 _atom_site_fract_z
 _atom_site_occupancy
  Cs  Cs0  1  0.50000000  0.15552200  0.50000000  1
  Cs  Cs1  1  0.00000000  0.80107800  0.50000000  1
  Cs  Cs2  1  0.00000000  0.65552200  0.00000000  1
  Cs  Cs3  1  0.50000000  0.30107800  0.00000000  1
  Al  Al4  1  0.00000000  0.06237600  0.83798300  1
  Al  Al5  1  0.00000000  0.06237600  0.16201700  1
  Al  Al6  1  0.50000000  0.56237600  0.33798300  1
  Al  Al7  1  0.50000000  0.56237600  0.66201700  1
  As  As8  1  0.50000000  0.88370500  0.20004300  1
  As  As9  1  0.50000000  0.88370500  0.79995700  1
  As  As10  1  0.00000000  0.38370500  0.70004300  1
  As  As11  1  0.00000000  0.38370500  0.29995700  1
  O  O12  1  0.74399500  0.00028800  0.25346300  1
  O  O13  1  0.50000000  0.49991100  0.50000000  1
  O  O14  1  0.50000000  0.75982300  0.33772400  1
  O  O15  1  0.25600500  0.00028800  0.25346300  1
  O  O16  1  0.25600500  0.00028800  0.74653700  1
  O  O17  1  0.74399500  0.00028800  0.74653700  1
  O  O18  1  0.50000000  0.75982300  0.66227600  1
  O  O19  1  0.24399500  0.50028800  0.75346300  1
  O  O20  1  0.00000000  0.99991100  0.00000000  1
  O  O21  1  0.00000000  0.25982300  0.83772400  1
  O  O22  1  0.75600500  0.50028800  0.75346300  1
  O  O23  1  0.75600500  0.50028800  0.24653700  1
  O  O24  1  0.24399500  0.50028800  0.24653700  1
  O  O25  1  0.00000000  0.25982300  0.16227600  1
