# generated using pymatgen
data_NaAg(NO2)2
_symmetry_space_group_name_H-M   'P 1'
_cell_length_a   8.13855600
_cell_length_b   10.70301800
_cell_length_c   11.20829800
_cell_angle_alpha   90.00000000
_cell_angle_beta   90.00000000
_cell_angle_gamma   90.00000000
_symmetry_Int_Tables_number   1
_chemical_formula_structural   NaAg(NO2)2
_chemical_formula_sum   'Na8 Ag8 N16 O32'
_cell_volume   976.32246206
_cell_formula_units_Z   8
loop_
 _symmetry_equiv_pos_site_id
 _symmetry_equiv_pos_as_xyz
  1  'x, y, z'
loop_
 _atom_site_type_symbol
 _atom_site_label
 _atom_site_symmetry_multiplicity
 _atom_site_fract_x
 _atom_site_fract_y
 _atom_site_fract_z
 _atom_site_occupancy
  Na  Na0  1  0.75000000  0.23840700  0.75000000  1
  Na  Na1  1  0.50000000  0.48840700  0.00000000  1
  Na  Na2  1  0.75000000  0.73840700  0.25000000  1
  Na  Na3  1  0.50000000  0.98840700  0.50000000  1
  Na  Na4  1  0.25000000  0.73840700  0.75000000  1
  Na  Na5  1  0.00000000  0.98840700  0.00000000  1
  Na  Na6  1  0.25000000  0.23840700  0.25000000  1
  Na  Na7  1  0.00000000  0.48840700  0.50000000  1
  Ag  Ag8  1  0.75000000  0.75035000  0.75000000  1
  Ag  Ag9  1  0.50000000  0.00035000  0.00000000  1
  Ag  Ag10  1  0.75000000  0.25035000  0.25000000  1
  Ag  Ag11  1  0.50000000  0.50035000  0.50000000  1
  Ag  Ag12  1  0.25000000  0.25035000  0.75000000  1
  Ag  Ag13  1  0.00000000  0.50035000  0.00000000  1
  Ag  Ag14  1  0.25000000  0.75035000  0.25000000  1
  Ag  Ag15  1  0.00000000  0.00035000  0.50000000  1
  N  N16  1  0.75000000  0.48249800  0.75000000  1
  N  N17  1  0.50000000  0.73249800  0.00000000  1
  N  N18  1  0.50000000  0.20506300  0.00000000  1
  N  N19  1  0.75000000  0.95506300  0.75000000  1
  N  N20  1  0.75000000  0.98249800  0.25000000  1
  N  N21  1  0.50000000  0.23249800  0.50000000  1
  N  N22  1  0.50000000  0.70506300  0.50000000  1
  N  N23  1  0.75000000  0.45506300  0.25000000  1
  N  N24  1  0.25000000  0.98249800  0.75000000  1
  N  N25  1  0.00000000  0.23249800  0.00000000  1
  N  N26  1  0.00000000  0.70506300  0.00000000  1
  N  N27  1  0.25000000  0.45506300  0.75000000  1
  N  N28  1  0.25000000  0.48249800  0.25000000  1
  N  N29  1  0.00000000  0.73249800  0.50000000  1
  N  N30  1  0.00000000  0.20506300  0.50000000  1
  N  N31  1  0.25000000  0.95506300  0.25000000  1
  O  O32  1  0.54177600  0.26724900  0.90904500  1
  O  O33  1  0.45822400  0.26724900  0.09095500  1
  O  O34  1  0.79177600  0.01724900  0.84095500  1
  O  O35  1  0.20771250  0.04714250  0.83982800  1
  O  O36  1  0.20822400  0.01724900  0.15904500  1
  O  O37  1  0.54228750  0.79714250  0.08982800  1
  O  O38  1  0.79228750  0.04714250  0.16017200  1
  O  O39  1  0.45771250  0.79714250  0.91017200  1
  O  O40  1  0.54177600  0.76724900  0.40904500  1
  O  O41  1  0.45822400  0.76724900  0.59095500  1
  O  O42  1  0.79177600  0.51724900  0.34095500  1
  O  O43  1  0.20771250  0.54714250  0.33982800  1
  O  O44  1  0.20822400  0.51724900  0.65904500  1
  O  O45  1  0.54228750  0.29714250  0.58982800  1
  O  O46  1  0.79228750  0.54714250  0.66017200  1
  O  O47  1  0.45771250  0.29714250  0.41017200  1
  O  O48  1  0.04177600  0.76724900  0.90904500  1
  O  O49  1  0.95822400  0.76724900  0.09095500  1
  O  O50  1  0.29177600  0.51724900  0.84095500  1
  O  O51  1  0.70771250  0.54714250  0.83982800  1
  O  O52  1  0.70822400  0.51724900  0.15904500  1
  O  O53  1  0.04228750  0.29714250  0.08982800  1
  O  O54  1  0.29228750  0.54714250  0.16017200  1
  O  O55  1  0.95771250  0.29714250  0.91017200  1
  O  O56  1  0.04177600  0.26724900  0.40904500  1
  O  O57  1  0.95822400  0.26724900  0.59095500  1
  O  O58  1  0.29177600  0.01724900  0.34095500  1
  O  O59  1  0.70771250  0.04714250  0.33982800  1
  O  O60  1  0.70822400  0.01724900  0.65904500  1
  O  O61  1  0.04228750  0.79714250  0.58982800  1
  O  O62  1  0.29228750  0.04714250  0.66017200  1
  O  O63  1  0.95771250  0.79714250  0.41017200  1
