# generated using pymatgen
data_TiH8C4NO10
_symmetry_space_group_name_H-M   'P 1'
_cell_length_a   8.97904983
_cell_length_b   8.97904983
_cell_length_c   11.03027200
_cell_angle_alpha   90.00000000
_cell_angle_beta   90.00000000
_cell_angle_gamma   120.00000000
_symmetry_Int_Tables_number   1
_chemical_formula_structural   TiH8C4NO10
_chemical_formula_sum   'Ti3 H24 C12 N3 O30'
_cell_volume   770.15407339
_cell_formula_units_Z   3
loop_
 _symmetry_equiv_pos_site_id
 _symmetry_equiv_pos_as_xyz
  1  'x, y, z'
loop_
 _atom_site_type_symbol
 _atom_site_label
 _atom_site_symmetry_multiplicity
 _atom_site_fract_x
 _atom_site_fract_y
 _atom_site_fract_z
 _atom_site_occupancy
  Ti  Ti0  1  0.00000000  0.50000000  0.66666667  1
  Ti  Ti1  1  0.50000000  0.50000000  0.33333333  1
  Ti  Ti2  1  0.50000000  0.00000000  0.00000000  1
  H  H3  1  0.10446000  0.07939800  0.94558567  1
  H  H4  1  0.74243500  0.64100500  0.82105267  1
  H  H5  1  0.89554000  0.97493800  0.38774767  1
  H  H6  1  0.10143000  0.35899500  0.17894733  1
  H  H7  1  0.07939800  0.97493800  0.61225233  1
  H  H8  1  0.89857000  0.64100500  0.17894733  1
  H  H9  1  0.92060200  0.89554000  0.72108100  1
  H  H10  1  0.64100500  0.74243500  0.84561400  1
  H  H11  1  0.97493800  0.89554000  0.27891900  1
  H  H12  1  0.02506200  0.10446000  0.27891900  1
  H  H13  1  0.10446000  0.02506200  0.38774767  1
  H  H14  1  0.97493800  0.07939800  0.05441433  1
  H  H15  1  0.35899500  0.25756500  0.84561400  1
  H  H16  1  0.10143000  0.74243500  0.15438600  1
  H  H17  1  0.74243500  0.10143000  0.51228067  1
  H  H18  1  0.92060200  0.02506200  0.61225233  1
  H  H19  1  0.35899500  0.10143000  0.48771933  1
  H  H20  1  0.02506200  0.92060200  0.05441433  1
  H  H21  1  0.89554000  0.92060200  0.94558567  1
  H  H22  1  0.07939800  0.10446000  0.72108100  1
  H  H23  1  0.64100500  0.89857000  0.48771933  1
  H  H24  1  0.25756500  0.89857000  0.51228067  1
  H  H25  1  0.89857000  0.25756500  0.15438600  1
  H  H26  1  0.25756500  0.35899500  0.82105267  1
  C  C27  1  0.68867400  0.31132600  0.83333333  1
  C  C28  1  0.31132600  0.62265200  0.50000000  1
  C  C29  1  0.42981400  0.21490700  0.16666667  1
  C  C30  1  0.68867400  0.37734800  0.50000000  1
  C  C31  1  0.21490700  0.42981400  0.50000000  1
  C  C32  1  0.37734800  0.68867400  0.16666667  1
  C  C33  1  0.62265200  0.31132600  0.16666667  1
  C  C34  1  0.57018600  0.78509300  0.16666667  1
  C  C35  1  0.78509300  0.21490700  0.83333333  1
  C  C36  1  0.78509300  0.57018600  0.50000000  1
  C  C37  1  0.31132600  0.68867400  0.83333333  1
  C  C38  1  0.21490700  0.78509300  0.83333333  1
  N  N39  1  0.00000000  0.00000000  0.33333333  1
  N  N40  1  0.00000000  0.00000000  0.00000000  1
  N  N41  1  0.00000000  0.00000000  0.66666667  1
  O  O42  1  0.07802900  0.35576700  0.56266867  1
  O  O43  1  0.27773800  0.35576700  0.43733133  1
  O  O44  1  0.45292200  0.75952300  0.89121567  1
  O  O45  1  0.24414900  0.24414900  0.83333333  1
  O  O46  1  0.72226200  0.07802900  0.89600200  1
  O  O47  1  0.30660100  0.54707800  0.22454900  1
  O  O48  1  0.54707800  0.24047700  0.89121567  1
  O  O49  1  0.27773800  0.92197100  0.89600200  1
  O  O50  1  0.24047700  0.69339900  0.55788233  1
  O  O51  1  0.64423300  0.92197100  0.10399800  1
  O  O52  1  0.92197100  0.27773800  0.77066467  1
  O  O53  1  0.24414900  0.00000000  0.50000000  1
  O  O54  1  0.69339900  0.45292200  0.22454900  1
  O  O55  1  0.54707800  0.30660100  0.44211767  1
  O  O56  1  0.75952300  0.30660100  0.55788233  1
  O  O57  1  0.07802900  0.72226200  0.77066467  1
  O  O58  1  0.35576700  0.27773800  0.22933533  1
  O  O59  1  0.30660100  0.75952300  0.10878433  1
  O  O60  1  0.72226200  0.64423300  0.43733133  1
  O  O61  1  0.45292200  0.69339900  0.44211767  1
  O  O62  1  0.75952300  0.45292200  0.77545100  1
  O  O63  1  0.24047700  0.54707800  0.77545100  1
  O  O64  1  0.00000000  0.75585100  0.16666667  1
  O  O65  1  0.92197100  0.64423300  0.56266867  1
  O  O66  1  0.64423300  0.72226200  0.22933533  1
  O  O67  1  0.75585100  0.75585100  0.83333333  1
  O  O68  1  0.35576700  0.07802900  0.10399800  1
  O  O69  1  0.75585100  0.00000000  0.50000000  1
  O  O70  1  0.00000000  0.24414900  0.16666667  1
  O  O71  1  0.69339900  0.24047700  0.10878433  1
