# generated using pymatgen
data_Ho2CdSe4
_symmetry_space_group_name_H-M   'P 1'
_cell_length_a   8.35748828
_cell_length_b   8.35748828
_cell_length_c   101.77397589
_cell_angle_alpha   90.00000000
_cell_angle_beta   90.00000000
_cell_angle_gamma   120.00000000
_symmetry_Int_Tables_number   1
_chemical_formula_structural   Ho2CdSe4
_chemical_formula_sum   'Ho60 Cd30 Se120'
_cell_volume   6156.28795464
_cell_formula_units_Z   30
loop_
 _symmetry_equiv_pos_site_id
 _symmetry_equiv_pos_as_xyz
  1  'x, y, z'
loop_
 _atom_site_type_symbol
 _atom_site_label
 _atom_site_symmetry_multiplicity
 _atom_site_fract_x
 _atom_site_fract_y
 _atom_site_fract_z
 _atom_site_occupancy
  Ho  Ho0  1  0.66666667  0.33333333  0.33297033  1
  Ho  Ho1  1  0.33897867  0.16948933  0.04152033  1
  Ho  Ho2  1  0.33333333  0.66666667  0.06612067  1
  Ho  Ho3  1  0.83051067  0.16948933  0.04152033  1
  Ho  Ho4  1  0.83051067  0.66102133  0.04152033  1
  Ho  Ho5  1  0.67212733  0.83606367  0.10817767  1
  Ho  Ho6  1  0.66666667  0.33333333  0.13277733  1
  Ho  Ho7  1  0.16393633  0.83606367  0.10817767  1
  Ho  Ho8  1  0.16393633  0.32787267  0.10817767  1
  Ho  Ho9  1  0.00406933  0.50203467  0.17497467  1
  Ho  Ho10  1  0.49796533  0.50203467  0.17497467  1
  Ho  Ho11  1  0.49796533  0.99593067  0.17497467  1
  Ho  Ho12  1  0.33320133  0.16660067  0.24162567  1
  Ho  Ho13  1  0.83339933  0.16660067  0.24162567  1
  Ho  Ho14  1  0.66666667  0.33333333  0.20821133  1
  Ho  Ho15  1  0.66800933  0.83400467  0.30821367  1
  Ho  Ho16  1  0.83339933  0.66679867  0.24162567  1
  Ho  Ho17  1  0.16599533  0.83400467  0.30821367  1
  Ho  Ho18  1  0.00000000  0.00000000  0.27487200  1
  Ho  Ho19  1  0.16599533  0.33199067  0.30821367  1
  Ho  Ho20  1  0.33333333  0.66666667  0.66630367  1
  Ho  Ho21  1  0.00564533  0.50282267  0.37485367  1
  Ho  Ho22  1  0.00000000  0.00000000  0.39945400  1
  Ho  Ho23  1  0.49717733  0.50282267  0.37485367  1
  Ho  Ho24  1  0.49717733  0.99435467  0.37485367  1
  Ho  Ho25  1  0.33879400  0.16939700  0.44151100  1
  Ho  Ho26  1  0.33333333  0.66666667  0.46611067  1
  Ho  Ho27  1  0.83060300  0.16939700  0.44151100  1
  Ho  Ho28  1  0.83060300  0.66120600  0.44151100  1
  Ho  Ho29  1  0.67073600  0.83536800  0.50830800  1
  Ho  Ho30  1  0.16463200  0.83536800  0.50830800  1
  Ho  Ho31  1  0.16463200  0.32926400  0.50830800  1
  Ho  Ho32  1  0.99986800  0.49993400  0.57495900  1
  Ho  Ho33  1  0.50006600  0.49993400  0.57495900  1
  Ho  Ho34  1  0.33333333  0.66666667  0.54154467  1
  Ho  Ho35  1  0.33467600  0.16733800  0.64154700  1
  Ho  Ho36  1  0.50006600  0.00013200  0.57495900  1
  Ho  Ho37  1  0.83266200  0.16733800  0.64154700  1
  Ho  Ho38  1  0.66666667  0.33333333  0.60820533  1
  Ho  Ho39  1  0.83266200  0.66532400  0.64154700  1
  Ho  Ho40  1  0.00000000  0.00000000  0.99963700  1
  Ho  Ho41  1  0.67231200  0.83615600  0.70818700  1
  Ho  Ho42  1  0.66666667  0.33333333  0.73278733  1
  Ho  Ho43  1  0.16384400  0.83615600  0.70818700  1
  Ho  Ho44  1  0.16384400  0.32768800  0.70818700  1
  Ho  Ho45  1  0.00546067  0.50273033  0.77484433  1
  Ho  Ho46  1  0.00000000  0.00000000  0.79944400  1
  Ho  Ho47  1  0.49726967  0.50273033  0.77484433  1
  Ho  Ho48  1  0.49726967  0.99453933  0.77484433  1
  Ho  Ho49  1  0.33740267  0.16870133  0.84164133  1
  Ho  Ho50  1  0.83129867  0.16870133  0.84164133  1
  Ho  Ho51  1  0.83129867  0.66259733  0.84164133  1
  Ho  Ho52  1  0.66653467  0.83326733  0.90829233  1
  Ho  Ho53  1  0.16673267  0.83326733  0.90829233  1
  Ho  Ho54  1  0.00000000  0.00000000  0.87487800  1
  Ho  Ho55  1  0.00134267  0.50067133  0.97488033  1
  Ho  Ho56  1  0.16673267  0.33346533  0.90829233  1
  Ho  Ho57  1  0.49932867  0.50067133  0.97488033  1
  Ho  Ho58  1  0.33333333  0.66666667  0.94153867  1
  Ho  Ho59  1  0.49932867  0.99865733  0.97488033  1
  Cd  Cd60  1  0.33333333  0.66666667  0.01712267  1
  Cd  Cd61  1  0.66666667  0.33333333  0.08388533  1
  Cd  Cd62  1  0.66666667  0.33333333  0.00913733  1
  Cd  Cd63  1  0.00000000  0.00000000  0.15065700  1
  Cd  Cd64  1  0.00000000  0.00000000  0.07563000  1
  Cd  Cd65  1  0.33333333  0.66666667  0.21685067  1
  Cd  Cd66  1  0.33333333  0.66666667  0.14235267  1
  Cd  Cd67  1  0.00000000  0.00000000  0.19984100  1
  Cd  Cd68  1  0.33333333  0.66666667  0.26660667  1
  Cd  Cd69  1  0.66666667  0.33333333  0.28320833  1
  Cd  Cd70  1  0.00000000  0.00000000  0.35045600  1
  Cd  Cd71  1  0.33333333  0.66666667  0.41721867  1
  Cd  Cd72  1  0.33333333  0.66666667  0.34247067  1
  Cd  Cd73  1  0.66666667  0.33333333  0.48399033  1
  Cd  Cd74  1  0.66666667  0.33333333  0.40896333  1
  Cd  Cd75  1  0.00000000  0.00000000  0.55018400  1
  Cd  Cd76  1  0.00000000  0.00000000  0.47568600  1
  Cd  Cd77  1  0.66666667  0.33333333  0.53317433  1
  Cd  Cd78  1  0.00000000  0.00000000  0.59994000  1
  Cd  Cd79  1  0.33333333  0.66666667  0.61654167  1
  Cd  Cd80  1  0.66666667  0.33333333  0.68378933  1
  Cd  Cd81  1  0.00000000  0.00000000  0.75055200  1
  Cd  Cd82  1  0.00000000  0.00000000  0.67580400  1
  Cd  Cd83  1  0.33333333  0.66666667  0.81732367  1
  Cd  Cd84  1  0.33333333  0.66666667  0.74229667  1
  Cd  Cd85  1  0.66666667  0.33333333  0.88351733  1
  Cd  Cd86  1  0.66666667  0.33333333  0.80901933  1
  Cd  Cd87  1  0.33333333  0.66666667  0.86650767  1
  Cd  Cd88  1  0.66666667  0.33333333  0.93327333  1
  Cd  Cd89  1  0.00000000  0.00000000  0.94987500  1
  Se  Se90  1  0.50911267  0.01822533  0.02554033  1
  Se  Se91  1  0.50911267  0.49088733  0.02554033  1
  Se  Se92  1  0.66666667  0.33333333  0.05703633  1
  Se  Se93  1  0.98177467  0.49088733  0.02554033  1
  Se  Se94  1  0.68933400  0.84466700  0.05767500  1
  Se  Se95  1  0.84257733  0.68515467  0.09221967  1
  Se  Se96  1  0.00000000  0.00000000  0.02644600  1
  Se  Se97  1  0.84257733  0.15742267  0.09221967  1
  Se  Se98  1  0.15533300  0.84466700  0.05767500  1
  Se  Se99  1  0.00000000  0.00000000  0.12373900  1
  Se  Se100  1  0.15533300  0.31066600  0.05767500  1
  Se  Se101  1  0.31484533  0.15742267  0.09221967  1
  Se  Se102  1  0.17616367  0.35232733  0.15896933  1
  Se  Se103  1  0.02271133  0.51135567  0.12435267  1
  Se  Se104  1  0.33333333  0.66666667  0.09304867  1
  Se  Se105  1  0.48864433  0.51135567  0.12435267  1
  Se  Se106  1  0.33333333  0.66666667  0.19038067  1
  Se  Se107  1  0.17616367  0.82383633  0.15896933  1
  Se  Se108  1  0.64767267  0.82383633  0.15896933  1
  Se  Se109  1  0.48864433  0.97728867  0.12435267  1
  Se  Se110  1  0.35360000  0.17680000  0.19114500  1
  Se  Se111  1  0.51002167  0.02004333  0.22553133  1
  Se  Se112  1  0.66666667  0.33333333  0.15974433  1
  Se  Se113  1  0.51002167  0.48997833  0.22553133  1
  Se  Se114  1  0.82320000  0.17680000  0.19114500  1
  Se  Se115  1  0.66666667  0.33333333  0.25683233  1
  Se  Se116  1  0.97995667  0.48997833  0.22553133  1
  Se  Se117  1  0.82320000  0.64640000  0.19114500  1
  Se  Se118  1  0.68635267  0.84317633  0.25786033  1
  Se  Se119  1  0.84303800  0.68607600  0.29208600  1
  Se  Se120  1  0.00000000  0.00000000  0.22644400  1
  Se  Se121  1  0.84303800  0.15696200  0.29208600  1
  Se  Se122  1  0.15682367  0.84317633  0.25786033  1
  Se  Se123  1  0.00000000  0.00000000  0.32355500  1
  Se  Se124  1  0.31392400  0.15696200  0.29208600  1
  Se  Se125  1  0.15682367  0.31364733  0.25786033  1
  Se  Se126  1  0.02153533  0.51076767  0.32435567  1
  Se  Se127  1  0.33333333  0.66666667  0.29312367  1
  Se  Se128  1  0.48923233  0.51076767  0.32435567  1
  Se  Se129  1  0.48923233  0.97846467  0.32435567  1
  Se  Se130  1  0.17577933  0.35155867  0.35887367  1
  Se  Se131  1  0.17577933  0.82422067  0.35887367  1
  Se  Se132  1  0.33333333  0.66666667  0.39036967  1
  Se  Se133  1  0.64844133  0.82422067  0.35887367  1
  Se  Se134  1  0.35600067  0.17800033  0.39100833  1
  Se  Se135  1  0.50924400  0.01848800  0.42555300  1
  Se  Se136  1  0.66666667  0.33333333  0.35977933  1
  Se  Se137  1  0.50924400  0.49075600  0.42555300  1
  Se  Se138  1  0.82199967  0.17800033  0.39100833  1
  Se  Se139  1  0.66666667  0.33333333  0.45707233  1
  Se  Se140  1  0.82199967  0.64399933  0.39100833  1
  Se  Se141  1  0.98151200  0.49075600  0.42555300  1
  Se  Se142  1  0.84283033  0.68566067  0.49230267  1
  Se  Se143  1  0.68937800  0.84468900  0.45768600  1
  Se  Se144  1  0.00000000  0.00000000  0.42638200  1
  Se  Se145  1  0.15531100  0.84468900  0.45768600  1
  Se  Se146  1  0.00000000  0.00000000  0.52371400  1
  Se  Se147  1  0.84283033  0.15716967  0.49230267  1
  Se  Se148  1  0.31433933  0.15716967  0.49230267  1
  Se  Se149  1  0.15531100  0.31062200  0.45768600  1
  Se  Se150  1  0.02026667  0.51013333  0.52447833  1
  Se  Se151  1  0.17668833  0.35337667  0.55886467  1
  Se  Se152  1  0.33333333  0.66666667  0.49307767  1
  Se  Se153  1  0.17668833  0.82331167  0.55886467  1
  Se  Se154  1  0.48986667  0.51013333  0.52447833  1
  Se  Se155  1  0.33333333  0.66666667  0.59016567  1
  Se  Se156  1  0.64662333  0.82331167  0.55886467  1
  Se  Se157  1  0.48986667  0.97973333  0.52447833  1
  Se  Se158  1  0.35301933  0.17650967  0.59119367  1
  Se  Se159  1  0.50970467  0.01940933  0.62541933  1
  Se  Se160  1  0.66666667  0.33333333  0.55977733  1
  Se  Se161  1  0.50970467  0.49029533  0.62541933  1
  Se  Se162  1  0.82349033  0.17650967  0.59119367  1
  Se  Se163  1  0.66666667  0.33333333  0.65688833  1
  Se  Se164  1  0.98059067  0.49029533  0.62541933  1
  Se  Se165  1  0.82349033  0.64698067  0.59119367  1
  Se  Se166  1  0.68820200  0.84410100  0.65768900  1
  Se  Se167  1  0.00000000  0.00000000  0.62645700  1
  Se  Se168  1  0.15589900  0.84410100  0.65768900  1
  Se  Se169  1  0.15589900  0.31179800  0.65768900  1
  Se  Se170  1  0.84244600  0.68489200  0.69220700  1
  Se  Se171  1  0.84244600  0.15755400  0.69220700  1
  Se  Se172  1  0.00000000  0.00000000  0.72370300  1
  Se  Se173  1  0.31510800  0.15755400  0.69220700  1
  Se  Se174  1  0.02266733  0.51133367  0.72434167  1
  Se  Se175  1  0.17591067  0.35182133  0.75888633  1
  Se  Se176  1  0.33333333  0.66666667  0.69311267  1
  Se  Se177  1  0.17591067  0.82408933  0.75888633  1
  Se  Se178  1  0.48866633  0.51133367  0.72434167  1
  Se  Se179  1  0.33333333  0.66666667  0.79040567  1
  Se  Se180  1  0.48866633  0.97733267  0.72434167  1
  Se  Se181  1  0.64817867  0.82408933  0.75888633  1
  Se  Se182  1  0.50949700  0.01899400  0.82563600  1
  Se  Se183  1  0.35604467  0.17802233  0.79101933  1
  Se  Se184  1  0.66666667  0.33333333  0.75971533  1
  Se  Se185  1  0.82197767  0.17802233  0.79101933  1
  Se  Se186  1  0.66666667  0.33333333  0.85704733  1
  Se  Se187  1  0.50949700  0.49050300  0.82563600  1
  Se  Se188  1  0.98100600  0.49050300  0.82563600  1
  Se  Se189  1  0.82197767  0.64395533  0.79101933  1
  Se  Se190  1  0.68693333  0.84346667  0.85781167  1
  Se  Se191  1  0.84335500  0.68671000  0.89219800  1
  Se  Se192  1  0.00000000  0.00000000  0.82641100  1
  Se  Se193  1  0.84335500  0.15664500  0.89219800  1
  Se  Se194  1  0.15653333  0.84346667  0.85781167  1
  Se  Se195  1  0.00000000  0.00000000  0.92349900  1
  Se  Se196  1  0.31329000  0.15664500  0.89219800  1
  Se  Se197  1  0.15653333  0.31306667  0.85781167  1
  Se  Se198  1  0.01968600  0.50984300  0.92452700  1
  Se  Se199  1  0.17637133  0.35274267  0.95875267  1
  Se  Se200  1  0.33333333  0.66666667  0.89311067  1
  Se  Se201  1  0.17637133  0.82362867  0.95875267  1
  Se  Se202  1  0.49015700  0.50984300  0.92452700  1
  Se  Se203  1  0.33333333  0.66666667  0.99022167  1
  Se  Se204  1  0.64725733  0.82362867  0.95875267  1
  Se  Se205  1  0.49015700  0.98031400  0.92452700  1
  Se  Se206  1  0.35486867  0.17743433  0.99102233  1
  Se  Se207  1  0.66666667  0.33333333  0.95979033  1
  Se  Se208  1  0.82256567  0.17743433  0.99102233  1
  Se  Se209  1  0.82256567  0.64513133  0.99102233  1
