# generated using pymatgen
data_K3Bi5(AsO4)6
_symmetry_space_group_name_H-M   'P 1'
_cell_length_a   18.41019000
_cell_length_b   7.31358200
_cell_length_c   19.49083486
_cell_angle_alpha   90.00000000
_cell_angle_beta   115.27804609
_cell_angle_gamma   90.00000000
_symmetry_Int_Tables_number   1
_chemical_formula_structural   K3Bi5(AsO4)6
_chemical_formula_sum   'K12 Bi20 As24 O96'
_cell_volume   2373.04271559
_cell_formula_units_Z   4
loop_
 _symmetry_equiv_pos_site_id
 _symmetry_equiv_pos_as_xyz
  1  'x, y, z'
loop_
 _atom_site_type_symbol
 _atom_site_label
 _atom_site_symmetry_multiplicity
 _atom_site_fract_x
 _atom_site_fract_y
 _atom_site_fract_z
 _atom_site_occupancy
  K  K0  1  0.50000000  0.19414200  0.75000000  1
  K  K1  1  0.57552900  0.10985800  0.58234500  1
  K  K2  1  0.07552900  0.39014200  0.08234500  1
  K  K3  1  0.92447100  0.60985800  0.91765500  1
  K  K4  1  0.50000000  0.80585800  0.25000000  1
  K  K5  1  0.42447100  0.89014200  0.41765500  1
  K  K6  1  0.00000000  0.69414200  0.75000000  1
  K  K7  1  0.07552900  0.60985800  0.58234500  1
  K  K8  1  0.57552900  0.89014200  0.08234500  1
  K  K9  1  0.42447100  0.10985800  0.91765500  1
  K  K10  1  0.00000000  0.30585800  0.25000000  1
  K  K11  1  0.92447100  0.39014200  0.41765500  1
  Bi  Bi12  1  0.71841700  0.89661200  0.79846600  1
  Bi  Bi13  1  0.36326050  0.40409650  0.52728600  1
  Bi  Bi14  1  0.36326050  0.59590350  0.02728600  1
  Bi  Bi15  1  0.50000000  0.65888500  0.75000000  1
  Bi  Bi16  1  0.21841700  0.60338800  0.29846600  1
  Bi  Bi17  1  0.78158300  0.39661200  0.70153400  1
  Bi  Bi18  1  0.63673950  0.40409650  0.97271400  1
  Bi  Bi19  1  0.28158300  0.10338800  0.20153400  1
  Bi  Bi20  1  0.63673950  0.59590350  0.47271400  1
  Bi  Bi21  1  0.50000000  0.34111500  0.25000000  1
  Bi  Bi22  1  0.21841700  0.39661200  0.79846600  1
  Bi  Bi23  1  0.86326050  0.90409650  0.52728600  1
  Bi  Bi24  1  0.86326050  0.09590350  0.02728600  1
  Bi  Bi25  1  0.00000000  0.15888500  0.75000000  1
  Bi  Bi26  1  0.71841700  0.10338800  0.29846600  1
  Bi  Bi27  1  0.28158300  0.89661200  0.70153400  1
  Bi  Bi28  1  0.13673950  0.90409650  0.97271400  1
  Bi  Bi29  1  0.78158300  0.60338800  0.20153400  1
  Bi  Bi30  1  0.13673950  0.09590350  0.47271400  1
  Bi  Bi31  1  0.00000000  0.84111500  0.25000000  1
  As  As32  1  0.36923500  0.08025300  0.08592900  1
  As  As33  1  0.78715800  0.87586500  0.65409400  1
  As  As34  1  0.63076500  0.91974700  0.91407100  1
  As  As35  1  0.21284200  0.12413500  0.34590600  1
  As  As36  1  0.36923500  0.91974700  0.58592900  1
  As  As37  1  0.63076500  0.08025300  0.41407100  1
  As  As38  1  0.28715800  0.62413500  0.15409400  1
  As  As39  1  0.92934300  0.09396500  0.88378900  1
  As  As40  1  0.71284200  0.37586500  0.84590600  1
  As  As41  1  0.57065700  0.59396500  0.61621100  1
  As  As42  1  0.07065700  0.90603500  0.11621100  1
  As  As43  1  0.42934300  0.40603500  0.38378900  1
  As  As44  1  0.86923500  0.58025300  0.08592900  1
  As  As45  1  0.28715800  0.37586500  0.65409400  1
  As  As46  1  0.13076500  0.41974700  0.91407100  1
  As  As47  1  0.71284200  0.62413500  0.34590600  1
  As  As48  1  0.86923500  0.41974700  0.58592900  1
  As  As49  1  0.13076500  0.58025300  0.41407100  1
  As  As50  1  0.78715800  0.12413500  0.15409400  1
  As  As51  1  0.42934300  0.59396500  0.88378900  1
  As  As52  1  0.21284200  0.87586500  0.84590600  1
  As  As53  1  0.07065700  0.09396500  0.61621100  1
  As  As54  1  0.57065700  0.40603500  0.11621100  1
  As  As55  1  0.92934300  0.90603500  0.38378900  1
  O  O56  1  0.58216750  0.88166950  0.81486800  1
  O  O57  1  0.61074150  0.75997650  0.96607100  1
  O  O58  1  0.22849300  0.57622300  0.42274200  1
  O  O59  1  0.58554150  0.24766850  0.18740000  1
  O  O60  1  0.58878050  0.12844450  0.91783900  1
  O  O61  1  0.41445850  0.75233150  0.81260000  1
  O  O62  1  0.23441950  0.67216650  0.05971500  1
  O  O63  1  0.58878050  0.87155550  0.41783900  1
  O  O64  1  0.18292300  0.30959900  0.28379400  1
  O  O65  1  0.44586750  0.29776450  0.46725500  1
  O  O66  1  0.77150700  0.42377700  0.57725800  1
  O  O67  1  0.41121950  0.12844450  0.58216100  1
  O  O68  1  0.37366250  0.52424650  0.15814200  1
  O  O69  1  0.65190800  0.45354500  0.63109900  1
  O  O70  1  0.27150700  0.07622300  0.07725800  1
  O  O71  1  0.37366250  0.47575350  0.65814200  1
  O  O72  1  0.58216750  0.11833050  0.31486800  1
  O  O73  1  0.23566150  0.48035150  0.18825300  1
  O  O74  1  0.55413250  0.70223550  0.53274500  1
  O  O75  1  0.05413250  0.79776450  0.03274500  1
  O  O76  1  0.41783250  0.88166950  0.68513200  1
  O  O77  1  0.62633750  0.47575350  0.84185800  1
  O  O78  1  0.50127700  0.45095300  0.87885100  1
  O  O79  1  0.34809200  0.54645500  0.36890100  1
  O  O80  1  0.41121950  0.87155550  0.08216100  1
  O  O81  1  0.76433850  0.51964850  0.81174700  1
  O  O82  1  0.31707700  0.80959900  0.21620600  1
  O  O83  1  0.38925850  0.24002350  0.03392900  1
  O  O84  1  0.50127700  0.54904700  0.37885100  1
  O  O85  1  0.62633750  0.52424650  0.34185800  1
  O  O86  1  0.41445850  0.24766850  0.31260000  1
  O  O87  1  0.61074150  0.24002350  0.46607100  1
  O  O88  1  0.49872300  0.45095300  0.62114900  1
  O  O89  1  0.49872300  0.54904700  0.12114900  1
  O  O90  1  0.76558050  0.32783350  0.94028500  1
  O  O91  1  0.26433850  0.98035150  0.31174700  1
  O  O92  1  0.38925850  0.75997650  0.53392900  1
  O  O93  1  0.72849300  0.92377700  0.92274200  1
  O  O94  1  0.73441950  0.82783350  0.55971500  1
  O  O95  1  0.58554150  0.75233150  0.68740000  1
  O  O96  1  0.26558050  0.17216650  0.44028500  1
  O  O97  1  0.81707700  0.69040100  0.71620600  1
  O  O98  1  0.73566150  0.01964850  0.68825300  1
  O  O99  1  0.84809200  0.95354500  0.86890100  1
  O  O100  1  0.41783250  0.11833050  0.18513200  1
  O  O101  1  0.94586750  0.20223550  0.96725500  1
  O  O102  1  0.68292300  0.19040100  0.78379400  1
  O  O103  1  0.15190800  0.04645500  0.13109900  1
  O  O104  1  0.08216750  0.38166950  0.81486800  1
  O  O105  1  0.11074150  0.25997650  0.96607100  1
  O  O106  1  0.72849300  0.07622300  0.42274200  1
  O  O107  1  0.08554150  0.74766850  0.18740000  1
  O  O108  1  0.08878050  0.62844450  0.91783900  1
  O  O109  1  0.91445850  0.25233150  0.81260000  1
  O  O110  1  0.73441950  0.17216650  0.05971500  1
  O  O111  1  0.08878050  0.37155550  0.41783900  1
  O  O112  1  0.68292300  0.80959900  0.28379400  1
  O  O113  1  0.94586750  0.79776450  0.46725500  1
  O  O114  1  0.27150700  0.92377700  0.57725800  1
  O  O115  1  0.91121950  0.62844450  0.58216100  1
  O  O116  1  0.87366250  0.02424650  0.15814200  1
  O  O117  1  0.15190800  0.95354500  0.63109900  1
  O  O118  1  0.77150700  0.57622300  0.07725800  1
  O  O119  1  0.87366250  0.97575350  0.65814200  1
  O  O120  1  0.08216750  0.61833050  0.31486800  1
  O  O121  1  0.73566150  0.98035150  0.18825300  1
  O  O122  1  0.05413250  0.20223550  0.53274500  1
  O  O123  1  0.55413250  0.29776450  0.03274500  1
  O  O124  1  0.91783250  0.38166950  0.68513200  1
  O  O125  1  0.12633750  0.97575350  0.84185800  1
  O  O126  1  0.00127700  0.95095300  0.87885100  1
  O  O127  1  0.84809200  0.04645500  0.36890100  1
  O  O128  1  0.91121950  0.37155550  0.08216100  1
  O  O129  1  0.26433850  0.01964850  0.81174700  1
  O  O130  1  0.81707700  0.30959900  0.21620600  1
  O  O131  1  0.88925850  0.74002350  0.03392900  1
  O  O132  1  0.00127700  0.04904700  0.37885100  1
  O  O133  1  0.12633750  0.02424650  0.34185800  1
  O  O134  1  0.91445850  0.74766850  0.31260000  1
  O  O135  1  0.11074150  0.74002350  0.46607100  1
  O  O136  1  0.99872300  0.95095300  0.62114900  1
  O  O137  1  0.99872300  0.04904700  0.12114900  1
  O  O138  1  0.26558050  0.82783350  0.94028500  1
  O  O139  1  0.76433850  0.48035150  0.31174700  1
  O  O140  1  0.88925850  0.25997650  0.53392900  1
  O  O141  1  0.22849300  0.42377700  0.92274200  1
  O  O142  1  0.23441950  0.32783350  0.55971500  1
  O  O143  1  0.08554150  0.25233150  0.68740000  1
  O  O144  1  0.76558050  0.67216650  0.44028500  1
  O  O145  1  0.31707700  0.19040100  0.71620600  1
  O  O146  1  0.23566150  0.51964850  0.68825300  1
  O  O147  1  0.34809200  0.45354500  0.86890100  1
  O  O148  1  0.91783250  0.61833050  0.18513200  1
  O  O149  1  0.44586750  0.70223550  0.96725500  1
  O  O150  1  0.18292300  0.69040100  0.78379400  1
  O  O151  1  0.65190800  0.54645500  0.13109900  1
