# generated using pymatgen
data_Na15SnGe8P
_symmetry_space_group_name_H-M   'P 1'
_cell_length_a   12.94825800
_cell_length_b   17.64697400
_cell_length_c   11.25497800
_cell_angle_alpha   90.00000000
_cell_angle_beta   90.00000000
_cell_angle_gamma   90.00000000
_symmetry_Int_Tables_number   1
_chemical_formula_structural   Na15SnGe8P
_chemical_formula_sum   'Na60 Sn4 Ge32 P4'
_cell_volume   2571.73514897
_cell_formula_units_Z   4
loop_
 _symmetry_equiv_pos_site_id
 _symmetry_equiv_pos_as_xyz
  1  'x, y, z'
loop_
 _atom_site_type_symbol
 _atom_site_label
 _atom_site_symmetry_multiplicity
 _atom_site_fract_x
 _atom_site_fract_y
 _atom_site_fract_z
 _atom_site_occupancy
  Na  Na0  1  0.41259100  0.13048700  0.38340900  1
  Na  Na1  1  0.14845250  0.08420050  0.25000000  1
  Na  Na2  1  0.14845250  0.91579950  0.25000000  1
  Na  Na3  1  0.58740900  0.86951300  0.88340900  1
  Na  Na4  1  0.89626650  0.90713550  0.25000000  1
  Na  Na5  1  0.74914350  0.00000000  0.50305700  1
  Na  Na6  1  0.58740900  0.13048700  0.88340900  1
  Na  Na7  1  0.63138550  0.68958350  0.49922300  1
  Na  Na8  1  0.25085650  0.00000000  0.00305700  1
  Na  Na9  1  0.63138550  0.31041650  0.49922300  1
  Na  Na10  1  0.36861450  0.31041650  0.99922300  1
  Na  Na11  1  0.10373350  0.09286450  0.75000000  1
  Na  Na12  1  0.74914350  0.00000000  0.99694300  1
  Na  Na13  1  0.10373350  0.90713550  0.75000000  1
  Na  Na14  1  0.43263300  0.00000000  0.75000000  1
  Na  Na15  1  0.36861450  0.68958350  0.50077700  1
  Na  Na16  1  0.36861450  0.68958350  0.99922300  1
  Na  Na17  1  0.36861450  0.31041650  0.50077700  1
  Na  Na18  1  0.89626650  0.09286450  0.25000000  1
  Na  Na19  1  0.41259100  0.86951300  0.38340900  1
  Na  Na20  1  0.58740900  0.13048700  0.61659100  1
  Na  Na21  1  0.41259100  0.86951300  0.11659100  1
  Na  Na22  1  0.85154750  0.91579950  0.75000000  1
  Na  Na23  1  0.63138550  0.31041650  0.00077700  1
  Na  Na24  1  0.58740900  0.86951300  0.61659100  1
  Na  Na25  1  0.25085650  0.00000000  0.49694300  1
  Na  Na26  1  0.85154750  0.08420050  0.75000000  1
  Na  Na27  1  0.63138550  0.68958350  0.00077700  1
  Na  Na28  1  0.41259100  0.13048700  0.11659100  1
  Na  Na29  1  0.56736700  0.00000000  0.25000000  1
  Na  Na30  1  0.91259100  0.63048700  0.38340900  1
  Na  Na31  1  0.64845250  0.58420050  0.25000000  1
  Na  Na32  1  0.64845250  0.41579950  0.25000000  1
  Na  Na33  1  0.08740900  0.36951300  0.88340900  1
  Na  Na34  1  0.39626650  0.40713550  0.25000000  1
  Na  Na35  1  0.24914350  0.50000000  0.50305700  1
  Na  Na36  1  0.08740900  0.63048700  0.88340900  1
  Na  Na37  1  0.13138550  0.18958350  0.49922300  1
  Na  Na38  1  0.75085650  0.50000000  0.00305700  1
  Na  Na39  1  0.13138550  0.81041650  0.49922300  1
  Na  Na40  1  0.86861450  0.81041650  0.99922300  1
  Na  Na41  1  0.60373350  0.59286450  0.75000000  1
  Na  Na42  1  0.24914350  0.50000000  0.99694300  1
  Na  Na43  1  0.60373350  0.40713550  0.75000000  1
  Na  Na44  1  0.93263300  0.50000000  0.75000000  1
  Na  Na45  1  0.86861450  0.18958350  0.50077700  1
  Na  Na46  1  0.86861450  0.18958350  0.99922300  1
  Na  Na47  1  0.86861450  0.81041650  0.50077700  1
  Na  Na48  1  0.39626650  0.59286450  0.25000000  1
  Na  Na49  1  0.91259100  0.36951300  0.38340900  1
  Na  Na50  1  0.08740900  0.63048700  0.61659100  1
  Na  Na51  1  0.91259100  0.36951300  0.11659100  1
  Na  Na52  1  0.35154750  0.41579950  0.75000000  1
  Na  Na53  1  0.13138550  0.81041650  0.00077700  1
  Na  Na54  1  0.08740900  0.36951300  0.61659100  1
  Na  Na55  1  0.75085650  0.50000000  0.49694300  1
  Na  Na56  1  0.35154750  0.58420050  0.75000000  1
  Na  Na57  1  0.13138550  0.18958350  0.00077700  1
  Na  Na58  1  0.91259100  0.63048700  0.11659100  1
  Na  Na59  1  0.06736700  0.50000000  0.25000000  1
  Sn  Sn60  1  0.00000000  0.00000000  0.50000000  1
  Sn  Sn61  1  0.00000000  0.00000000  0.00000000  1
  Sn  Sn62  1  0.50000000  0.50000000  0.50000000  1
  Sn  Sn63  1  0.50000000  0.50000000  0.00000000  1
  Ge  Ge64  1  0.25805650  0.24678450  0.25000000  1
  Ge  Ge65  1  0.44648450  0.74979050  0.75000000  1
  Ge  Ge66  1  0.44648450  0.25020950  0.75000000  1
  Ge  Ge67  1  0.66313050  0.14607250  0.36375900  1
  Ge  Ge68  1  0.33686950  0.14607250  0.63624100  1
  Ge  Ge69  1  0.33686950  0.85392750  0.63624100  1
  Ge  Ge70  1  0.74194350  0.75321550  0.75000000  1
  Ge  Ge71  1  0.33686950  0.85392750  0.86375900  1
  Ge  Ge72  1  0.74194350  0.24678450  0.75000000  1
  Ge  Ge73  1  0.66313050  0.85392750  0.36375900  1
  Ge  Ge74  1  0.33686950  0.14607250  0.86375900  1
  Ge  Ge75  1  0.66313050  0.14607250  0.13624100  1
  Ge  Ge76  1  0.55351550  0.74979050  0.25000000  1
  Ge  Ge77  1  0.25805650  0.75321550  0.25000000  1
  Ge  Ge78  1  0.66313050  0.85392750  0.13624100  1
  Ge  Ge79  1  0.55351550  0.25020950  0.25000000  1
  Ge  Ge80  1  0.75805650  0.74678450  0.25000000  1
  Ge  Ge81  1  0.94648450  0.24979050  0.75000000  1
  Ge  Ge82  1  0.94648450  0.75020950  0.75000000  1
  Ge  Ge83  1  0.16313050  0.64607250  0.36375900  1
  Ge  Ge84  1  0.83686950  0.64607250  0.63624100  1
  Ge  Ge85  1  0.83686950  0.35392750  0.63624100  1
  Ge  Ge86  1  0.24194350  0.25321550  0.75000000  1
  Ge  Ge87  1  0.83686950  0.35392750  0.86375900  1
  Ge  Ge88  1  0.24194350  0.74678450  0.75000000  1
  Ge  Ge89  1  0.16313050  0.35392750  0.36375900  1
  Ge  Ge90  1  0.83686950  0.64607250  0.86375900  1
  Ge  Ge91  1  0.16313050  0.64607250  0.13624100  1
  Ge  Ge92  1  0.05351550  0.24979050  0.25000000  1
  Ge  Ge93  1  0.75805650  0.25321550  0.25000000  1
  Ge  Ge94  1  0.16313050  0.35392750  0.13624100  1
  Ge  Ge95  1  0.05351550  0.75020950  0.25000000  1
  P  P96  1  0.34384600  0.00000000  0.25000000  1
  P  P97  1  0.65615400  0.00000000  0.75000000  1
  P  P98  1  0.84384600  0.50000000  0.25000000  1
  P  P99  1  0.15615400  0.50000000  0.75000000  1
