# generated using pymatgen
data_CsAuSe
_symmetry_space_group_name_H-M   'P 1'
_cell_length_a   7.36502000
_cell_length_b   8.79711800
_cell_length_c   7.20388300
_cell_angle_alpha   90.00000000
_cell_angle_beta   90.00000000
_cell_angle_gamma   90.00000000
_symmetry_Int_Tables_number   1
_chemical_formula_structural   CsAuSe
_chemical_formula_sum   'Cs4 Au4 Se4'
_cell_volume   466.74642335
_cell_formula_units_Z   4
loop_
 _symmetry_equiv_pos_site_id
 _symmetry_equiv_pos_as_xyz
  1  'x, y, z'
loop_
 _atom_site_type_symbol
 _atom_site_label
 _atom_site_symmetry_multiplicity
 _atom_site_fract_x
 _atom_site_fract_y
 _atom_site_fract_z
 _atom_site_occupancy
  Cs  Cs0  1  0.50000000  0.86911600  0.75000000  1
  Cs  Cs1  1  0.50000000  0.13088400  0.25000000  1
  Cs  Cs2  1  0.00000000  0.36911600  0.75000000  1
  Cs  Cs3  1  0.00000000  0.63088400  0.25000000  1
  Au  Au4  1  0.00000000  0.00000000  0.50000000  1
  Au  Au5  1  0.00000000  0.00000000  0.00000000  1
  Au  Au6  1  0.50000000  0.50000000  0.50000000  1
  Au  Au7  1  0.50000000  0.50000000  0.00000000  1
  Se  Se8  1  0.50000000  0.30900500  0.75000000  1
  Se  Se9  1  0.50000000  0.69099500  0.25000000  1
  Se  Se10  1  0.00000000  0.80900500  0.75000000  1
  Se  Se11  1  0.00000000  0.19099500  0.25000000  1
