# generated using pymatgen
data_Zr2H12(N2O7)5
_symmetry_space_group_name_H-M   'P 1'
_cell_length_a   10.54590333
_cell_length_b   10.54590333
_cell_length_c   15.00515800
_cell_angle_alpha   90.00000000
_cell_angle_beta   90.00000000
_cell_angle_gamma   120.00000000
_symmetry_Int_Tables_number   1
_chemical_formula_structural   Zr2H12(N2O7)5
_chemical_formula_sum   'Zr4 H24 N20 O70'
_cell_volume   1445.23601902
_cell_formula_units_Z   2
loop_
 _symmetry_equiv_pos_site_id
 _symmetry_equiv_pos_as_xyz
  1  'x, y, z'
loop_
 _atom_site_type_symbol
 _atom_site_label
 _atom_site_symmetry_multiplicity
 _atom_site_fract_x
 _atom_site_fract_y
 _atom_site_fract_z
 _atom_site_occupancy
  Zr  Zr0  1  0.33333333  0.66666667  0.03710800  1
  Zr  Zr1  1  0.33333333  0.66666667  0.53710800  1
  Zr  Zr2  1  0.66666667  0.33333333  0.46289200  1
  Zr  Zr3  1  0.66666667  0.33333333  0.96289200  1
  H  H4  1  0.45688533  0.56688067  0.67595100  1
  H  H5  1  0.81656533  0.56002167  0.33332500  1
  H  H6  1  0.89000467  0.43311933  0.82404900  1
  H  H7  1  0.18343467  0.43997833  0.66667500  1
  H  H8  1  0.43997833  0.25654367  0.33332500  1
  H  H9  1  0.25654367  0.81656533  0.66667500  1
  H  H10  1  0.74345633  0.18343467  0.33332500  1
  H  H11  1  0.56002167  0.81656533  0.16667500  1
  H  H12  1  0.45688533  0.89000467  0.17595100  1
  H  H13  1  0.54311467  0.10999533  0.82404900  1
  H  H14  1  0.25654367  0.43997833  0.16667500  1
  H  H15  1  0.56688067  0.45688533  0.82404900  1
  H  H16  1  0.43997833  0.18343467  0.83332500  1
  H  H17  1  0.43311933  0.54311467  0.17595100  1
  H  H18  1  0.18343467  0.74345633  0.16667500  1
  H  H19  1  0.56688067  0.10999533  0.32404900  1
  H  H20  1  0.56002167  0.74345633  0.66667500  1
  H  H21  1  0.43311933  0.89000467  0.67595100  1
  H  H22  1  0.10999533  0.54311467  0.67595100  1
  H  H23  1  0.54311467  0.43311933  0.32404900  1
  H  H24  1  0.89000467  0.45688533  0.32404900  1
  H  H25  1  0.81656533  0.25654367  0.83332500  1
  H  H26  1  0.10999533  0.56688067  0.17595100  1
  H  H27  1  0.74345633  0.56002167  0.83332500  1
  N  N28  1  0.68950800  0.68950800  0.25000000  1
  N  N29  1  0.00000000  0.31049200  0.25000000  1
  N  N30  1  0.22977633  0.40241667  0.45347200  1
  N  N31  1  0.77022367  0.17264033  0.04652800  1
  N  N32  1  0.17264033  0.40241667  0.95347200  1
  N  N33  1  0.40241667  0.17264033  0.54652800  1
  N  N34  1  0.31049200  0.00000000  0.25000000  1
  N  N35  1  0.17264033  0.77022367  0.45347200  1
  N  N36  1  0.59758333  0.77022367  0.95347200  1
  N  N37  1  0.77022367  0.59758333  0.54652800  1
  N  N38  1  0.00000000  0.00000000  0.75000000  1
  N  N39  1  0.40241667  0.22977633  0.04652800  1
  N  N40  1  0.22977633  0.82735967  0.95347200  1
  N  N41  1  0.00000000  0.68950800  0.75000000  1
  N  N42  1  0.31049200  0.31049200  0.75000000  1
  N  N43  1  0.82735967  0.22977633  0.54652800  1
  N  N44  1  0.59758333  0.82735967  0.45347200  1
  N  N45  1  0.68950800  0.00000000  0.75000000  1
  N  N46  1  0.00000000  0.00000000  0.25000000  1
  N  N47  1  0.82735967  0.59758333  0.04652800  1
  O  O48  1  0.10481333  0.80250067  0.71563900  1
  O  O49  1  0.80087433  0.49857767  0.57243600  1
  O  O50  1  0.87339133  0.55741967  0.97775100  1
  O  O51  1  0.71535133  0.81619167  0.91698800  1
  O  O52  1  0.80250067  0.69768733  0.28436100  1
  O  O53  1  0.65273933  0.16856867  0.36388600  1
  O  O54  1  0.10084033  0.81619167  0.41698800  1
  O  O55  1  0.48417067  0.65273933  0.63611400  1
  O  O56  1  0.43179250  0.00000000  0.25000000  1
  O  O57  1  0.55741967  0.68402833  0.02224900  1
  O  O58  1  0.30229667  0.80087433  0.42756400  1
  O  O59  1  0.83143133  0.34726067  0.86388600  1
  O  O60  1  0.43179250  0.43179250  0.75000000  1
  O  O61  1  0.51582933  0.16856867  0.86388600  1
  O  O62  1  0.89518667  0.69768733  0.78436100  1
  O  O63  1  0.89518667  0.19749933  0.28436100  1
  O  O64  1  0.30231267  0.10481333  0.28436100  1
  O  O65  1  0.83143133  0.48417067  0.36388600  1
  O  O66  1  0.19912567  0.69770333  0.92756400  1
  O  O67  1  0.80087433  0.30229667  0.07243600  1
  O  O68  1  0.80250067  0.10481333  0.78436100  1
  O  O69  1  0.12660867  0.44258033  0.02224900  1
  O  O70  1  0.89915967  0.18380833  0.58301200  1
  O  O71  1  0.51582933  0.34726067  0.36388600  1
  O  O72  1  0.00000000  0.00000000  0.17412800  1
  O  O73  1  0.69770333  0.19912567  0.57243600  1
  O  O74  1  0.55741967  0.87339133  0.52224900  1
  O  O75  1  0.69770333  0.49857767  0.07243600  1
  O  O76  1  0.89915967  0.71535133  0.08301200  1
  O  O77  1  0.10481333  0.30231267  0.21563900  1
  O  O78  1  0.12660867  0.68402833  0.52224900  1
  O  O79  1  0.34726067  0.51582933  0.13611400  1
  O  O80  1  0.69768733  0.89518667  0.71563900  1
  O  O81  1  0.18380833  0.89915967  0.91698800  1
  O  O82  1  0.50142233  0.19912567  0.07243600  1
  O  O83  1  0.30229667  0.50142233  0.92756400  1
  O  O84  1  0.16856867  0.65273933  0.13611400  1
  O  O85  1  0.31597167  0.44258033  0.52224900  1
  O  O86  1  0.68402833  0.55741967  0.47775100  1
  O  O87  1  0.34726067  0.83143133  0.63611400  1
  O  O88  1  0.81619167  0.10084033  0.08301200  1
  O  O89  1  0.50142233  0.30229667  0.57243600  1
  O  O90  1  0.28464867  0.10084033  0.58301200  1
  O  O91  1  0.44258033  0.12660867  0.47775100  1
  O  O92  1  0.48417067  0.83143133  0.13611400  1
  O  O93  1  0.00000000  0.00000000  0.67412800  1
  O  O94  1  0.49857767  0.69770333  0.42756400  1
  O  O95  1  0.16856867  0.51582933  0.63611400  1
  O  O96  1  0.49857767  0.80087433  0.92756400  1
  O  O97  1  0.00000000  0.56820750  0.75000000  1
  O  O98  1  0.44258033  0.31597167  0.97775100  1
  O  O99  1  0.69768733  0.80250067  0.21563900  1
  O  O100  1  0.87339133  0.31597167  0.47775100  1
  O  O101  1  0.56820750  0.00000000  0.75000000  1
  O  O102  1  0.81619167  0.71535133  0.58301200  1
  O  O103  1  0.10084033  0.28464867  0.91698800  1
  O  O104  1  0.00000000  0.00000000  0.82587200  1
  O  O105  1  0.65273933  0.48417067  0.86388600  1
  O  O106  1  0.19912567  0.50142233  0.42756400  1
  O  O107  1  0.00000000  0.43179250  0.25000000  1
  O  O108  1  0.56820750  0.56820750  0.25000000  1
  O  O109  1  0.18380833  0.28464867  0.41698800  1
  O  O110  1  0.00000000  0.00000000  0.32587200  1
  O  O111  1  0.71535133  0.89915967  0.41698800  1
  O  O112  1  0.19749933  0.89518667  0.21563900  1
  O  O113  1  0.28464867  0.18380833  0.08301200  1
  O  O114  1  0.30231267  0.19749933  0.78436100  1
  O  O115  1  0.19749933  0.30231267  0.71563900  1
  O  O116  1  0.31597167  0.87339133  0.02224900  1
  O  O117  1  0.68402833  0.12660867  0.97775100  1
