# generated using pymatgen
data_Pb2CO3F2
_symmetry_space_group_name_H-M   'P 1'
_cell_length_a   7.00141800
_cell_length_b   8.17462600
_cell_length_c   8.38976100
_cell_angle_alpha   90.00000000
_cell_angle_beta   90.00000000
_cell_angle_gamma   90.00000000
_symmetry_Int_Tables_number   1
_chemical_formula_structural   Pb2CO3F2
_chemical_formula_sum   'Pb8 C4 O12 F8'
_cell_volume   480.17935975
_cell_formula_units_Z   4
loop_
 _symmetry_equiv_pos_site_id
 _symmetry_equiv_pos_as_xyz
  1  'x, y, z'
loop_
 _atom_site_type_symbol
 _atom_site_label
 _atom_site_symmetry_multiplicity
 _atom_site_fract_x
 _atom_site_fract_y
 _atom_site_fract_z
 _atom_site_occupancy
  Pb  Pb0  1  0.55331300  0.31663200  0.34118000  1
  Pb  Pb1  1  0.44668700  0.81663200  0.15882000  1
  Pb  Pb2  1  0.05331300  0.31663200  0.65882000  1
  Pb  Pb3  1  0.44668700  0.68336800  0.65882000  1
  Pb  Pb4  1  0.05331300  0.18336800  0.15882000  1
  Pb  Pb5  1  0.94668700  0.81663200  0.84118000  1
  Pb  Pb6  1  0.55331300  0.18336800  0.84118000  1
  Pb  Pb7  1  0.94668700  0.68336800  0.34118000  1
  C  C8  1  0.25000000  0.50000000  0.01963500  1
  C  C9  1  0.25000000  0.00000000  0.51963500  1
  C  C10  1  0.75000000  0.00000000  0.48036500  1
  C  C11  1  0.75000000  0.50000000  0.98036500  1
  O  O12  1  0.75000000  0.00000000  0.32544800  1
  O  O13  1  0.25000000  0.50000000  0.17455200  1
  O  O14  1  0.80575600  0.62986500  0.05762200  1
  O  O15  1  0.30575600  0.87013500  0.44237800  1
  O  O16  1  0.69424400  0.12986500  0.55762200  1
  O  O17  1  0.75000000  0.50000000  0.82544800  1
  O  O18  1  0.19424400  0.37013500  0.94237800  1
  O  O19  1  0.69424400  0.37013500  0.05762200  1
  O  O20  1  0.80575600  0.87013500  0.55762200  1
  O  O21  1  0.25000000  0.00000000  0.67455200  1
  O  O22  1  0.30575600  0.62986500  0.94237800  1
  O  O23  1  0.19424400  0.12986500  0.44237800  1
  F  F24  1  0.10098700  0.88717300  0.11337700  1
  F  F25  1  0.60098700  0.88717300  0.88662300  1
  F  F26  1  0.89901300  0.11282700  0.88662300  1
  F  F27  1  0.39901300  0.38717300  0.61337700  1
  F  F28  1  0.60098700  0.61282700  0.38662300  1
  F  F29  1  0.89901300  0.38717300  0.38662300  1
  F  F30  1  0.10098700  0.61282700  0.61337700  1
  F  F31  1  0.39901300  0.11282700  0.11337700  1
