# generated using pymatgen
data_Cs3SrCu2C7(SN)7
_symmetry_space_group_name_H-M   'P 1'
_cell_length_a   10.99308800
_cell_length_b   10.99308800
_cell_length_c   20.25280800
_cell_angle_alpha   90.00000000
_cell_angle_beta   90.00000000
_cell_angle_gamma   90.00000000
_symmetry_Int_Tables_number   1
_chemical_formula_structural   Cs3SrCu2C7(SN)7
_chemical_formula_sum   'Cs12 Sr4 Cu8 C28 S28 N28'
_cell_volume   2447.51101260
_cell_formula_units_Z   4
loop_
 _symmetry_equiv_pos_site_id
 _symmetry_equiv_pos_as_xyz
  1  'x, y, z'
loop_
 _atom_site_type_symbol
 _atom_site_label
 _atom_site_symmetry_multiplicity
 _atom_site_fract_x
 _atom_site_fract_y
 _atom_site_fract_z
 _atom_site_occupancy
  Cs  Cs0  1  0.23774300  0.76225700  0.19944200  1
  Cs  Cs1  1  0.76225700  0.23774300  0.19944200  1
  Cs  Cs2  1  0.00000000  0.50000000  0.00000000  1
  Cs  Cs3  1  0.73774300  0.73774300  0.30055800  1
  Cs  Cs4  1  0.50000000  0.00000000  0.00000000  1
  Cs  Cs5  1  0.26225700  0.26225700  0.30055800  1
  Cs  Cs6  1  0.73774300  0.26225700  0.69944200  1
  Cs  Cs7  1  0.26225700  0.73774300  0.69944200  1
  Cs  Cs8  1  0.50000000  0.00000000  0.50000000  1
  Cs  Cs9  1  0.23774300  0.23774300  0.80055800  1
  Cs  Cs10  1  0.00000000  0.50000000  0.50000000  1
  Cs  Cs11  1  0.76225700  0.76225700  0.80055800  1
  Sr  Sr12  1  0.00000000  0.00000000  0.40398000  1
  Sr  Sr13  1  0.50000000  0.50000000  0.09602000  1
  Sr  Sr14  1  0.50000000  0.50000000  0.90398000  1
  Sr  Sr15  1  0.00000000  0.00000000  0.59602000  1
  Cu  Cu16  1  0.85239550  0.85239550  0.09906050  1
  Cu  Cu17  1  0.35239550  0.64760450  0.40093950  1
  Cu  Cu18  1  0.14760450  0.14760450  0.09906050  1
  Cu  Cu19  1  0.64760450  0.35239550  0.40093950  1
  Cu  Cu20  1  0.35239550  0.35239550  0.59906050  1
  Cu  Cu21  1  0.85239550  0.14760450  0.90093950  1
  Cu  Cu22  1  0.64760450  0.64760450  0.59906050  1
  Cu  Cu23  1  0.14760450  0.85239550  0.90093950  1
  C  C24  1  0.68492600  0.07570700  0.35416300  1
  C  C25  1  0.50000000  0.50000000  0.29336400  1
  C  C26  1  0.21003600  0.21003600  0.49592200  1
  C  C27  1  0.81507400  0.57570700  0.14583700  1
  C  C28  1  0.07570700  0.68492600  0.35416300  1
  C  C29  1  0.18492600  0.42429300  0.14583700  1
  C  C30  1  0.28996400  0.71003600  0.00407800  1
  C  C31  1  0.92429300  0.31507400  0.35416300  1
  C  C32  1  0.78996400  0.78996400  0.49592200  1
  C  C33  1  0.31507400  0.92429300  0.35416300  1
  C  C34  1  0.00000000  0.00000000  0.20663600  1
  C  C35  1  0.57570700  0.81507400  0.14583700  1
  C  C36  1  0.42429300  0.18492600  0.14583700  1
  C  C37  1  0.71003600  0.28996400  0.00407800  1
  C  C38  1  0.18492600  0.57570700  0.85416300  1
  C  C39  1  0.00000000  0.00000000  0.79336400  1
  C  C40  1  0.71003600  0.71003600  0.99592200  1
  C  C41  1  0.31507400  0.07570700  0.64583700  1
  C  C42  1  0.57570700  0.18492600  0.85416300  1
  C  C43  1  0.68492600  0.92429300  0.64583700  1
  C  C44  1  0.78996400  0.21003600  0.50407800  1
  C  C45  1  0.42429300  0.81507400  0.85416300  1
  C  C46  1  0.28996400  0.28996400  0.99592200  1
  C  C47  1  0.81507400  0.42429300  0.85416300  1
  C  C48  1  0.50000000  0.50000000  0.70663600  1
  C  C49  1  0.07570700  0.31507400  0.64583700  1
  C  C50  1  0.92429300  0.68492600  0.64583700  1
  C  C51  1  0.21003600  0.78996400  0.50407800  1
  S  S52  1  0.92476400  0.67593900  0.15317900  1
  S  S53  1  0.32406100  0.07523600  0.15317900  1
  S  S54  1  0.31552000  0.31552000  0.48796300  1
  S  S55  1  0.67593900  0.92476400  0.15317900  1
  S  S56  1  0.50000000  0.50000000  0.37544300  1
  S  S57  1  0.18448000  0.81552000  0.01203700  1
  S  S58  1  0.42476400  0.82406100  0.34682100  1
  S  S59  1  0.82406100  0.42476400  0.34682100  1
  S  S60  1  0.07523600  0.32406100  0.15317900  1
  S  S61  1  0.57523600  0.17593900  0.34682100  1
  S  S62  1  0.00000000  0.00000000  0.12455700  1
  S  S63  1  0.68448000  0.68448000  0.48796300  1
  S  S64  1  0.17593900  0.57523600  0.34682100  1
  S  S65  1  0.81552000  0.18448000  0.01203700  1
  S  S66  1  0.42476400  0.17593900  0.65317900  1
  S  S67  1  0.82406100  0.57523600  0.65317900  1
  S  S68  1  0.81552000  0.81552000  0.98796300  1
  S  S69  1  0.17593900  0.42476400  0.65317900  1
  S  S70  1  0.00000000  0.00000000  0.87544300  1
  S  S71  1  0.68448000  0.31552000  0.51203700  1
  S  S72  1  0.92476400  0.32406100  0.84682100  1
  S  S73  1  0.32406100  0.92476400  0.84682100  1
  S  S74  1  0.57523600  0.82406100  0.65317900  1
  S  S75  1  0.07523600  0.67593900  0.84682100  1
  S  S76  1  0.50000000  0.50000000  0.62455700  1
  S  S77  1  0.18448000  0.18448000  0.98796300  1
  S  S78  1  0.67593900  0.07523600  0.84682100  1
  S  S79  1  0.31552000  0.68448000  0.51203700  1
  N  N80  1  0.36602300  0.63397700  0.00069300  1
  N  N81  1  0.63397700  0.36602300  0.00069300  1
  N  N82  1  0.50000000  0.50000000  0.23500800  1
  N  N83  1  0.99684200  0.23575200  0.35983700  1
  N  N84  1  0.73575200  0.50315800  0.14016300  1
  N  N85  1  0.13397700  0.13397700  0.49930700  1
  N  N86  1  0.76424800  0.00315800  0.35983700  1
  N  N87  1  0.49684200  0.26424800  0.14016300  1
  N  N88  1  0.00315800  0.76424800  0.35983700  1
  N  N89  1  0.86602300  0.86602300  0.49930700  1
  N  N90  1  0.26424800  0.49684200  0.14016300  1
  N  N91  1  0.00000000  0.00000000  0.26499200  1
  N  N92  1  0.50315800  0.73575200  0.14016300  1
  N  N93  1  0.23575200  0.99684200  0.35983700  1
  N  N94  1  0.86602300  0.13397700  0.50069300  1
  N  N95  1  0.13397700  0.86602300  0.50069300  1
  N  N96  1  0.00000000  0.00000000  0.73500800  1
  N  N97  1  0.49684200  0.73575200  0.85983700  1
  N  N98  1  0.23575200  0.00315800  0.64016300  1
  N  N99  1  0.63397700  0.63397700  0.99930700  1
  N  N100  1  0.26424800  0.50315800  0.85983700  1
  N  N101  1  0.99684200  0.76424800  0.64016300  1
  N  N102  1  0.50315800  0.26424800  0.85983700  1
  N  N103  1  0.36602300  0.36602300  0.99930700  1
  N  N104  1  0.76424800  0.99684200  0.64016300  1
  N  N105  1  0.50000000  0.50000000  0.76499200  1
  N  N106  1  0.00315800  0.23575200  0.64016300  1
  N  N107  1  0.73575200  0.49684200  0.85983700  1
