# generated using pymatgen
data_Mg2BiAsO6
_symmetry_space_group_name_H-M   'P 1'
_cell_length_a   8.00970800
_cell_length_b   12.48297800
_cell_length_c   5.46790300
_cell_angle_alpha   90.00000000
_cell_angle_beta   90.00000000
_cell_angle_gamma   90.00000000
_symmetry_Int_Tables_number   1
_chemical_formula_structural   Mg2BiAsO6
_chemical_formula_sum   'Mg8 Bi4 As4 O24'
_cell_volume   546.70832930
_cell_formula_units_Z   4
loop_
 _symmetry_equiv_pos_site_id
 _symmetry_equiv_pos_as_xyz
  1  'x, y, z'
loop_
 _atom_site_type_symbol
 _atom_site_label
 _atom_site_symmetry_multiplicity
 _atom_site_fract_x
 _atom_site_fract_y
 _atom_site_fract_z
 _atom_site_occupancy
  Mg  Mg0  1  0.80389100  0.09235800  0.25000000  1
  Mg  Mg1  1  0.80389100  0.90764200  0.75000000  1
  Mg  Mg2  1  0.19610900  0.09235800  0.25000000  1
  Mg  Mg3  1  0.19610900  0.90764200  0.75000000  1
  Mg  Mg4  1  0.30389100  0.59235800  0.25000000  1
  Mg  Mg5  1  0.30389100  0.40764200  0.75000000  1
  Mg  Mg6  1  0.69610900  0.59235800  0.25000000  1
  Mg  Mg7  1  0.69610900  0.40764200  0.75000000  1
  Bi  Bi8  1  0.50000000  0.90799000  0.25000000  1
  Bi  Bi9  1  0.50000000  0.09201000  0.75000000  1
  Bi  Bi10  1  0.00000000  0.40799000  0.25000000  1
  Bi  Bi11  1  0.00000000  0.59201000  0.75000000  1
  As  As12  1  0.50000000  0.30208600  0.25000000  1
  As  As13  1  0.50000000  0.69791400  0.75000000  1
  As  As14  1  0.00000000  0.80208600  0.25000000  1
  As  As15  1  0.00000000  0.19791400  0.75000000  1
  O  O16  1  0.50000000  0.61720400  0.00711300  1
  O  O17  1  0.67714550  0.22772050  0.25000000  1
  O  O18  1  0.32973300  0.00000000  0.00000000  1
  O  O19  1  0.32285450  0.22772050  0.25000000  1
  O  O20  1  0.50000000  0.38279600  0.50711300  1
  O  O21  1  0.67026700  0.00000000  0.00000000  1
  O  O22  1  0.32973300  0.00000000  0.50000000  1
  O  O23  1  0.67714550  0.77227950  0.75000000  1
  O  O24  1  0.67026700  0.00000000  0.50000000  1
  O  O25  1  0.50000000  0.61720400  0.49288700  1
  O  O26  1  0.50000000  0.38279600  0.99288700  1
  O  O27  1  0.32285450  0.77227950  0.75000000  1
  O  O28  1  0.00000000  0.11720400  0.00711300  1
  O  O29  1  0.17714550  0.72772050  0.25000000  1
  O  O30  1  0.82973300  0.50000000  0.00000000  1
  O  O31  1  0.82285450  0.72772050  0.25000000  1
  O  O32  1  0.00000000  0.88279600  0.50711300  1
  O  O33  1  0.17026700  0.50000000  0.00000000  1
  O  O34  1  0.82973300  0.50000000  0.50000000  1
  O  O35  1  0.17714550  0.27227950  0.75000000  1
  O  O36  1  0.17026700  0.50000000  0.50000000  1
  O  O37  1  0.00000000  0.11720400  0.49288700  1
  O  O38  1  0.00000000  0.88279600  0.99288700  1
  O  O39  1  0.82285450  0.27227950  0.75000000  1
