# generated using pymatgen
data_Ca2Si3PbO9
_symmetry_space_group_name_H-M   'P 1'
_cell_length_a   6.78195500
_cell_length_b   6.83082317
_cell_length_c   9.65654459
_cell_angle_alpha   82.88141920
_cell_angle_beta   69.64032260
_cell_angle_gamma   76.75777555
_symmetry_Int_Tables_number   1
_chemical_formula_structural   Ca2Si3PbO9
_chemical_formula_sum   'Ca4 Si6 Pb2 O18'
_cell_volume   407.77337083
_cell_formula_units_Z   2
loop_
 _symmetry_equiv_pos_site_id
 _symmetry_equiv_pos_as_xyz
  1  'x, y, z'
loop_
 _atom_site_type_symbol
 _atom_site_label
 _atom_site_symmetry_multiplicity
 _atom_site_fract_x
 _atom_site_fract_y
 _atom_site_fract_z
 _atom_site_occupancy
  Ca  Ca0  1  0.76397700  0.72761500  0.50515900  1
  Ca  Ca1  1  0.23602300  0.27238500  0.49484100  1
  Ca  Ca2  1  0.93041900  0.55796400  0.83157800  1
  Ca  Ca3  1  0.06958100  0.44203600  0.16842200  1
  Si  Si4  1  0.15827600  0.90376100  0.21908400  1
  Si  Si5  1  0.84172400  0.09623900  0.78091600  1
  Si  Si6  1  0.28065400  0.76691300  0.48353000  1
  Si  Si7  1  0.71934600  0.23308700  0.51647000  1
  Si  Si8  1  0.51495500  0.56192000  0.20172900  1
  Si  Si9  1  0.48504500  0.43808000  0.79827100  1
  Pb  Pb10  1  0.28108500  0.90701900  0.84191500  1
  Pb  Pb11  1  0.71891500  0.09298100  0.15808500  1
  O  O12  1  0.97479100  0.76957700  0.25645900  1
  O  O13  1  0.02520900  0.23042300  0.74354100  1
  O  O14  1  0.90593000  0.89232300  0.87406000  1
  O  O15  1  0.09407000  0.10767700  0.12594000  1
  O  O16  1  0.39642700  0.76671400  0.12379400  1
  O  O17  1  0.60357300  0.23328600  0.87620600  1
  O  O18  1  0.19411000  0.95437100  0.37338200  1
  O  O19  1  0.80589000  0.04562900  0.62661800  1
  O  O20  1  0.10547900  0.62619900  0.55950900  1
  O  O21  1  0.89452100  0.37380100  0.44049100  1
  O  O22  1  0.36096300  0.87222700  0.58959100  1
  O  O23  1  0.63903700  0.12777300  0.41040900  1
  O  O24  1  0.50697600  0.64123500  0.36238900  1
  O  O25  1  0.49302400  0.35876500  0.63761100  1
  O  O26  1  0.24033300  0.52216100  0.90181600  1
  O  O27  1  0.75966700  0.47783900  0.09818400  1
  O  O28  1  0.62739800  0.61254400  0.75917600  1
  O  O29  1  0.37260200  0.38745600  0.24082400  1
