# generated using pymatgen
data_Lu3B5O12
_symmetry_space_group_name_H-M   'P 1'
_cell_length_a   4.58707000
_cell_length_b   12.49146200
_cell_length_c   12.78505400
_cell_angle_alpha   90.00000000
_cell_angle_beta   90.00000000
_cell_angle_gamma   90.00000000
_symmetry_Int_Tables_number   1
_chemical_formula_structural   Lu3B5O12
_chemical_formula_sum   'Lu12 B20 O48'
_cell_volume   732.57350163
_cell_formula_units_Z   4
loop_
 _symmetry_equiv_pos_site_id
 _symmetry_equiv_pos_as_xyz
  1  'x, y, z'
loop_
 _atom_site_type_symbol
 _atom_site_label
 _atom_site_symmetry_multiplicity
 _atom_site_fract_x
 _atom_site_fract_y
 _atom_site_fract_z
 _atom_site_occupancy
  Lu  Lu0  1  0.99632500  0.69335500  0.63541500  1
  Lu  Lu1  1  0.00000000  0.50000000  0.86813900  1
  Lu  Lu2  1  0.00000000  0.00000000  0.63186100  1
  Lu  Lu3  1  0.00000000  0.50000000  0.13186100  1
  Lu  Lu4  1  0.99632500  0.80664500  0.13541500  1
  Lu  Lu5  1  0.00000000  0.00000000  0.36813900  1
  Lu  Lu6  1  0.00367500  0.30664500  0.63541500  1
  Lu  Lu7  1  0.00367500  0.30664500  0.36458500  1
  Lu  Lu8  1  0.99632500  0.80664500  0.86458500  1
  Lu  Lu9  1  0.00367500  0.19335500  0.13541500  1
  Lu  Lu10  1  0.99632500  0.69335500  0.36458500  1
  Lu  Lu11  1  0.00367500  0.19335500  0.86458500  1
  B  B12  1  0.45790000  0.12705300  0.00000000  1
  B  B13  1  0.53241000  0.15096300  0.29809100  1
  B  B14  1  0.46759000  0.84903700  0.70190900  1
  B  B15  1  0.50000000  0.50000000  0.33826100  1
  B  B16  1  0.45790000  0.37294700  0.50000000  1
  B  B17  1  0.50000000  0.00000000  0.83826100  1
  B  B18  1  0.53241000  0.34903700  0.20190900  1
  B  B19  1  0.46759000  0.84903700  0.29809100  1
  B  B20  1  0.46759000  0.65096300  0.79809100  1
  B  B21  1  0.46759000  0.65096300  0.20190900  1
  B  B22  1  0.53864800  0.85115100  0.50000000  1
  B  B23  1  0.53241000  0.34903700  0.79809100  1
  B  B24  1  0.54210000  0.62705300  0.50000000  1
  B  B25  1  0.50000000  0.50000000  0.66173900  1
  B  B26  1  0.46135200  0.14884900  0.50000000  1
  B  B27  1  0.53241000  0.15096300  0.70190900  1
  B  B28  1  0.53864800  0.64884900  0.00000000  1
  B  B29  1  0.54210000  0.87294700  0.00000000  1
  B  B30  1  0.46135200  0.35115100  0.00000000  1
  B  B31  1  0.50000000  0.00000000  0.16173900  1
  O  O32  1  0.66529400  0.92513300  0.09615300  1
  O  O33  1  0.69294000  0.06426300  0.76667300  1
  O  O34  1  0.69294000  0.43573700  0.26667300  1
  O  O35  1  0.76219200  0.14108600  0.00000000  1
  O  O36  1  0.78004800  0.84787900  0.70421600  1
  O  O37  1  0.30706000  0.56426300  0.73332700  1
  O  O38  1  0.78004800  0.65212100  0.79578400  1
  O  O39  1  0.76219200  0.35891400  0.50000000  1
  O  O40  1  0.66529400  0.57486700  0.40384700  1
  O  O41  1  0.23780800  0.85891400  0.00000000  1
  O  O42  1  0.76106000  0.93065800  0.50000000  1
  O  O43  1  0.21995200  0.15212100  0.70421600  1
  O  O44  1  0.30706000  0.56426300  0.26667300  1
  O  O45  1  0.23894000  0.43065800  0.00000000  1
  O  O46  1  0.76106000  0.56934200  0.00000000  1
  O  O47  1  0.21995200  0.34787900  0.20421600  1
  O  O48  1  0.23894000  0.06934200  0.50000000  1
  O  O49  1  0.23780800  0.64108600  0.50000000  1
  O  O50  1  0.66035000  0.35549300  0.09485500  1
  O  O51  1  0.66300400  0.25000000  0.75000000  1
  O  O52  1  0.33470600  0.42513300  0.40384700  1
  O  O53  1  0.33965000  0.85549300  0.40514500  1
  O  O54  1  0.30706000  0.93573700  0.76667300  1
  O  O55  1  0.66529400  0.92513300  0.90384700  1
  O  O56  1  0.33965000  0.85549300  0.59485500  1
  O  O57  1  0.66035000  0.14450700  0.59485500  1
  O  O58  1  0.69294000  0.06426300  0.23332700  1
  O  O59  1  0.69294000  0.43573700  0.73332700  1
  O  O60  1  0.33470600  0.07486700  0.90384700  1
  O  O61  1  0.69870300  0.73885200  0.50000000  1
  O  O62  1  0.30706000  0.93573700  0.23332700  1
  O  O63  1  0.21995200  0.15212100  0.29578400  1
  O  O64  1  0.78004800  0.65212100  0.20421600  1
  O  O65  1  0.33699600  0.75000000  0.75000000  1
  O  O66  1  0.33470600  0.42513300  0.59615300  1
  O  O67  1  0.66035000  0.14450700  0.40514500  1
  O  O68  1  0.30129700  0.23885200  0.00000000  1
  O  O69  1  0.33965000  0.64450700  0.09485500  1
  O  O70  1  0.66035000  0.35549300  0.90514500  1
  O  O71  1  0.33699600  0.75000000  0.25000000  1
  O  O72  1  0.30129700  0.26114800  0.50000000  1
  O  O73  1  0.21995200  0.34787900  0.79578400  1
  O  O74  1  0.66300400  0.25000000  0.25000000  1
  O  O75  1  0.33965000  0.64450700  0.90514500  1
  O  O76  1  0.78004800  0.84787900  0.29578400  1
  O  O77  1  0.33470600  0.07486700  0.09615300  1
  O  O78  1  0.66529400  0.57486700  0.59615300  1
  O  O79  1  0.69870300  0.76114800  0.00000000  1
