# generated using pymatgen
data_TmPO4
_symmetry_space_group_name_H-M   'P 1'
_cell_length_a   6.87885400
_cell_length_b   6.87885400
_cell_length_c   5.99416200
_cell_angle_alpha   90.00000000
_cell_angle_beta   90.00000000
_cell_angle_gamma   90.00000000
_symmetry_Int_Tables_number   1
_chemical_formula_structural   TmPO4
_chemical_formula_sum   'Tm4 P4 O16'
_cell_volume   283.63554794
_cell_formula_units_Z   4
loop_
 _symmetry_equiv_pos_site_id
 _symmetry_equiv_pos_as_xyz
  1  'x, y, z'
loop_
 _atom_site_type_symbol
 _atom_site_label
 _atom_site_symmetry_multiplicity
 _atom_site_fract_x
 _atom_site_fract_y
 _atom_site_fract_z
 _atom_site_occupancy
  Tm  Tm0  1  0.50000000  0.00000000  0.75000000  1
  Tm  Tm1  1  0.00000000  0.00000000  0.50000000  1
  Tm  Tm2  1  0.00000000  0.50000000  0.25000000  1
  Tm  Tm3  1  0.50000000  0.50000000  0.00000000  1
  P  P4  1  0.50000000  0.50000000  0.50000000  1
  P  P5  1  0.50000000  0.00000000  0.25000000  1
  P  P6  1  0.00000000  0.00000000  0.00000000  1
  P  P7  1  0.00000000  0.50000000  0.75000000  1
  O  O8  1  0.00000000  0.32415500  0.58736800  1
  O  O9  1  0.67584500  0.50000000  0.33736800  1
  O  O10  1  0.82415500  0.00000000  0.83736800  1
  O  O11  1  0.00000000  0.67584500  0.58736800  1
  O  O12  1  0.32415500  0.00000000  0.41263200  1
  O  O13  1  0.00000000  0.17584500  0.16263200  1
  O  O14  1  0.50000000  0.32415500  0.66263200  1
  O  O15  1  0.67584500  0.00000000  0.41263200  1
  O  O16  1  0.50000000  0.82415500  0.08736800  1
  O  O17  1  0.17584500  0.00000000  0.83736800  1
  O  O18  1  0.32415500  0.50000000  0.33736800  1
  O  O19  1  0.50000000  0.17584500  0.08736800  1
  O  O20  1  0.82415500  0.50000000  0.91263200  1
  O  O21  1  0.50000000  0.67584500  0.66263200  1
  O  O22  1  0.00000000  0.82415500  0.16263200  1
  O  O23  1  0.17584500  0.50000000  0.91263200  1
