# generated using pymatgen
data_SiO2
_symmetry_space_group_name_H-M   'P 1'
_cell_length_a   7.48763500
_cell_length_b   11.56065219
_cell_length_c   11.67784705
_cell_angle_alpha   104.84707477
_cell_angle_beta   94.74801306
_cell_angle_gamma   96.16795577
_symmetry_Int_Tables_number   1
_chemical_formula_structural   SiO2
_chemical_formula_sum   'Si16 O32'
_cell_volume   965.03126328
_cell_formula_units_Z   16
loop_
 _symmetry_equiv_pos_site_id
 _symmetry_equiv_pos_as_xyz
  1  'x, y, z'
loop_
 _atom_site_type_symbol
 _atom_site_label
 _atom_site_symmetry_multiplicity
 _atom_site_fract_x
 _atom_site_fract_y
 _atom_site_fract_z
 _atom_site_occupancy
  Si  Si0  1  0.69596400  0.44074300  0.12363300  1
  Si  Si1  1  0.59044700  0.85708500  0.35655900  1
  Si  Si2  1  0.43072400  0.63891300  0.14228700  1
  Si  Si3  1  0.95535000  0.76153300  0.43226500  1
  Si  Si4  1  0.40955300  0.14291500  0.64344100  1
  Si  Si5  1  0.67044500  0.13256200  0.44104000  1
  Si  Si6  1  0.22086600  0.41269100  0.42823200  1
  Si  Si7  1  0.56927600  0.36108700  0.85771300  1
  Si  Si8  1  0.38908200  0.64041100  0.64465700  1
  Si  Si9  1  0.30403600  0.55925700  0.87636700  1
  Si  Si10  1  0.04465000  0.23846700  0.56773500  1
  Si  Si11  1  0.92506600  0.45918800  0.75802800  1
  Si  Si12  1  0.61091800  0.35958900  0.35534300  1
  Si  Si13  1  0.07493400  0.54081200  0.24197200  1
  Si  Si14  1  0.32955500  0.86743800  0.55896000  1
  Si  Si15  1  0.77913400  0.58730900  0.57176800  1
  O  O16  1  0.49181300  0.77444800  0.22809400  1
  O  O17  1  0.39542100  0.00217700  0.64621000  1
  O  O18  1  0.12627100  0.86443100  0.49461300  1
  O  O19  1  0.87372900  0.13556900  0.50538700  1
  O  O20  1  0.37287500  0.64922600  0.00810200  1
  O  O21  1  0.20799700  0.17613600  0.61615900  1
  O  O22  1  0.09864400  0.44778700  0.32409000  1
  O  O23  1  0.60232500  0.56403800  0.14308300  1
  O  O24  1  0.90135600  0.55221300  0.67591000  1
  O  O25  1  0.89318400  0.69434700  0.53162700  1
  O  O26  1  0.10681600  0.30565300  0.46837300  1
  O  O27  1  0.35738000  0.62759900  0.77644300  1
  O  O28  1  0.73093400  0.46960100  0.45746500  1
  O  O29  1  0.60457900  0.99782300  0.35379000  1
  O  O30  1  0.62712500  0.35077400  0.99189800  1
  O  O31  1  0.32955400  0.76933900  0.63664200  1
  O  O32  1  0.26906600  0.53039900  0.54253500  1
  O  O33  1  0.39994300  0.36352000  0.37555200  1
  O  O34  1  0.50818700  0.22555200  0.77190600  1
  O  O35  1  0.26279800  0.56846800  0.18826800  1
  O  O36  1  0.01907600  0.66656600  0.31988600  1
  O  O37  1  0.60005700  0.63648000  0.62444800  1
  O  O38  1  0.79200300  0.82386400  0.38384100  1
  O  O39  1  0.46900800  0.83306600  0.45950300  1
  O  O40  1  0.91458500  0.47684100  0.13436700  1
  O  O41  1  0.39767500  0.43596200  0.85691700  1
  O  O42  1  0.98092400  0.33343400  0.68011400  1
  O  O43  1  0.64262000  0.37240100  0.22355700  1
  O  O44  1  0.08541500  0.52315900  0.86563300  1
  O  O45  1  0.67044600  0.23066100  0.36335800  1
  O  O46  1  0.73720200  0.43153200  0.81173200  1
  O  O47  1  0.53099200  0.16693400  0.54049700  1
