# generated using pymatgen
data_Rb2TbGa(SiO3)4
_symmetry_space_group_name_H-M   'P 1'
_cell_length_a   27.25174000
_cell_length_b   7.37497800
_cell_length_c   15.05803171
_cell_angle_alpha   90.00000000
_cell_angle_beta   123.20991187
_cell_angle_gamma   90.00000000
_symmetry_Int_Tables_number   1
_chemical_formula_structural   Rb2TbGa(SiO3)4
_chemical_formula_sum   'Rb16 Tb8 Ga8 Si32 O96'
_cell_volume   2532.07840900
_cell_formula_units_Z   8
loop_
 _symmetry_equiv_pos_site_id
 _symmetry_equiv_pos_as_xyz
  1  'x, y, z'
loop_
 _atom_site_type_symbol
 _atom_site_label
 _atom_site_symmetry_multiplicity
 _atom_site_fract_x
 _atom_site_fract_y
 _atom_site_fract_z
 _atom_site_occupancy
  Rb  Rb0  1  0.03459950  0.73695750  0.95216800  1
  Rb  Rb1  1  0.80838500  0.49604600  0.53377300  1
  Rb  Rb2  1  0.03459950  0.26304250  0.45216800  1
  Rb  Rb3  1  0.96540050  0.73695750  0.54783200  1
  Rb  Rb4  1  0.80838500  0.50395400  0.03377300  1
  Rb  Rb5  1  0.19161500  0.50395400  0.46622700  1
  Rb  Rb6  1  0.19161500  0.49604600  0.96622700  1
  Rb  Rb7  1  0.96540050  0.26304250  0.04783200  1
  Rb  Rb8  1  0.53459950  0.23695750  0.95216800  1
  Rb  Rb9  1  0.30838500  0.99604600  0.53377300  1
  Rb  Rb10  1  0.53459950  0.76304250  0.45216800  1
  Rb  Rb11  1  0.46540050  0.23695750  0.54783200  1
  Rb  Rb12  1  0.30838500  0.00395400  0.03377300  1
  Rb  Rb13  1  0.69161500  0.00395400  0.46622700  1
  Rb  Rb14  1  0.69161500  0.99604600  0.96622700  1
  Rb  Rb15  1  0.46540050  0.76304250  0.04783200  1
  Tb  Tb16  1  0.23127400  0.28265400  0.74994700  1
  Tb  Tb17  1  0.76872600  0.71734600  0.25005300  1
  Tb  Tb18  1  0.73127400  0.21734600  0.24994700  1
  Tb  Tb19  1  0.26872600  0.78265400  0.75005300  1
  Tb  Tb20  1  0.73127400  0.78265400  0.74994700  1
  Tb  Tb21  1  0.26872600  0.21734600  0.25005300  1
  Tb  Tb22  1  0.23127400  0.71734600  0.24994700  1
  Tb  Tb23  1  0.76872600  0.28265400  0.75005300  1
  Ga  Ga24  1  0.93017500  0.29980200  0.77408000  1
  Ga  Ga25  1  0.06982500  0.70019800  0.22592000  1
  Ga  Ga26  1  0.06982500  0.29980200  0.72592000  1
  Ga  Ga27  1  0.93017500  0.70019800  0.27408000  1
  Ga  Ga28  1  0.43017500  0.79980200  0.77408000  1
  Ga  Ga29  1  0.56982500  0.20019800  0.22592000  1
  Ga  Ga30  1  0.56982500  0.79980200  0.72592000  1
  Ga  Ga31  1  0.43017500  0.20019800  0.27408000  1
  Si  Si32  1  0.66831600  0.47227600  0.01008200  1
  Si  Si33  1  0.33168400  0.52772400  0.98991800  1
  Si  Si34  1  0.11977100  0.64014800  0.66115800  1
  Si  Si35  1  0.38022900  0.14014800  0.83884200  1
  Si  Si36  1  0.88022900  0.35985200  0.33884200  1
  Si  Si37  1  0.06237700  0.77138000  0.42273300  1
  Si  Si38  1  0.16282550  0.97664650  0.79606800  1
  Si  Si39  1  0.66282550  0.52335350  0.29606800  1
  Si  Si40  1  0.93762300  0.77138000  0.07726700  1
  Si  Si41  1  0.93762300  0.22862000  0.57726700  1
  Si  Si42  1  0.16831600  0.02772400  0.51008200  1
  Si  Si43  1  0.61977100  0.85985200  0.16115800  1
  Si  Si44  1  0.06237700  0.22862000  0.92273300  1
  Si  Si45  1  0.33717450  0.47664650  0.70393200  1
  Si  Si46  1  0.83717450  0.02335350  0.20393200  1
  Si  Si47  1  0.83168400  0.97227600  0.48991800  1
  Si  Si48  1  0.16831600  0.97227600  0.01008200  1
  Si  Si49  1  0.83168400  0.02772400  0.98991800  1
  Si  Si50  1  0.61977100  0.14014800  0.66115800  1
  Si  Si51  1  0.88022900  0.64014800  0.83884200  1
  Si  Si52  1  0.38022900  0.85985200  0.33884200  1
  Si  Si53  1  0.56237700  0.27138000  0.42273300  1
  Si  Si54  1  0.66282550  0.47664650  0.79606800  1
  Si  Si55  1  0.16282550  0.02335350  0.29606800  1
  Si  Si56  1  0.43762300  0.27138000  0.07726700  1
  Si  Si57  1  0.43762300  0.72862000  0.57726700  1
  Si  Si58  1  0.66831600  0.52772400  0.51008200  1
  Si  Si59  1  0.11977100  0.35985200  0.16115800  1
  Si  Si60  1  0.56237700  0.72862000  0.92273300  1
  Si  Si61  1  0.83717450  0.97664650  0.70393200  1
  Si  Si62  1  0.33717450  0.52335350  0.20393200  1
  Si  Si63  1  0.33168400  0.47227600  0.48991800  1
  O  O64  1  0.09791050  0.03767450  0.94400500  1
  O  O65  1  0.06799700  0.63864600  0.34225600  1
  O  O66  1  0.11336600  0.84274000  0.70217200  1
  O  O67  1  0.99457300  0.82690000  0.37898100  1
  O  O68  1  0.82322950  0.90720750  0.58821300  1
  O  O69  1  0.35889100  0.68918000  0.72948500  1
  O  O70  1  0.82611750  0.79388350  0.42277900  1
  O  O71  1  0.28731100  0.36290800  0.92378300  1
  O  O72  1  0.88663400  0.15726000  0.29782800  1
  O  O73  1  0.00542700  0.82690000  0.12101900  1
  O  O74  1  0.78731100  0.13709200  0.42378300  1
  O  O75  1  0.93200300  0.36135400  0.65774400  1
  O  O76  1  0.90208950  0.03767450  0.55599500  1
  O  O77  1  0.64110900  0.31082000  0.27051500  1
  O  O78  1  0.06799700  0.36135400  0.84225600  1
  O  O79  1  0.82322950  0.09279250  0.08821300  1
  O  O80  1  0.67388250  0.29388350  0.07722100  1
  O  O81  1  0.21268900  0.86290800  0.57621700  1
  O  O82  1  0.92714150  0.48880750  0.33387400  1
  O  O83  1  0.17677050  0.90720750  0.91178700  1
  O  O84  1  0.85889100  0.81082000  0.22948500  1
  O  O85  1  0.18757600  0.57484200  0.72553200  1
  O  O86  1  0.72270450  0.51913850  0.29715600  1
  O  O87  1  0.92714150  0.51119250  0.83387400  1
  O  O88  1  0.17388250  0.20611650  0.57722100  1
  O  O89  1  0.40847250  0.15380050  0.96750100  1
  O  O90  1  0.31242400  0.07484200  0.77446800  1
  O  O91  1  0.99457300  0.17310000  0.87898100  1
  O  O92  1  0.61336600  0.65726000  0.20217200  1
  O  O93  1  0.77729550  0.01913850  0.20284400  1
  O  O94  1  0.81242400  0.42515800  0.27446800  1
  O  O95  1  0.90208950  0.96232550  0.05599500  1
  O  O96  1  0.09152750  0.65380050  0.53249900  1
  O  O97  1  0.09791050  0.96232550  0.44400500  1
  O  O98  1  0.22270450  0.98086150  0.79715600  1
  O  O99  1  0.71268900  0.63709200  0.07621700  1
  O  O100  1  0.17677050  0.09279250  0.41178700  1
  O  O101  1  0.00542700  0.17310000  0.62101900  1
  O  O102  1  0.59152750  0.84619950  0.03249900  1
  O  O103  1  0.07285850  0.51119250  0.66612600  1
  O  O104  1  0.07285850  0.48880750  0.16612600  1
  O  O105  1  0.68757600  0.92515800  0.22553200  1
  O  O106  1  0.38663400  0.34274000  0.79782800  1
  O  O107  1  0.32611750  0.70611650  0.92277900  1
  O  O108  1  0.14110900  0.18918000  0.77051500  1
  O  O109  1  0.90847250  0.34619950  0.46750100  1
  O  O110  1  0.27729550  0.48086150  0.70284400  1
  O  O111  1  0.93200300  0.63864600  0.15774400  1
  O  O112  1  0.59791050  0.53767450  0.94400500  1
  O  O113  1  0.56799700  0.13864600  0.34225600  1
  O  O114  1  0.61336600  0.34274000  0.70217200  1
  O  O115  1  0.49457300  0.32690000  0.37898100  1
  O  O116  1  0.32322950  0.40720750  0.58821300  1
  O  O117  1  0.85889100  0.18918000  0.72948500  1
  O  O118  1  0.32611750  0.29388350  0.42277900  1
  O  O119  1  0.78731100  0.86290800  0.92378300  1
  O  O120  1  0.38663400  0.65726000  0.29782800  1
  O  O121  1  0.50542700  0.32690000  0.12101900  1
  O  O122  1  0.28731100  0.63709200  0.42378300  1
  O  O123  1  0.43200300  0.86135400  0.65774400  1
  O  O124  1  0.40208950  0.53767450  0.55599500  1
  O  O125  1  0.14110900  0.81082000  0.27051500  1
  O  O126  1  0.56799700  0.86135400  0.84225600  1
  O  O127  1  0.32322950  0.59279250  0.08821300  1
  O  O128  1  0.17388250  0.79388350  0.07722100  1
  O  O129  1  0.71268900  0.36290800  0.57621700  1
  O  O130  1  0.42714150  0.98880750  0.33387400  1
  O  O131  1  0.67677050  0.40720750  0.91178700  1
  O  O132  1  0.35889100  0.31082000  0.22948500  1
  O  O133  1  0.68757600  0.07484200  0.72553200  1
  O  O134  1  0.22270450  0.01913850  0.29715600  1
  O  O135  1  0.42714150  0.01119250  0.83387400  1
  O  O136  1  0.67388250  0.70611650  0.57722100  1
  O  O137  1  0.90847250  0.65380050  0.96750100  1
  O  O138  1  0.81242400  0.57484200  0.77446800  1
  O  O139  1  0.49457300  0.67310000  0.87898100  1
  O  O140  1  0.11336600  0.15726000  0.20217200  1
  O  O141  1  0.27729550  0.51913850  0.20284400  1
  O  O142  1  0.31242400  0.92515800  0.27446800  1
  O  O143  1  0.40208950  0.46232550  0.05599500  1
  O  O144  1  0.59152750  0.15380050  0.53249900  1
  O  O145  1  0.59791050  0.46232550  0.44400500  1
  O  O146  1  0.72270450  0.48086150  0.79715600  1
  O  O147  1  0.21268900  0.13709200  0.07621700  1
  O  O148  1  0.67677050  0.59279250  0.41178700  1
  O  O149  1  0.50542700  0.67310000  0.62101900  1
  O  O150  1  0.09152750  0.34619950  0.03249900  1
  O  O151  1  0.57285850  0.01119250  0.66612600  1
  O  O152  1  0.57285850  0.98880750  0.16612600  1
  O  O153  1  0.18757600  0.42515800  0.22553200  1
  O  O154  1  0.88663400  0.84274000  0.79782800  1
  O  O155  1  0.82611750  0.20611650  0.92277900  1
  O  O156  1  0.64110900  0.68918000  0.77051500  1
  O  O157  1  0.40847250  0.84619950  0.46750100  1
  O  O158  1  0.77729550  0.98086150  0.70284400  1
  O  O159  1  0.43200300  0.13864600  0.15774400  1
