# generated using pymatgen
data_MnPtF6
_symmetry_space_group_name_H-M   'P 1'
_cell_length_a   5.36363155
_cell_length_b   5.36363155
_cell_length_c   14.17944056
_cell_angle_alpha   90.00000000
_cell_angle_beta   90.00000000
_cell_angle_gamma   120.00000000
_symmetry_Int_Tables_number   1
_chemical_formula_structural   MnPtF6
_chemical_formula_sum   'Mn3 Pt3 F18'
_cell_volume   353.27068610
_cell_formula_units_Z   3
loop_
 _symmetry_equiv_pos_site_id
 _symmetry_equiv_pos_as_xyz
  1  'x, y, z'
loop_
 _atom_site_type_symbol
 _atom_site_label
 _atom_site_symmetry_multiplicity
 _atom_site_fract_x
 _atom_site_fract_y
 _atom_site_fract_z
 _atom_site_occupancy
  Mn  Mn0  1  0.00000000  0.00000000  0.00000000  1
  Mn  Mn1  1  0.66666667  0.33333333  0.33333333  1
  Mn  Mn2  1  0.33333333  0.66666667  0.66666667  1
  Pt  Pt3  1  0.33333333  0.66666667  0.16666667  1
  Pt  Pt4  1  1.00000000  0.00000000  0.50000000  1
  Pt  Pt5  1  0.66666667  0.33333333  0.83333333  1
  F  F6  1  0.37595167  0.98646733  0.24743433  1
  F  F7  1  0.01353267  0.38948433  0.24743433  1
  F  F8  1  0.05615100  0.70928500  0.08589900  1
  F  F9  1  0.65313400  0.94384900  0.08589900  1
  F  F10  1  0.29071500  0.34686600  0.08589900  1
  F  F11  1  0.61051567  0.62404833  0.24743433  1
  F  F12  1  0.04261833  0.31980067  0.58076767  1
  F  F13  1  0.68019933  0.72281767  0.58076767  1
  F  F14  1  0.72281767  0.04261833  0.41923233  1
  F  F15  1  0.31980067  0.27718233  0.41923233  1
  F  F16  1  0.95738167  0.68019933  0.41923233  1
  F  F17  1  0.27718233  0.95738167  0.58076767  1
  F  F18  1  0.70928500  0.65313400  0.91410100  1
  F  F19  1  0.34686600  0.05615100  0.91410100  1
  F  F20  1  0.38948433  0.37595167  0.75256567  1
  F  F21  1  0.98646733  0.61051567  0.75256567  1
  F  F22  1  0.62404833  0.01353267  0.75256567  1
  F  F23  1  0.94384900  0.29071500  0.91410100  1
