# generated using pymatgen
data_Ga2NiCl8
_symmetry_space_group_name_H-M   'P 1'
_cell_length_a   17.52498400
_cell_length_b   8.02515400
_cell_length_c   11.69831664
_cell_angle_alpha   90.00000000
_cell_angle_beta   129.81285983
_cell_angle_gamma   90.00000000
_symmetry_Int_Tables_number   1
_chemical_formula_structural   Ga2NiCl8
_chemical_formula_sum   'Ga8 Ni4 Cl32'
_cell_volume   1263.78927277
_cell_formula_units_Z   4
loop_
 _symmetry_equiv_pos_site_id
 _symmetry_equiv_pos_as_xyz
  1  'x, y, z'
loop_
 _atom_site_type_symbol
 _atom_site_label
 _atom_site_symmetry_multiplicity
 _atom_site_fract_x
 _atom_site_fract_y
 _atom_site_fract_z
 _atom_site_occupancy
  Ga  Ga0  1  0.08404450  0.24338050  0.03271100  1
  Ga  Ga1  1  0.91595550  0.75661950  0.96728900  1
  Ga  Ga2  1  0.41595550  0.74338050  0.46728900  1
  Ga  Ga3  1  0.58404450  0.25661950  0.53271100  1
  Ga  Ga4  1  0.58404450  0.74338050  0.03271100  1
  Ga  Ga5  1  0.41595550  0.25661950  0.96728900  1
  Ga  Ga6  1  0.91595550  0.24338050  0.46728900  1
  Ga  Ga7  1  0.08404450  0.75661950  0.53271100  1
  Ni  Ni8  1  0.50000000  0.50278800  0.75000000  1
  Ni  Ni9  1  0.50000000  0.49721200  0.25000000  1
  Ni  Ni10  1  0.00000000  0.00278800  0.75000000  1
  Ni  Ni11  1  0.00000000  0.99721200  0.25000000  1
  Cl  Cl12  1  0.64659900  0.48522400  0.50874300  1
  Cl  Cl13  1  0.35340100  0.51477600  0.49125700  1
  Cl  Cl14  1  0.34202850  0.97022250  0.44193500  1
  Cl  Cl15  1  0.84202850  0.52977750  0.94193500  1
  Cl  Cl16  1  0.14659900  0.01477600  0.00874300  1
  Cl  Cl17  1  0.41912550  0.72345150  0.28019700  1
  Cl  Cl18  1  0.56747050  0.28561050  0.18973700  1
  Cl  Cl19  1  0.43252950  0.28561050  0.31026300  1
  Cl  Cl20  1  0.58087450  0.27654850  0.71980300  1
  Cl  Cl21  1  0.65797150  0.02977750  0.55806500  1
  Cl  Cl22  1  0.58087450  0.72345150  0.21980300  1
  Cl  Cl23  1  0.85340100  0.98522400  0.99125700  1
  Cl  Cl24  1  0.15797150  0.47022250  0.05806500  1
  Cl  Cl25  1  0.41912550  0.27654850  0.78019700  1
  Cl  Cl26  1  0.56747050  0.71438950  0.68973700  1
  Cl  Cl27  1  0.43252950  0.71438950  0.81026300  1
  Cl  Cl28  1  0.14659900  0.98522400  0.50874300  1
  Cl  Cl29  1  0.85340100  0.01477600  0.49125700  1
  Cl  Cl30  1  0.84202850  0.47022250  0.44193500  1
  Cl  Cl31  1  0.34202850  0.02977750  0.94193500  1
  Cl  Cl32  1  0.64659900  0.51477600  0.00874300  1
  Cl  Cl33  1  0.91912550  0.22345150  0.28019700  1
  Cl  Cl34  1  0.06747050  0.78561050  0.18973700  1
  Cl  Cl35  1  0.93252950  0.78561050  0.31026300  1
  Cl  Cl36  1  0.08087450  0.77654850  0.71980300  1
  Cl  Cl37  1  0.15797150  0.52977750  0.55806500  1
  Cl  Cl38  1  0.08087450  0.22345150  0.21980300  1
  Cl  Cl39  1  0.35340100  0.48522400  0.99125700  1
  Cl  Cl40  1  0.65797150  0.97022250  0.05806500  1
  Cl  Cl41  1  0.91912550  0.77654850  0.78019700  1
  Cl  Cl42  1  0.06747050  0.21438950  0.68973700  1
  Cl  Cl43  1  0.93252950  0.21438950  0.81026300  1
