# generated using pymatgen
data_GePbO3
_symmetry_space_group_name_H-M   'P 1'
_cell_length_a   15.87053500
_cell_length_b   15.87053500
_cell_length_c   7.39461266
_cell_angle_alpha   90.00000000
_cell_angle_beta   90.00000000
_cell_angle_gamma   120.00000000
_symmetry_Int_Tables_number   1
_chemical_formula_structural   GePbO3
_chemical_formula_sum   'Ge18 Pb18 O54'
_cell_volume   1612.98079419
_cell_formula_units_Z   18
loop_
 _symmetry_equiv_pos_site_id
 _symmetry_equiv_pos_as_xyz
  1  'x, y, z'
loop_
 _atom_site_type_symbol
 _atom_site_label
 _atom_site_symmetry_multiplicity
 _atom_site_fract_x
 _atom_site_fract_y
 _atom_site_fract_z
 _atom_site_occupancy
  Ge  Ge0  1  0.78020067  0.95710133  0.47806033  1
  Ge  Ge1  1  0.70956533  0.15643267  0.81139367  1
  Ge  Ge2  1  0.88646600  0.37623200  0.85527300  1
  Ge  Ge3  1  0.15643267  0.44686733  0.18860633  1
  Ge  Ge4  1  0.95710133  0.17690067  0.52193967  1
  Ge  Ge5  1  0.51023400  0.88646600  0.14472700  1
  Ge  Ge6  1  0.44686733  0.29043467  0.81139367  1
  Ge  Ge7  1  0.37623200  0.48976600  0.14472700  1
  Ge  Ge8  1  0.55313267  0.70956533  0.18860633  1
  Ge  Ge9  1  0.82309933  0.78020067  0.52193967  1
  Ge  Ge10  1  0.62376800  0.51023400  0.85527300  1
  Ge  Ge11  1  0.17690067  0.21979933  0.47806033  1
  Ge  Ge12  1  0.11353400  0.62376800  0.14472700  1
  Ge  Ge13  1  0.04289867  0.82309933  0.47806033  1
  Ge  Ge14  1  0.21979933  0.04289867  0.52193967  1
  Ge  Ge15  1  0.48976600  0.11353400  0.85527300  1
  Ge  Ge16  1  0.29043467  0.84356733  0.18860633  1
  Ge  Ge17  1  0.84356733  0.55313267  0.81139367  1
  Pb  Pb18  1  0.92269200  0.38042200  0.36956600  1
  Pb  Pb19  1  0.54227000  0.92269200  0.63043400  1
  Pb  Pb20  1  0.71375533  0.12439667  0.29710067  1
  Pb  Pb21  1  0.12439667  0.41064133  0.70289933  1
  Pb  Pb22  1  0.74397467  0.95291133  0.96376733  1
  Pb  Pb23  1  0.95291133  0.20893667  0.03623267  1
  Pb  Pb24  1  0.58935867  0.71375533  0.70289933  1
  Pb  Pb25  1  0.20893667  0.25602533  0.96376733  1
  Pb  Pb26  1  0.38042200  0.45773000  0.63043400  1
  Pb  Pb27  1  0.79106333  0.74397467  0.03623267  1
  Pb  Pb28  1  0.41064133  0.28624467  0.29710067  1
  Pb  Pb29  1  0.61957800  0.54227000  0.36956600  1
  Pb  Pb30  1  0.25602533  0.04708867  0.03623267  1
  Pb  Pb31  1  0.87560333  0.58935867  0.29710067  1
  Pb  Pb32  1  0.04708867  0.79106333  0.96376733  1
  Pb  Pb33  1  0.45773000  0.07730800  0.36956600  1
  Pb  Pb34  1  0.07730800  0.61957800  0.63043400  1
  Pb  Pb35  1  0.28624467  0.87560333  0.70289933  1
  O  O36  1  0.15495767  0.54392333  0.06459233  1
  O  O37  1  0.68392167  0.89740333  0.63433933  1
  O  O38  1  0.58490133  0.91876067  0.95150867  1
  O  O39  1  0.89740333  0.21348167  0.36566067  1
  O  O40  1  0.91876067  0.33385933  0.04849133  1
  O  O41  1  0.05563233  0.17837567  0.39792567  1
  O  O42  1  0.54681500  0.98274500  0.30100600  1
  O  O43  1  0.74790600  0.99947400  0.28484200  1
  O  O44  1  0.98274500  0.43593000  0.69899400  1
  O  O45  1  0.76926333  0.11985167  0.96767267  1
  O  O46  1  0.78941000  0.27770100  0.73125900  1
  O  O47  1  0.87725667  0.05563233  0.60207433  1
  O  O48  1  0.99947400  0.25156800  0.71515800  1
  O  O49  1  0.61103433  0.15495767  0.93540767  1
  O  O50  1  0.11985167  0.35058833  0.03232733  1
  O  O51  1  0.51170900  0.78941000  0.26874100  1
  O  O52  1  0.08176533  0.41457267  0.38182467  1
  O  O53  1  0.66719267  0.08176533  0.61817533  1
  O  O54  1  0.82162433  0.87725667  0.39792567  1
  O  O55  1  0.35058833  0.23073667  0.96767267  1
  O  O56  1  0.25156800  0.25209400  0.28484200  1
  O  O57  1  0.56407000  0.54681500  0.69899400  1
  O  O58  1  0.58542733  0.66719267  0.38182467  1
  O  O59  1  0.72229900  0.51170900  0.73125900  1
  O  O60  1  0.21348167  0.31607833  0.63433933  1
  O  O61  1  0.41457267  0.33280733  0.61817533  1
  O  O62  1  0.64941167  0.76926333  0.03232733  1
  O  O63  1  0.43593000  0.45318500  0.30100600  1
  O  O64  1  0.45607667  0.61103433  0.06459233  1
  O  O65  1  0.54392333  0.38896567  0.93540767  1
  O  O66  1  0.66614067  0.58490133  0.04849133  1
  O  O67  1  0.27770100  0.48829100  0.26874100  1
  O  O68  1  0.78651833  0.68392167  0.36566067  1
  O  O69  1  0.17837567  0.12274333  0.60207433  1
  O  O70  1  0.74843200  0.74790600  0.71515800  1
  O  O71  1  0.33385933  0.41509867  0.95150867  1
  O  O72  1  0.48829100  0.21059000  0.73125900  1
  O  O73  1  0.01725500  0.56407000  0.30100600  1
  O  O74  1  0.91823467  0.58542733  0.61817533  1
  O  O75  1  0.23073667  0.88014833  0.03232733  1
  O  O76  1  0.25209400  0.00052600  0.71515800  1
  O  O77  1  0.38896567  0.84504233  0.06459233  1
  O  O78  1  0.88014833  0.64941167  0.96767267  1
  O  O79  1  0.08123933  0.66614067  0.95150867  1
  O  O80  1  0.31607833  0.10259667  0.36566067  1
  O  O81  1  0.10259667  0.78651833  0.63433933  1
  O  O82  1  0.12274333  0.94436767  0.39792567  1
  O  O83  1  0.21059000  0.72229900  0.26874100  1
  O  O84  1  0.33280733  0.91823467  0.38182467  1
  O  O85  1  0.94436767  0.82162433  0.60207433  1
  O  O86  1  0.45318500  0.01725500  0.69899400  1
  O  O87  1  0.84504233  0.45607667  0.93540767  1
  O  O88  1  0.41509867  0.08123933  0.04849133  1
  O  O89  1  0.00052600  0.74843200  0.28484200  1
