# generated using pymatgen
data_Lu(PO3)3
_symmetry_space_group_name_H-M   'P 1'
_cell_length_a   14.11859600
_cell_length_b   20.21666800
_cell_length_c   10.08039365
_cell_angle_alpha   90.00000000
_cell_angle_beta   127.26956995
_cell_angle_gamma   90.00000000
_symmetry_Int_Tables_number   1
_chemical_formula_structural   Lu(PO3)3
_chemical_formula_sum   'Lu12 P36 O108'
_cell_volume   2289.70695936
_cell_formula_units_Z   12
loop_
 _symmetry_equiv_pos_site_id
 _symmetry_equiv_pos_as_xyz
  1  'x, y, z'
loop_
 _atom_site_type_symbol
 _atom_site_label
 _atom_site_symmetry_multiplicity
 _atom_site_fract_x
 _atom_site_fract_y
 _atom_site_fract_z
 _atom_site_occupancy
  Lu  Lu0  1  0.18190700  0.08840500  0.51668600  1
  Lu  Lu1  1  0.69831600  0.24483100  0.55151100  1
  Lu  Lu2  1  0.68213200  0.07821000  0.01490500  1
  Lu  Lu3  1  0.68190700  0.41159500  0.01668600  1
  Lu  Lu4  1  0.18213200  0.42179000  0.51490500  1
  Lu  Lu5  1  0.19831600  0.25516900  0.05151100  1
  Lu  Lu6  1  0.68190700  0.58840500  0.51668600  1
  Lu  Lu7  1  0.19831600  0.74483100  0.55151100  1
  Lu  Lu8  1  0.18213200  0.57821000  0.01490500  1
  Lu  Lu9  1  0.18190700  0.91159500  0.01668600  1
  Lu  Lu10  1  0.68213200  0.92179000  0.51490500  1
  Lu  Lu11  1  0.69831600  0.75516900  0.05151100  1
  P  P12  1  0.54194900  0.13585600  0.19263500  1
  P  P13  1  0.04285750  0.30123150  0.20735600  1
  P  P14  1  0.83797200  0.29991600  0.37106400  1
  P  P15  1  0.42154850  0.02800750  0.24264700  1
  P  P16  1  0.84732350  0.36365050  0.87271000  1
  P  P17  1  0.33797200  0.20008400  0.87106400  1
  P  P18  1  0.42866800  0.30827400  0.76052300  1
  P  P19  1  0.83092000  0.03261600  0.85191900  1
  P  P20  1  0.04194900  0.36414400  0.69263500  1
  P  P21  1  0.95431200  0.13921300  0.80889400  1
  P  P22  1  0.92154850  0.47199250  0.74264700  1
  P  P23  1  0.92866800  0.19172600  0.26052300  1
  P  P24  1  0.54285750  0.19876850  0.70735600  1
  P  P25  1  0.53009050  0.47034050  0.17784600  1
  P  P26  1  0.45431200  0.36078700  0.30889400  1
  P  P27  1  0.03009050  0.02965950  0.67784600  1
  P  P28  1  0.33092000  0.46738400  0.35191900  1
  P  P29  1  0.34732350  0.13634950  0.37271000  1
  P  P30  1  0.04194900  0.63585600  0.19263500  1
  P  P31  1  0.54285750  0.80123150  0.20735600  1
  P  P32  1  0.33797200  0.79991600  0.37106400  1
  P  P33  1  0.92154850  0.52800750  0.24264700  1
  P  P34  1  0.34732350  0.86365050  0.87271000  1
  P  P35  1  0.83797200  0.70008400  0.87106400  1
  P  P36  1  0.92866800  0.80827400  0.76052300  1
  P  P37  1  0.33092000  0.53261600  0.85191900  1
  P  P38  1  0.54194900  0.86414400  0.69263500  1
  P  P39  1  0.45431200  0.63921300  0.80889400  1
  P  P40  1  0.42154850  0.97199250  0.74264700  1
  P  P41  1  0.42866800  0.69172600  0.26052300  1
  P  P42  1  0.04285750  0.69876850  0.70735600  1
  P  P43  1  0.03009050  0.97034050  0.17784600  1
  P  P44  1  0.95431200  0.86078700  0.30889400  1
  P  P45  1  0.53009050  0.52965950  0.67784600  1
  P  P46  1  0.83092000  0.96738400  0.35191900  1
  P  P47  1  0.84732350  0.63634950  0.37271000  1
  O  O48  1  0.46959550  0.14934850  0.55294600  1
  O  O49  1  0.36303500  0.26939100  0.82208000  1
  O  O50  1  0.74919100  0.37276600  0.88797600  1
  O  O51  1  0.54893700  0.33142200  0.90824500  1
  O  O52  1  0.05874600  0.02374900  0.30002600  1
  O  O53  1  0.23331150  0.43761050  0.35084500  1
  O  O54  1  0.59208850  0.16970950  0.35508200  1
  O  O55  1  0.24898600  0.21316900  0.90319700  1
  O  O56  1  0.53763950  0.00599950  0.86772700  1
  O  O57  1  0.88054250  0.43424750  0.83979500  1
  O  O58  1  0.31825650  0.01285950  0.61007200  1
  O  O59  1  0.55874600  0.47625100  0.80002600  1
  O  O60  1  0.80805700  0.35191400  0.24486000  1
  O  O61  1  0.61794450  0.45708850  0.14380400  1
  O  O62  1  0.34080450  0.35884650  0.64078000  1
  O  O63  1  0.90078000  0.01876900  0.50354300  1
  O  O64  1  0.74898600  0.28683100  0.40319700  1
  O  O65  1  0.40078000  0.48123100  0.00354300  1
  O  O66  1  0.43497500  0.41431000  0.40915600  1
  O  O67  1  0.03763950  0.49400050  0.36772700  1
  O  O68  1  0.24919100  0.12723400  0.38797600  1
  O  O69  1  0.86303500  0.23060900  0.32208000  1
  O  O70  1  0.04893700  0.16857800  0.40824500  1
  O  O71  1  0.82841850  0.31359750  0.74897700  1
  O  O72  1  0.93497500  0.08569000  0.90915600  1
  O  O73  1  0.12692650  0.39791950  0.67186700  1
  O  O74  1  0.30805700  0.14808600  0.74486000  1
  O  O75  1  0.14224450  0.27412750  0.20901300  1
  O  O76  1  0.11794450  0.04291150  0.64380400  1
  O  O77  1  0.43800800  0.08501600  0.14706200  1
  O  O78  1  0.29491350  0.49923250  0.69475500  1
  O  O79  1  0.32841850  0.18640250  0.24897700  1
  O  O80  1  0.44414400  0.25483300  0.65575300  1
  O  O81  1  0.50708100  0.40148900  0.23117600  1
  O  O82  1  0.33691250  0.33140950  0.17041100  1
  O  O83  1  0.73331150  0.06238950  0.85084500  1
  O  O84  1  0.46665950  0.18852250  0.04550100  1
  O  O85  1  0.94414400  0.24516700  0.15575300  1
  O  O86  1  0.05121500  0.18462100  0.93599200  1
  O  O87  1  0.81825650  0.48714050  0.11007200  1
  O  O88  1  0.57502200  0.16319700  0.86028400  1
  O  O89  1  0.09208850  0.33029050  0.85508200  1
  O  O90  1  0.83691250  0.16859050  0.67041100  1
  O  O91  1  0.00708100  0.09851100  0.73117600  1
  O  O92  1  0.79491350  0.00076750  0.19475500  1
  O  O93  1  0.64224450  0.22587250  0.70901300  1
  O  O94  1  0.93800800  0.41498400  0.64706200  1
  O  O95  1  0.55121500  0.31537900  0.43599200  1
  O  O96  1  0.96665950  0.31147750  0.54550100  1
  O  O97  1  0.96959550  0.35065150  0.05294600  1
  O  O98  1  0.62692650  0.10208050  0.17186700  1
  O  O99  1  0.84080450  0.14115350  0.14078000  1
  O  O100  1  0.07502200  0.33680300  0.36028400  1
  O  O101  1  0.38054250  0.06575250  0.33979500  1
  O  O102  1  0.96959550  0.64934850  0.55294600  1
  O  O103  1  0.86303500  0.76939100  0.82208000  1
  O  O104  1  0.24919100  0.87276600  0.88797600  1
  O  O105  1  0.04893700  0.83142200  0.90824500  1
  O  O106  1  0.55874600  0.52374900  0.30002600  1
  O  O107  1  0.73331150  0.93761050  0.35084500  1
  O  O108  1  0.09208850  0.66970950  0.35508200  1
  O  O109  1  0.74898600  0.71316900  0.90319700  1
  O  O110  1  0.03763950  0.50599950  0.86772700  1
  O  O111  1  0.38054250  0.93424750  0.83979500  1
  O  O112  1  0.81825650  0.51285950  0.61007200  1
  O  O113  1  0.05874600  0.97625100  0.80002600  1
  O  O114  1  0.30805700  0.85191400  0.24486000  1
  O  O115  1  0.11794450  0.95708850  0.14380400  1
  O  O116  1  0.84080450  0.85884650  0.64078000  1
  O  O117  1  0.40078000  0.51876900  0.50354300  1
  O  O118  1  0.24898600  0.78683100  0.40319700  1
  O  O119  1  0.90078000  0.98123100  0.00354300  1
  O  O120  1  0.93497500  0.91431000  0.40915600  1
  O  O121  1  0.53763950  0.99400050  0.36772700  1
  O  O122  1  0.74919100  0.62723400  0.38797600  1
  O  O123  1  0.36303500  0.73060900  0.32208000  1
  O  O124  1  0.54893700  0.66857800  0.40824500  1
  O  O125  1  0.32841850  0.81359750  0.74897700  1
  O  O126  1  0.43497500  0.58569000  0.90915600  1
  O  O127  1  0.62692650  0.89791950  0.67186700  1
  O  O128  1  0.80805700  0.64808600  0.74486000  1
  O  O129  1  0.64224450  0.77412750  0.20901300  1
  O  O130  1  0.61794450  0.54291150  0.64380400  1
  O  O131  1  0.93800800  0.58501600  0.14706200  1
  O  O132  1  0.79491350  0.99923250  0.69475500  1
  O  O133  1  0.82841850  0.68640250  0.24897700  1
  O  O134  1  0.94414400  0.75483300  0.65575300  1
  O  O135  1  0.00708100  0.90148900  0.23117600  1
  O  O136  1  0.83691250  0.83140950  0.17041100  1
  O  O137  1  0.23331150  0.56238950  0.85084500  1
  O  O138  1  0.96665950  0.68852250  0.04550100  1
  O  O139  1  0.44414400  0.74516700  0.15575300  1
  O  O140  1  0.55121500  0.68462100  0.93599200  1
  O  O141  1  0.31825650  0.98714050  0.11007200  1
  O  O142  1  0.07502200  0.66319700  0.86028400  1
  O  O143  1  0.59208850  0.83029050  0.85508200  1
  O  O144  1  0.33691250  0.66859050  0.67041100  1
  O  O145  1  0.50708100  0.59851100  0.73117600  1
  O  O146  1  0.29491350  0.50076750  0.19475500  1
  O  O147  1  0.14224450  0.72587250  0.70901300  1
  O  O148  1  0.43800800  0.91498400  0.64706200  1
  O  O149  1  0.05121500  0.81537900  0.43599200  1
  O  O150  1  0.46665950  0.81147750  0.54550100  1
  O  O151  1  0.46959550  0.85065150  0.05294600  1
  O  O152  1  0.12692650  0.60208050  0.17186700  1
  O  O153  1  0.34080450  0.64115350  0.14078000  1
  O  O154  1  0.57502200  0.83680300  0.36028400  1
  O  O155  1  0.88054250  0.56575250  0.33979500  1
