# generated using pymatgen
data_Rb7Au5O2
_symmetry_space_group_name_H-M   'P 1'
_cell_length_a   5.80988600
_cell_length_b   9.47938000
_cell_length_c   16.99073400
_cell_angle_alpha   90.00000000
_cell_angle_beta   90.00000000
_cell_angle_gamma   90.00000000
_symmetry_Int_Tables_number   1
_chemical_formula_structural   Rb7Au5O2
_chemical_formula_sum   'Rb14 Au10 O4'
_cell_volume   935.74967479
_cell_formula_units_Z   2
loop_
 _symmetry_equiv_pos_site_id
 _symmetry_equiv_pos_as_xyz
  1  'x, y, z'
loop_
 _atom_site_type_symbol
 _atom_site_label
 _atom_site_symmetry_multiplicity
 _atom_site_fract_x
 _atom_site_fract_y
 _atom_site_fract_z
 _atom_site_occupancy
  Rb  Rb0  1  0.00000000  0.77802000  0.83390100  1
  Rb  Rb1  1  0.50000000  0.78885700  0.00000000  1
  Rb  Rb2  1  0.00000000  0.22198000  0.83390100  1
  Rb  Rb3  1  0.50000000  0.72198000  0.66609900  1
  Rb  Rb4  1  0.50000000  0.27802000  0.66609900  1
  Rb  Rb5  1  0.50000000  0.21114300  0.00000000  1
  Rb  Rb6  1  0.00000000  0.50000000  0.00000000  1
  Rb  Rb7  1  0.50000000  0.27802000  0.33390100  1
  Rb  Rb8  1  0.00000000  0.28885700  0.50000000  1
  Rb  Rb9  1  0.50000000  0.72198000  0.33390100  1
  Rb  Rb10  1  0.00000000  0.22198000  0.16609900  1
  Rb  Rb11  1  0.00000000  0.77802000  0.16609900  1
  Rb  Rb12  1  0.00000000  0.71114300  0.50000000  1
  Rb  Rb13  1  0.50000000  0.00000000  0.50000000  1
  Au  Au14  1  0.00000000  0.00000000  0.65176200  1
  Au  Au15  1  0.50000000  0.00000000  0.80709000  1
  Au  Au16  1  0.00000000  0.00000000  0.00000000  1
  Au  Au17  1  0.50000000  0.50000000  0.84823800  1
  Au  Au18  1  0.00000000  0.50000000  0.69291000  1
  Au  Au19  1  0.50000000  0.50000000  0.15176200  1
  Au  Au20  1  0.00000000  0.50000000  0.30709000  1
  Au  Au21  1  0.50000000  0.50000000  0.50000000  1
  Au  Au22  1  0.00000000  0.00000000  0.34823800  1
  Au  Au23  1  0.50000000  0.00000000  0.19291000  1
  O  O24  1  0.00000000  0.78463200  0.00000000  1
  O  O25  1  0.00000000  0.21536800  0.00000000  1
  O  O26  1  0.50000000  0.28463200  0.50000000  1
  O  O27  1  0.50000000  0.71536800  0.50000000  1
