# generated using pymatgen
data_In(PO3)3
_symmetry_space_group_name_H-M   'P 1'
_cell_length_a   13.79399800
_cell_length_b   6.68719400
_cell_length_c   9.83847721
_cell_angle_alpha   90.00000000
_cell_angle_beta   127.19441723
_cell_angle_gamma   90.00000000
_symmetry_Int_Tables_number   1
_chemical_formula_structural   In(PO3)3
_chemical_formula_sum   'In4 P12 O36'
_cell_volume   722.92987910
_cell_formula_units_Z   4
loop_
 _symmetry_equiv_pos_site_id
 _symmetry_equiv_pos_as_xyz
  1  'x, y, z'
loop_
 _atom_site_type_symbol
 _atom_site_label
 _atom_site_symmetry_multiplicity
 _atom_site_fract_x
 _atom_site_fract_y
 _atom_site_fract_z
 _atom_site_occupancy
  In  In0  1  0.74776150  0.76314050  0.50072200  1
  In  In1  1  0.24776150  0.73685950  0.00072200  1
  In  In2  1  0.24776150  0.26314050  0.50072200  1
  In  In3  1  0.74776150  0.23685950  0.00072200  1
  P  P4  1  0.60408900  0.58345500  0.67206400  1
  P  P5  1  0.89414600  0.09973100  0.83187200  1
  P  P6  1  0.49136250  0.92802950  0.73014600  1
  P  P7  1  0.10408900  0.91654500  0.17206400  1
  P  P8  1  0.39414600  0.40026900  0.33187200  1
  P  P9  1  0.49136250  0.07197050  0.23014600  1
  P  P10  1  0.10408900  0.08345500  0.67206400  1
  P  P11  1  0.39414600  0.59973100  0.83187200  1
  P  P12  1  0.99136250  0.42802950  0.73014600  1
  P  P13  1  0.60408900  0.41654500  0.17206400  1
  P  P14  1  0.89414600  0.90026900  0.33187200  1
  P  P15  1  0.99136250  0.57197050  0.23014600  1
  O  O16  1  0.41909300  0.81408600  0.78755800  1
  O  O17  1  0.40478750  0.07460750  0.59557900  1
  O  O18  1  0.51206900  0.76210300  0.63087800  1
  O  O19  1  0.51206900  0.23789700  0.13087800  1
  O  O20  1  0.64335800  0.51658500  0.33460900  1
  O  O21  1  0.61023400  0.99894500  0.38794400  1
  O  O22  1  0.28810700  0.38189500  0.33713200  1
  O  O23  1  0.38309500  0.55399300  0.21207000  1
  O  O24  1  0.64335800  0.48341500  0.83460900  1
  O  O25  1  0.20201550  0.84180650  0.16184800  1
  O  O26  1  0.70201550  0.65819350  0.66184800  1
  O  O27  1  0.01858300  0.06866900  0.01887800  1
  O  O28  1  0.40478750  0.92539250  0.09557900  1
  O  O29  1  0.38309500  0.44600700  0.71207000  1
  O  O30  1  0.78810700  0.11810500  0.83713200  1
  O  O31  1  0.61023400  0.00105500  0.88794400  1
  O  O32  1  0.41909300  0.18591400  0.28755800  1
  O  O33  1  0.51858300  0.43133100  0.51887800  1
  O  O34  1  0.91909300  0.31408600  0.78755800  1
  O  O35  1  0.90478750  0.57460750  0.59557900  1
  O  O36  1  0.01206900  0.26210300  0.63087800  1
  O  O37  1  0.01206900  0.73789700  0.13087800  1
  O  O38  1  0.14335800  0.01658500  0.33460900  1
  O  O39  1  0.11023400  0.49894500  0.38794400  1
  O  O40  1  0.78810700  0.88189500  0.33713200  1
  O  O41  1  0.88309500  0.05399300  0.21207000  1
  O  O42  1  0.14335800  0.98341500  0.83460900  1
  O  O43  1  0.70201550  0.34180650  0.16184800  1
  O  O44  1  0.20201550  0.15819350  0.66184800  1
  O  O45  1  0.51858300  0.56866900  0.01887800  1
  O  O46  1  0.90478750  0.42539250  0.09557900  1
  O  O47  1  0.88309500  0.94600700  0.71207000  1
  O  O48  1  0.28810700  0.61810500  0.83713200  1
  O  O49  1  0.11023400  0.50105500  0.88794400  1
  O  O50  1  0.91909300  0.68591400  0.28755800  1
  O  O51  1  0.01858300  0.93133100  0.51887800  1
