# generated using pymatgen
data_RbS
_symmetry_space_group_name_H-M   'P 1'
_cell_length_a   5.07675800
_cell_length_b   6.89045800
_cell_length_c   8.79029000
_cell_angle_alpha   90.00000000
_cell_angle_beta   90.00000000
_cell_angle_gamma   90.00000000
_symmetry_Int_Tables_number   1
_chemical_formula_structural   RbS
_chemical_formula_sum   'Rb4 S4'
_cell_volume   307.49478509
_cell_formula_units_Z   4
loop_
 _symmetry_equiv_pos_site_id
 _symmetry_equiv_pos_as_xyz
  1  'x, y, z'
loop_
 _atom_site_type_symbol
 _atom_site_label
 _atom_site_symmetry_multiplicity
 _atom_site_fract_x
 _atom_site_fract_y
 _atom_site_fract_z
 _atom_site_occupancy
  Rb  Rb0  1  0.00000000  0.50000000  0.27741900  1
  Rb  Rb1  1  0.00000000  0.50000000  0.72258100  1
  Rb  Rb2  1  0.50000000  0.00000000  0.77741900  1
  Rb  Rb3  1  0.50000000  0.00000000  0.22258100  1
  S  S4  1  0.00000000  0.15474200  0.00000000  1
  S  S5  1  0.00000000  0.84525800  0.00000000  1
  S  S6  1  0.50000000  0.65474200  0.50000000  1
  S  S7  1  0.50000000  0.34525800  0.50000000  1
