# generated using pymatgen
data_Sr25Cl52
_symmetry_space_group_name_H-M   'P 1'
_cell_length_a   8.65363687
_cell_length_b   13.23776204
_cell_length_c   20.64530728
_cell_angle_alpha   108.65260745
_cell_angle_beta   94.03264632
_cell_angle_gamma   96.25082510
_symmetry_Int_Tables_number   1
_chemical_formula_structural   Sr25Cl52
_chemical_formula_sum   'Sr25 Cl52'
_cell_volume   2213.54960658
_cell_formula_units_Z   1
loop_
 _symmetry_equiv_pos_site_id
 _symmetry_equiv_pos_as_xyz
  1  'x, y, z'
loop_
 _atom_site_type_symbol
 _atom_site_label
 _atom_site_symmetry_multiplicity
 _atom_site_fract_x
 _atom_site_fract_y
 _atom_site_fract_z
 _atom_site_occupancy
  Sr  Sr0  1  0.76002306  0.60051052  0.98005991  1
  Sr  Sr1  1  0.83924087  0.39900250  0.81980319  1
  Sr  Sr2  1  0.32791559  0.19997359  0.86062819  1
  Sr  Sr3  1  0.44068617  0.39942873  0.62023457  1
  Sr  Sr4  1  0.79978445  0.00057393  0.89982666  1
  Sr  Sr5  1  0.91185930  0.19987144  0.65976278  1
  Sr  Sr6  1  0.27564465  0.79635146  0.93912687  1
  Sr  Sr7  1  0.03716974  0.39655632  0.42202480  1
  Sr  Sr8  1  0.40079309  0.00181818  0.69981451  1
  Sr  Sr9  1  0.51880240  0.19998595  0.45730271  1
  Sr  Sr10  1  0.88188706  0.79646286  0.73978810  1
  Sr  Sr11  1  0.64201667  0.39717233  0.21967254  1
  Sr  Sr12  1  0.00000000  0.00000000  0.50000000  1
  Sr  Sr13  1  0.35798333  0.60282767  0.78032746  1
  Sr  Sr14  1  0.11811294  0.20353714  0.26021190  1
  Sr  Sr15  1  0.48119760  0.80001405  0.54269729  1
  Sr  Sr16  1  0.59920691  0.99818182  0.30018549  1
  Sr  Sr17  1  0.23997694  0.39948948  0.01994009  1
  Sr  Sr18  1  0.96283026  0.60344368  0.57797520  1
  Sr  Sr19  1  0.08814070  0.80012856  0.34023722  1
  Sr  Sr20  1  0.72435535  0.20364854  0.06087313  1
  Sr  Sr21  1  0.55931383  0.60057127  0.37976543  1
  Sr  Sr22  1  0.20021555  0.99942607  0.10017334  1
  Sr  Sr23  1  0.67208441  0.80002641  0.13937181  1
  Sr  Sr24  1  0.16075913  0.60099750  0.18019681  1
  Cl  Cl25  1  0.89087598  0.40123422  0.96955970  1
  Cl  Cl26  1  0.18950428  0.40004582  0.87013186  1
  Cl  Cl27  1  0.48584603  0.40700893  0.77032091  1
  Cl  Cl28  1  0.67341749  0.20003010  0.91575807  1
  Cl  Cl29  1  0.98134904  0.19991932  0.81183617  1
  Cl  Cl30  1  0.14934609  0.00042874  0.95004028  1
  Cl  Cl31  1  0.44437022  0.99300866  0.85299169  1
  Cl  Cl32  1  0.79559864  0.40718622  0.66685905  1
  Cl  Cl33  1  0.09022423  0.39985935  0.57001378  1
  Cl  Cl34  1  0.62018715  0.20011839  0.75986003  1
  Cl  Cl35  1  0.56669951  0.20012822  0.60403130  1
  Cl  Cl36  1  0.25857033  0.20006559  0.70815802  1
  Cl  Cl37  1  0.92953034  0.79972590  0.89003171  1
  Cl  Cl38  1  0.68988515  0.39983858  0.37009921  1
  Cl  Cl39  1  0.05039770  0.99995391  0.64988379  1
  Cl  Cl40  1  0.39017196  0.40033363  0.47000442  1
  Cl  Cl41  1  0.75419061  0.99292197  0.74968181  1
  Cl  Cl42  1  0.40979161  0.59968669  0.93000232  1
  Cl  Cl43  1  0.52958126  0.80018726  0.69051761  1
  Cl  Cl44  1  0.86984137  0.19917818  0.51032363  1
  Cl  Cl45  1  0.16957376  0.19989135  0.40992541  1
  Cl  Cl46  1  0.22956541  0.80054138  0.78927497  1
  Cl  Cl47  1  0.65035118  0.00036450  0.44976806  1
  Cl  Cl48  1  0.34964882  0.99963550  0.55023194  1
  Cl  Cl49  1  0.28943462  0.40025652  0.16984355  1
  Cl  Cl50  1  0.98968929  0.40054398  0.26984964  1
  Cl  Cl51  1  0.01031071  0.59945602  0.73015036  1
  Cl  Cl52  1  0.71056538  0.59974348  0.83015645  1
  Cl  Cl53  1  0.77043459  0.19945862  0.21072503  1
  Cl  Cl54  1  0.47041874  0.19981274  0.30948239  1
  Cl  Cl55  1  0.13015863  0.80082182  0.48967637  1
  Cl  Cl56  1  0.83042624  0.80010865  0.59007459  1
  Cl  Cl57  1  0.94960230  0.00004609  0.35011621  1
  Cl  Cl58  1  0.60982804  0.59966637  0.52999558  1
  Cl  Cl59  1  0.24580939  0.00707803  0.25031819  1
  Cl  Cl60  1  0.31011485  0.60016142  0.62990079  1
  Cl  Cl61  1  0.59020839  0.40031331  0.06999768  1
  Cl  Cl62  1  0.74142967  0.79993441  0.29184198  1
  Cl  Cl63  1  0.43330049  0.79987178  0.39596870  1
  Cl  Cl64  1  0.36908764  0.20010114  0.00996379  1
  Cl  Cl65  1  0.07046966  0.20027410  0.10996829  1
  Cl  Cl66  1  0.37981285  0.79988161  0.24013997  1
  Cl  Cl67  1  0.20440136  0.59281378  0.33314095  1
  Cl  Cl68  1  0.90977577  0.60014065  0.42998622  1
  Cl  Cl69  1  0.85065391  0.99957126  0.04995972  1
  Cl  Cl70  1  0.55562978  0.00699134  0.14700831  1
  Cl  Cl71  1  0.32658251  0.79996990  0.08424193  1
  Cl  Cl72  1  0.01865096  0.80008068  0.18816383  1
  Cl  Cl73  1  0.81049572  0.59995418  0.12986814  1
  Cl  Cl74  1  0.51415397  0.59299107  0.22967909  1
  Cl  Cl75  1  0.63091236  0.79989886  0.99003621  1
  Cl  Cl76  1  0.10912402  0.59876578  0.03044030  1
