# generated using pymatgen
data_CuO
_symmetry_space_group_name_H-M   'P 1'
_cell_length_a   2.83003800
_cell_length_b   6.46151600
_cell_length_c   12.33154600
_cell_angle_alpha   90.00000000
_cell_angle_beta   90.00000000
_cell_angle_gamma   90.00000000
_symmetry_Int_Tables_number   1
_chemical_formula_structural   CuO
_chemical_formula_sum   'Cu8 O8'
_cell_volume   225.49879131
_cell_formula_units_Z   8
loop_
 _symmetry_equiv_pos_site_id
 _symmetry_equiv_pos_as_xyz
  1  'x, y, z'
loop_
 _atom_site_type_symbol
 _atom_site_label
 _atom_site_symmetry_multiplicity
 _atom_site_fract_x
 _atom_site_fract_y
 _atom_site_fract_z
 _atom_site_occupancy
  Cu  Cu0  1  0.25000000  0.60761600  0.75424100  1
  Cu  Cu1  1  0.75000000  0.89238400  0.25424100  1
  Cu  Cu2  1  0.25000000  0.10761600  0.74575900  1
  Cu  Cu3  1  0.75000000  0.39238400  0.24575900  1
  Cu  Cu4  1  0.25000000  0.65123400  0.09847300  1
  Cu  Cu5  1  0.75000000  0.84876600  0.59847300  1
  Cu  Cu6  1  0.25000000  0.15123400  0.40152700  1
  Cu  Cu7  1  0.75000000  0.34876600  0.90152700  1
  O  O8  1  0.25000000  0.65821000  0.60934200  1
  O  O9  1  0.25000000  0.54391200  0.89834900  1
  O  O10  1  0.75000000  0.95608800  0.39834900  1
  O  O11  1  0.75000000  0.84179000  0.10934200  1
  O  O12  1  0.25000000  0.15821000  0.89065800  1
  O  O13  1  0.25000000  0.04391200  0.60165100  1
  O  O14  1  0.75000000  0.45608800  0.10165100  1
  O  O15  1  0.75000000  0.34179000  0.39065800  1
