# generated using pymatgen
data_K4Sr(SiO3)3
_symmetry_space_group_name_H-M   'P 1'
_cell_length_a   8.05465600
_cell_length_b   12.05786400
_cell_length_c   11.13674900
_cell_angle_alpha   90.00000000
_cell_angle_beta   90.00000000
_cell_angle_gamma   90.00000000
_symmetry_Int_Tables_number   1
_chemical_formula_structural   K4Sr(SiO3)3
_chemical_formula_sum   'K16 Sr4 Si12 O36'
_cell_volume   1081.62274184
_cell_formula_units_Z   4
loop_
 _symmetry_equiv_pos_site_id
 _symmetry_equiv_pos_as_xyz
  1  'x, y, z'
loop_
 _atom_site_type_symbol
 _atom_site_label
 _atom_site_symmetry_multiplicity
 _atom_site_fract_x
 _atom_site_fract_y
 _atom_site_fract_z
 _atom_site_occupancy
  K  K0  1  0.55318900  0.78898700  0.25000000  1
  K  K1  1  0.50000000  0.44475900  0.00000000  1
  K  K2  1  0.50000000  0.00012100  0.00000000  1
  K  K3  1  0.44681100  0.78898700  0.75000000  1
  K  K4  1  0.22387450  0.99622650  0.25000000  1
  K  K5  1  0.50000000  0.00012100  0.50000000  1
  K  K6  1  0.77612550  0.99622650  0.75000000  1
  K  K7  1  0.50000000  0.44475900  0.50000000  1
  K  K8  1  0.05318900  0.28898700  0.25000000  1
  K  K9  1  0.00000000  0.94475900  0.00000000  1
  K  K10  1  0.00000000  0.50012100  0.00000000  1
  K  K11  1  0.94681100  0.28898700  0.75000000  1
  K  K12  1  0.72387450  0.49622650  0.25000000  1
  K  K13  1  0.00000000  0.50012100  0.50000000  1
  K  K14  1  0.27612550  0.49622650  0.75000000  1
  K  K15  1  0.00000000  0.94475900  0.50000000  1
  Sr  Sr16  1  0.49000850  0.23578250  0.25000000  1
  Sr  Sr17  1  0.50999150  0.23578250  0.75000000  1
  Sr  Sr18  1  0.99000850  0.73578250  0.25000000  1
  Sr  Sr19  1  0.00999150  0.73578250  0.75000000  1
  Si  Si20  1  0.69465450  0.71387950  0.96909200  1
  Si  Si21  1  0.30534550  0.71387950  0.03090800  1
  Si  Si22  1  0.30534550  0.71387950  0.46909200  1
  Si  Si23  1  0.22480650  0.03619550  0.75000000  1
  Si  Si24  1  0.77519350  0.03619550  0.25000000  1
  Si  Si25  1  0.69465450  0.71387950  0.53090800  1
  Si  Si26  1  0.19465450  0.21387950  0.96909200  1
  Si  Si27  1  0.80534550  0.21387950  0.03090800  1
  Si  Si28  1  0.80534550  0.21387950  0.46909200  1
  Si  Si29  1  0.72480650  0.53619550  0.75000000  1
  Si  Si30  1  0.27519350  0.53619550  0.25000000  1
  Si  Si31  1  0.19465450  0.21387950  0.53090800  1
  O  O32  1  0.83738300  0.10844500  0.12872900  1
  O  O33  1  0.21373000  0.81328300  0.39793500  1
  O  O34  1  0.71923550  0.16694750  0.90977500  1
  O  O35  1  0.16261700  0.10844500  0.87127100  1
  O  O36  1  0.16261700  0.10844500  0.62872900  1
  O  O37  1  0.50000000  0.75885600  0.00000000  1
  O  O38  1  0.28076450  0.16694750  0.40977500  1
  O  O39  1  0.28076450  0.16694750  0.09022500  1
  O  O40  1  0.57408000  0.02606900  0.25000000  1
  O  O41  1  0.50000000  0.75885600  0.50000000  1
  O  O42  1  0.78627000  0.81328300  0.89793500  1
  O  O43  1  0.12208150  0.92149650  0.75000000  1
  O  O44  1  0.87791850  0.92149650  0.25000000  1
  O  O45  1  0.42592000  0.02606900  0.75000000  1
  O  O46  1  0.71923550  0.16694750  0.59022500  1
  O  O47  1  0.21373000  0.81328300  0.10206500  1
  O  O48  1  0.78627000  0.81328300  0.60206500  1
  O  O49  1  0.83738300  0.10844500  0.37127100  1
  O  O50  1  0.33738300  0.60844500  0.12872900  1
  O  O51  1  0.71373000  0.31328300  0.39793500  1
  O  O52  1  0.21923550  0.66694750  0.90977500  1
  O  O53  1  0.66261700  0.60844500  0.87127100  1
  O  O54  1  0.66261700  0.60844500  0.62872900  1
  O  O55  1  0.00000000  0.25885600  0.00000000  1
  O  O56  1  0.78076450  0.66694750  0.40977500  1
  O  O57  1  0.78076450  0.66694750  0.09022500  1
  O  O58  1  0.07408000  0.52606900  0.25000000  1
  O  O59  1  0.00000000  0.25885600  0.50000000  1
  O  O60  1  0.28627000  0.31328300  0.89793500  1
  O  O61  1  0.62208150  0.42149650  0.75000000  1
  O  O62  1  0.37791850  0.42149650  0.25000000  1
  O  O63  1  0.92592000  0.52606900  0.75000000  1
  O  O64  1  0.21923550  0.66694750  0.59022500  1
  O  O65  1  0.71373000  0.31328300  0.10206500  1
  O  O66  1  0.28627000  0.31328300  0.60206500  1
  O  O67  1  0.33738300  0.60844500  0.37127100  1
