# generated using pymatgen
data_HCN
_symmetry_space_group_name_H-M   'P 1'
_cell_length_a   8.71329900
_cell_length_b   5.04706000
_cell_length_c   12.66765407
_cell_angle_alpha   90.00000000
_cell_angle_beta   101.84297424
_cell_angle_gamma   90.00000000
_symmetry_Int_Tables_number   1
_chemical_formula_structural   HCN
_chemical_formula_sum   'H16 C16 N16'
_cell_volume   545.22148610
_cell_formula_units_Z   16
loop_
 _symmetry_equiv_pos_site_id
 _symmetry_equiv_pos_as_xyz
  1  'x, y, z'
loop_
 _atom_site_type_symbol
 _atom_site_label
 _atom_site_symmetry_multiplicity
 _atom_site_fract_x
 _atom_site_fract_y
 _atom_site_fract_z
 _atom_site_occupancy
  H  H0  1  0.11574000  0.23749200  0.43139800  1
  H  H1  1  0.88426000  0.73749200  0.06860200  1
  H  H2  1  0.88426000  0.76250800  0.56860200  1
  H  H3  1  0.11574000  0.26250800  0.93139800  1
  H  H4  1  0.20538000  0.98634400  0.37221000  1
  H  H5  1  0.79462000  0.48634400  0.12779000  1
  H  H6  1  0.79462000  0.01365600  0.62779000  1
  H  H7  1  0.20538000  0.51365600  0.87221000  1
  H  H8  1  0.41987400  0.69243100  0.60638300  1
  H  H9  1  0.58012600  0.19243100  0.89361700  1
  H  H10  1  0.58012600  0.30756900  0.39361700  1
  H  H11  1  0.41987400  0.80756900  0.10638300  1
  H  H12  1  0.38165000  0.70522300  0.46514000  1
  H  H13  1  0.61835000  0.20522300  0.03486000  1
  H  H14  1  0.61835000  0.29477700  0.53486000  1
  H  H15  1  0.38165000  0.79477700  0.96514000  1
  C  C16  1  0.26437200  0.98295000  0.53593700  1
  C  C17  1  0.73562800  0.48295000  0.96406300  1
  C  C18  1  0.73562800  0.01705000  0.46406300  1
  C  C19  1  0.26437200  0.51705000  0.03593700  1
  C  C20  1  0.23645100  0.09381300  0.63467500  1
  C  C21  1  0.76354900  0.59381300  0.86532500  1
  C  C22  1  0.76354900  0.90618700  0.36532500  1
  C  C23  1  0.23645100  0.40618700  0.13467500  1
  C  C24  1  0.12845000  0.30061300  0.63427800  1
  C  C25  1  0.87155000  0.80061300  0.86572200  1
  C  C26  1  0.87155000  0.69938700  0.36572200  1
  C  C27  1  0.12845000  0.19938700  0.13427800  1
  C  C28  1  0.31491000  0.99473600  0.73409400  1
  C  C29  1  0.68509000  0.49473600  0.76590600  1
  C  C30  1  0.68509000  0.00526400  0.26590600  1
  C  C31  1  0.31491000  0.50526400  0.23409400  1
  N  N32  1  0.19318000  0.08225800  0.44041500  1
  N  N33  1  0.80682000  0.58225800  0.05958500  1
  N  N34  1  0.80682000  0.91774200  0.55958500  1
  N  N35  1  0.19318000  0.41774200  0.94041500  1
  N  N36  1  0.36302900  0.77944300  0.53689900  1
  N  N37  1  0.63697100  0.27944300  0.96310100  1
  N  N38  1  0.63697100  0.22055700  0.46310100  1
  N  N39  1  0.36302900  0.72055700  0.03689900  1
  N  N40  1  0.03792000  0.47355900  0.63273300  1
  N  N41  1  0.96208000  0.97355900  0.86726700  1
  N  N42  1  0.96208000  0.52644100  0.36726700  1
  N  N43  1  0.03792000  0.02644100  0.13273300  1
  N  N44  1  0.38219900  0.91281500  0.81784000  1
  N  N45  1  0.61780100  0.41281500  0.68216000  1
  N  N46  1  0.61780100  0.08718500  0.18216000  1
  N  N47  1  0.38219900  0.58718500  0.31784000  1
