# generated using pymatgen
data_DyNbO4
_symmetry_space_group_name_H-M   'P 1'
_cell_length_a   7.15256600
_cell_length_b   11.12806800
_cell_length_c   5.14675750
_cell_angle_alpha   90.00000000
_cell_angle_beta   131.74682989
_cell_angle_gamma   90.00000000
_symmetry_Int_Tables_number   1
_chemical_formula_structural   DyNbO4
_chemical_formula_sum   'Dy4 Nb4 O16'
_cell_volume   305.63917855
_cell_formula_units_Z   4
loop_
 _symmetry_equiv_pos_site_id
 _symmetry_equiv_pos_as_xyz
  1  'x, y, z'
loop_
 _atom_site_type_symbol
 _atom_site_label
 _atom_site_symmetry_multiplicity
 _atom_site_fract_x
 _atom_site_fract_y
 _atom_site_fract_z
 _atom_site_occupancy
  Dy  Dy0  1  0.00000000  0.37169900  0.25000000  1
  Dy  Dy1  1  0.50000000  0.12830100  0.75000000  1
  Dy  Dy2  1  0.50000000  0.87169900  0.25000000  1
  Dy  Dy3  1  0.00000000  0.62830100  0.75000000  1
  Nb  Nb4  1  0.50000000  0.39198400  0.25000000  1
  Nb  Nb5  1  0.00000000  0.10801600  0.75000000  1
  Nb  Nb6  1  0.00000000  0.89198400  0.25000000  1
  Nb  Nb7  1  0.50000000  0.60801600  0.75000000  1
  O  O8  1  0.16002550  0.21009150  0.65875000  1
  O  O9  1  0.83997450  0.21009150  0.84125000  1
  O  O10  1  0.33997450  0.28990850  0.34125000  1
  O  O11  1  0.66002550  0.28990850  0.15875000  1
  O  O12  1  0.24977350  0.46724050  0.79632000  1
  O  O13  1  0.75022650  0.46724050  0.70368000  1
  O  O14  1  0.25022650  0.03275950  0.20368000  1
  O  O15  1  0.74977350  0.03275950  0.29632000  1
  O  O16  1  0.66002550  0.71009150  0.65875000  1
  O  O17  1  0.33997450  0.71009150  0.84125000  1
  O  O18  1  0.83997450  0.78990850  0.34125000  1
  O  O19  1  0.16002550  0.78990850  0.15875000  1
  O  O20  1  0.74977350  0.96724050  0.79632000  1
  O  O21  1  0.25022650  0.96724050  0.70368000  1
  O  O22  1  0.75022650  0.53275950  0.20368000  1
  O  O23  1  0.24977350  0.53275950  0.29632000  1
