# generated using pymatgen
data_Pr2O3
_symmetry_space_group_name_H-M   'P 1'
_cell_length_a   14.66646400
_cell_length_b   3.74268200
_cell_length_c   9.13814507
_cell_angle_alpha   90.00000000
_cell_angle_beta   100.16979792
_cell_angle_gamma   90.00000000
_symmetry_Int_Tables_number   1
_chemical_formula_structural   Pr2O3
_chemical_formula_sum   'Pr12 O18'
_cell_volume   493.72935384
_cell_formula_units_Z   6
loop_
 _symmetry_equiv_pos_site_id
 _symmetry_equiv_pos_as_xyz
  1  'x, y, z'
loop_
 _atom_site_type_symbol
 _atom_site_label
 _atom_site_symmetry_multiplicity
 _atom_site_fract_x
 _atom_site_fract_y
 _atom_site_fract_z
 _atom_site_occupancy
  Pr  Pr0  1  0.53327200  0.50000000  0.81177100  1
  Pr  Pr1  1  0.96672800  0.00000000  0.18822900  1
  Pr  Pr2  1  0.69079700  0.00000000  0.13806900  1
  Pr  Pr3  1  0.86555800  0.50000000  0.51000900  1
  Pr  Pr4  1  0.63444200  0.00000000  0.48999100  1
  Pr  Pr5  1  0.80920300  0.50000000  0.86193100  1
  Pr  Pr6  1  0.03327200  0.00000000  0.81177100  1
  Pr  Pr7  1  0.46672800  0.50000000  0.18822900  1
  Pr  Pr8  1  0.19079700  0.50000000  0.13806900  1
  Pr  Pr9  1  0.36555800  0.00000000  0.51000900  1
  Pr  Pr10  1  0.13444200  0.50000000  0.48999100  1
  Pr  Pr11  1  0.30920300  0.00000000  0.86193100  1
  O  O12  1  0.87081500  0.00000000  0.71417500  1
  O  O13  1  0.82453100  0.00000000  0.02634900  1
  O  O14  1  0.52609100  0.00000000  0.65592900  1
  O  O15  1  0.70174200  0.50000000  0.62697400  1
  O  O16  1  0.62918500  0.50000000  0.28582500  1
  O  O17  1  0.00000000  0.50000000  0.00000000  1
  O  O18  1  0.97390900  0.50000000  0.34407100  1
  O  O19  1  0.67546900  0.50000000  0.97365100  1
  O  O20  1  0.79825800  0.00000000  0.37302600  1
  O  O21  1  0.37081500  0.50000000  0.71417500  1
  O  O22  1  0.32453100  0.50000000  0.02634900  1
  O  O23  1  0.02609100  0.50000000  0.65592900  1
  O  O24  1  0.20174200  0.00000000  0.62697400  1
  O  O25  1  0.12918500  0.00000000  0.28582500  1
  O  O26  1  0.50000000  0.00000000  0.00000000  1
  O  O27  1  0.47390900  0.00000000  0.34407100  1
  O  O28  1  0.17546900  0.00000000  0.97365100  1
  O  O29  1  0.29825800  0.50000000  0.37302600  1
