# generated using pymatgen
data_CaSi2(NO)2
_symmetry_space_group_name_H-M   'P 1'
_cell_length_a   7.38548900
_cell_length_b   13.77231200
_cell_length_c   10.57546256
_cell_angle_alpha   90.00000000
_cell_angle_beta   101.89474761
_cell_angle_gamma   90.00000000
_symmetry_Int_Tables_number   1
_chemical_formula_structural   CaSi2(NO)2
_chemical_formula_sum   'Ca12 Si24 N24 O24'
_cell_volume   1052.58865824
_cell_formula_units_Z   12
loop_
 _symmetry_equiv_pos_site_id
 _symmetry_equiv_pos_as_xyz
  1  'x, y, z'
loop_
 _atom_site_type_symbol
 _atom_site_label
 _atom_site_symmetry_multiplicity
 _atom_site_fract_x
 _atom_site_fract_y
 _atom_site_fract_z
 _atom_site_occupancy
  Ca  Ca0  1  0.25477600  0.13003600  0.64272400  1
  Ca  Ca1  1  0.74522400  0.63003600  0.35727600  1
  Ca  Ca2  1  0.08187300  0.06351900  0.94836300  1
  Ca  Ca3  1  0.58833000  0.57514800  0.70152700  1
  Ca  Ca4  1  0.58844300  0.12131400  0.95103900  1
  Ca  Ca5  1  0.91812700  0.56351900  0.05163700  1
  Ca  Ca6  1  0.91909600  0.13292900  0.30461700  1
  Ca  Ca7  1  0.41167000  0.07514800  0.29847300  1
  Ca  Ca8  1  0.74327200  0.06694300  0.61541000  1
  Ca  Ca9  1  0.41155700  0.62131400  0.04896100  1
  Ca  Ca10  1  0.25672800  0.56694300  0.38459000  1
  Ca  Ca11  1  0.08090400  0.63292900  0.69538300  1
  Si  Si12  1  0.37648100  0.90295300  0.08011900  1
  Si  Si13  1  0.38189900  0.89996000  0.58302600  1
  Si  Si14  1  0.95155000  0.29390600  0.56055300  1
  Si  Si15  1  0.28909900  0.40510200  0.69948000  1
  Si  Si16  1  0.95231600  0.40230100  0.30796200  1
  Si  Si17  1  0.37979700  0.79596800  0.32969000  1
  Si  Si18  1  0.95343400  0.28930600  0.05558600  1
  Si  Si19  1  0.62020300  0.29596800  0.67031000  1
  Si  Si20  1  0.71245600  0.89606300  0.80306500  1
  Si  Si21  1  0.95263500  0.40712800  0.80826500  1
  Si  Si22  1  0.28748200  0.29542100  0.94438300  1
  Si  Si23  1  0.04768400  0.90230100  0.69203800  1
  Si  Si24  1  0.04845000  0.79390600  0.43944700  1
  Si  Si25  1  0.71251800  0.79542100  0.05561700  1
  Si  Si26  1  0.28754400  0.39606300  0.19693500  1
  Si  Si27  1  0.04736500  0.90712800  0.19173500  1
  Si  Si28  1  0.37802000  0.79194600  0.83341200  1
  Si  Si29  1  0.71140700  0.79542900  0.54805100  1
  Si  Si30  1  0.62351900  0.40295300  0.91988100  1
  Si  Si31  1  0.71090100  0.90510200  0.30052000  1
  Si  Si32  1  0.61810100  0.39996000  0.41697400  1
  Si  Si33  1  0.28859300  0.29542900  0.45194900  1
  Si  Si34  1  0.62198000  0.29194600  0.16658800  1
  Si  Si35  1  0.04656600  0.78930600  0.94441400  1
  N  N36  1  0.85440400  0.32326400  0.69017000  1
  N  N37  1  0.19205200  0.30726800  0.08313900  1
  N  N38  1  0.86022500  0.31763500  0.18994300  1
  N  N39  1  0.47897300  0.87335900  0.74489000  1
  N  N40  1  0.52102700  0.37335900  0.25511000  1
  N  N41  1  0.13977500  0.81763500  0.81005700  1
  N  N42  1  0.13911100  0.87798800  0.05740000  1
  N  N43  1  0.52245200  0.31654800  0.50763400  1
  N  N44  1  0.19255300  0.38338300  0.33750100  1
  N  N45  1  0.86088900  0.37798800  0.94260000  1
  N  N46  1  0.14559600  0.82326400  0.30983000  1
  N  N47  1  0.80794800  0.80726800  0.91686100  1
  N  N48  1  0.80778200  0.81299000  0.40986000  1
  N  N49  1  0.19221800  0.31299000  0.59014000  1
  N  N50  1  0.47754800  0.81654800  0.49236600  1
  N  N51  1  0.52510300  0.31531400  0.00331600  1
  N  N52  1  0.80744700  0.88338300  0.66249900  1
  N  N53  1  0.19178500  0.38890900  0.83608500  1
  N  N54  1  0.47489700  0.81531400  0.99668400  1
  N  N55  1  0.47394000  0.88478700  0.24384800  1
  N  N56  1  0.85373600  0.37345200  0.43740900  1
  N  N57  1  0.14626400  0.87345200  0.56259100  1
  N  N58  1  0.80821500  0.88890900  0.16391500  1
  N  N59  1  0.52606000  0.38478700  0.75615200  1
  O  O60  1  0.57338100  0.51207000  0.45020300  1
  O  O61  1  0.91945800  0.51663800  0.27008200  1
  O  O62  1  0.73458200  0.01188200  0.36829600  1
  O  O63  1  0.24321800  0.50712900  0.14789200  1
  O  O64  1  0.26315300  0.18768400  0.87880100  1
  O  O65  1  0.26541800  0.51188200  0.63170400  1
  O  O66  1  0.60223100  0.51557500  0.95822000  1
  O  O67  1  0.89789100  0.52014300  0.77424700  1
  O  O68  1  0.75678200  0.00712900  0.85210800  1
  O  O69  1  0.10392900  0.67778800  0.98195000  1
  O  O70  1  0.39776900  0.01557500  0.04178000  1
  O  O71  1  0.89607100  0.17778800  0.01805000  1
  O  O72  1  0.42661900  0.01207000  0.54979700  1
  O  O73  1  0.60247500  0.17758300  0.19825500  1
  O  O74  1  0.73684700  0.68768400  0.12119900  1
  O  O75  1  0.08054200  0.01663800  0.72991800  1
  O  O76  1  0.24130900  0.18513300  0.40152500  1
  O  O77  1  0.57541800  0.18549400  0.71064500  1
  O  O78  1  0.75869100  0.68513300  0.59847500  1
  O  O79  1  0.39752500  0.67758300  0.80174500  1
  O  O80  1  0.10210900  0.02014300  0.22575300  1
  O  O81  1  0.42458200  0.68549400  0.28935500  1
  O  O82  1  0.07873900  0.67841300  0.47377900  1
  O  O83  1  0.92126100  0.17841300  0.52622100  1
