# generated using pymatgen
data_Rb2Bi4O7
_symmetry_space_group_name_H-M   'P 1'
_cell_length_a   21.29976400
_cell_length_b   13.06917400
_cell_length_c   15.81216868
_cell_angle_alpha   90.00000000
_cell_angle_beta   94.31252465
_cell_angle_gamma   90.00000000
_symmetry_Int_Tables_number   1
_chemical_formula_structural   Rb2Bi4O7
_chemical_formula_sum   'Rb32 Bi64 O112'
_cell_volume   4389.17621313
_cell_formula_units_Z   16
loop_
 _symmetry_equiv_pos_site_id
 _symmetry_equiv_pos_as_xyz
  1  'x, y, z'
loop_
 _atom_site_type_symbol
 _atom_site_label
 _atom_site_symmetry_multiplicity
 _atom_site_fract_x
 _atom_site_fract_y
 _atom_site_fract_z
 _atom_site_occupancy
  Rb  Rb0  1  0.41611550  0.04453750  0.28909300  1
  Rb  Rb1  1  0.67484450  0.69657350  0.79180900  1
  Rb  Rb2  1  0.58388450  0.04453750  0.21090700  1
  Rb  Rb3  1  0.66346550  0.20980450  0.79022200  1
  Rb  Rb4  1  0.41611550  0.95546250  0.78909300  1
  Rb  Rb5  1  0.32515550  0.30342650  0.20819100  1
  Rb  Rb6  1  0.66346550  0.79019550  0.29022200  1
  Rb  Rb7  1  0.07987800  0.95226700  0.70930900  1
  Rb  Rb8  1  0.58388450  0.95546250  0.71090700  1
  Rb  Rb9  1  0.32515550  0.69657350  0.70819100  1
  Rb  Rb10  1  0.92012200  0.95226700  0.79069100  1
  Rb  Rb11  1  0.33653450  0.79019550  0.20977800  1
  Rb  Rb12  1  0.07987800  0.04773300  0.20930900  1
  Rb  Rb13  1  0.92012200  0.04773300  0.29069100  1
  Rb  Rb14  1  0.67484450  0.30342650  0.29180900  1
  Rb  Rb15  1  0.33653450  0.20980450  0.70977800  1
  Rb  Rb16  1  0.91611550  0.54453750  0.28909300  1
  Rb  Rb17  1  0.17484450  0.19657350  0.79180900  1
  Rb  Rb18  1  0.08388450  0.54453750  0.21090700  1
  Rb  Rb19  1  0.16346550  0.70980450  0.79022200  1
  Rb  Rb20  1  0.91611550  0.45546250  0.78909300  1
  Rb  Rb21  1  0.82515550  0.80342650  0.20819100  1
  Rb  Rb22  1  0.16346550  0.29019550  0.29022200  1
  Rb  Rb23  1  0.57987800  0.45226700  0.70930900  1
  Rb  Rb24  1  0.08388450  0.45546250  0.71090700  1
  Rb  Rb25  1  0.82515550  0.19657350  0.70819100  1
  Rb  Rb26  1  0.42012200  0.45226700  0.79069100  1
  Rb  Rb27  1  0.83653450  0.29019550  0.20977800  1
  Rb  Rb28  1  0.57987800  0.54773300  0.20930900  1
  Rb  Rb29  1  0.42012200  0.54773300  0.29069100  1
  Rb  Rb30  1  0.17484450  0.80342650  0.29180900  1
  Rb  Rb31  1  0.83653450  0.70980450  0.70977800  1
  Bi  Bi32  1  0.74359950  0.95774250  0.61432700  1
  Bi  Bi33  1  0.32248500  0.72060300  0.96118700  1
  Bi  Bi34  1  0.75957350  0.02361050  0.37309600  1
  Bi  Bi35  1  0.24042650  0.02361050  0.12690400  1
  Bi  Bi36  1  0.34737200  0.25751900  0.95792700  1
  Bi  Bi37  1  0.10022000  0.00921300  0.95693500  1
  Bi  Bi38  1  0.25640050  0.04225750  0.38567300  1
  Bi  Bi39  1  0.48615050  0.72928050  0.62105600  1
  Bi  Bi40  1  0.49659500  0.79343300  0.11875400  1
  Bi  Bi41  1  0.51384950  0.27071950  0.37894400  1
  Bi  Bi42  1  0.89978000  0.99078700  0.04306500  1
  Bi  Bi43  1  0.49659500  0.20656700  0.61875400  1
  Bi  Bi44  1  0.32248500  0.27939700  0.46118700  1
  Bi  Bi45  1  0.51384950  0.72928050  0.87894400  1
  Bi  Bi46  1  0.57383500  0.97370100  0.96524200  1
  Bi  Bi47  1  0.34737200  0.74248100  0.45792700  1
  Bi  Bi48  1  0.74359950  0.04225750  0.11432700  1
  Bi  Bi49  1  0.48615050  0.27071950  0.12105600  1
  Bi  Bi50  1  0.50340500  0.79343300  0.38124600  1
  Bi  Bi51  1  0.50340500  0.20656700  0.88124600  1
  Bi  Bi52  1  0.42616500  0.02629900  0.03475800  1
  Bi  Bi53  1  0.57383500  0.02629900  0.46524200  1
  Bi  Bi54  1  0.75957350  0.97638950  0.87309600  1
  Bi  Bi55  1  0.42616500  0.97370100  0.53475800  1
  Bi  Bi56  1  0.65262800  0.74248100  0.04207300  1
  Bi  Bi57  1  0.67751500  0.72060300  0.53881300  1
  Bi  Bi58  1  0.25640050  0.95774250  0.88567300  1
  Bi  Bi59  1  0.89978000  0.00921300  0.54306500  1
  Bi  Bi60  1  0.24042650  0.97638950  0.62690400  1
  Bi  Bi61  1  0.67751500  0.27939700  0.03881300  1
  Bi  Bi62  1  0.65262800  0.25751900  0.54207300  1
  Bi  Bi63  1  0.10022000  0.99078700  0.45693500  1
  Bi  Bi64  1  0.24359950  0.45774250  0.61432700  1
  Bi  Bi65  1  0.82248500  0.22060300  0.96118700  1
  Bi  Bi66  1  0.25957350  0.52361050  0.37309600  1
  Bi  Bi67  1  0.74042650  0.52361050  0.12690400  1
  Bi  Bi68  1  0.84737200  0.75751900  0.95792700  1
  Bi  Bi69  1  0.60022000  0.50921300  0.95693500  1
  Bi  Bi70  1  0.75640050  0.54225750  0.38567300  1
  Bi  Bi71  1  0.98615050  0.22928050  0.62105600  1
  Bi  Bi72  1  0.99659500  0.29343300  0.11875400  1
  Bi  Bi73  1  0.01384950  0.77071950  0.37894400  1
  Bi  Bi74  1  0.39978000  0.49078700  0.04306500  1
  Bi  Bi75  1  0.99659500  0.70656700  0.61875400  1
  Bi  Bi76  1  0.82248500  0.77939700  0.46118700  1
  Bi  Bi77  1  0.01384950  0.22928050  0.87894400  1
  Bi  Bi78  1  0.07383500  0.47370100  0.96524200  1
  Bi  Bi79  1  0.84737200  0.24248100  0.45792700  1
  Bi  Bi80  1  0.24359950  0.54225750  0.11432700  1
  Bi  Bi81  1  0.98615050  0.77071950  0.12105600  1
  Bi  Bi82  1  0.00340500  0.29343300  0.38124600  1
  Bi  Bi83  1  0.00340500  0.70656700  0.88124600  1
  Bi  Bi84  1  0.92616500  0.52629900  0.03475800  1
  Bi  Bi85  1  0.07383500  0.52629900  0.46524200  1
  Bi  Bi86  1  0.25957350  0.47638950  0.87309600  1
  Bi  Bi87  1  0.92616500  0.47370100  0.53475800  1
  Bi  Bi88  1  0.15262800  0.24248100  0.04207300  1
  Bi  Bi89  1  0.17751500  0.22060300  0.53881300  1
  Bi  Bi90  1  0.75640050  0.45774250  0.88567300  1
  Bi  Bi91  1  0.39978000  0.50921300  0.54306500  1
  Bi  Bi92  1  0.74042650  0.47638950  0.62690400  1
  Bi  Bi93  1  0.17751500  0.77939700  0.03881300  1
  Bi  Bi94  1  0.15262800  0.75751900  0.54207300  1
  Bi  Bi95  1  0.60022000  0.49078700  0.45693500  1
  O  O96  1  0.50000000  0.21465000  0.25000000  1
  O  O97  1  0.19000300  0.83904500  0.65616400  1
  O  O98  1  0.80999700  0.83904500  0.84383600  1
  O  O99  1  0.81463000  0.90402000  0.02841500  1
  O  O100  1  0.73823700  0.97772500  0.24194100  1
  O  O101  1  0.48411700  0.09893600  0.46763000  1
  O  O102  1  0.15987250  0.07339450  0.61336800  1
  O  O103  1  0.70217500  0.18819200  0.14980300  1
  O  O104  1  0.73219850  0.15159350  0.96879000  1
  O  O105  1  0.29782500  0.18819200  0.35019700  1
  O  O106  1  0.84012750  0.07339450  0.88663200  1
  O  O107  1  0.40352750  0.17879250  0.10241600  1
  O  O108  1  0.26780150  0.15159350  0.53121000  1
  O  O109  1  0.83836150  0.90642250  0.62249600  1
  O  O110  1  0.16163850  0.09357750  0.37750400  1
  O  O111  1  0.26176300  0.02227500  0.75805900  1
  O  O112  1  0.81463000  0.09598000  0.52841500  1
  O  O113  1  0.40352750  0.82120750  0.60241600  1
  O  O114  1  0.48411700  0.90106400  0.96763000  1
  O  O115  1  0.51588300  0.90106400  0.53237000  1
  O  O116  1  0.58978800  0.84936400  0.11979500  1
  O  O117  1  0.43277100  0.34436400  0.97118400  1
  O  O118  1  0.18537000  0.09598000  0.97158500  1
  O  O119  1  0.50000000  0.26306400  0.75000000  1
  O  O120  1  0.59647250  0.82120750  0.89758400  1
  O  O121  1  0.19000300  0.16095500  0.15616400  1
  O  O122  1  0.45152300  0.06192300  0.64796900  1
  O  O123  1  0.41021200  0.15063600  0.88020500  1
  O  O124  1  0.59647250  0.17879250  0.39758400  1
  O  O125  1  0.15987250  0.92660550  0.11336800  1
  O  O126  1  0.73823700  0.02227500  0.74194100  1
  O  O127  1  0.70217500  0.81180800  0.64980300  1
  O  O128  1  0.58978800  0.15063600  0.61979500  1
  O  O129  1  0.54847700  0.93807700  0.35203100  1
  O  O130  1  0.16163850  0.90642250  0.87750400  1
  O  O131  1  0.84012750  0.92660550  0.38663200  1
  O  O132  1  0.41021200  0.84936400  0.38020500  1
  O  O133  1  0.43818950  0.41069150  0.15545100  1
  O  O134  1  0.56722900  0.65563600  0.02881600  1
  O  O135  1  0.51588300  0.09893600  0.03237000  1
  O  O136  1  0.18537000  0.90402000  0.47158500  1
  O  O137  1  0.50000000  0.78535000  0.75000000  1
  O  O138  1  0.26780150  0.84840650  0.03121000  1
  O  O139  1  0.80999700  0.16095500  0.34383600  1
  O  O140  1  0.26176300  0.97772500  0.25805900  1
  O  O141  1  0.73219850  0.84840650  0.46879000  1
  O  O142  1  0.45152300  0.93807700  0.14796900  1
  O  O143  1  0.29782500  0.81180800  0.85019700  1
  O  O144  1  0.56181050  0.58930850  0.84454900  1
  O  O145  1  0.50000000  0.73693600  0.25000000  1
  O  O146  1  0.43277100  0.65563600  0.47118400  1
  O  O147  1  0.83836150  0.09357750  0.12249600  1
  O  O148  1  0.56722900  0.34436400  0.52881600  1
  O  O149  1  0.56181050  0.41069150  0.34454900  1
  O  O150  1  0.43818950  0.58930850  0.65545100  1
  O  O151  1  0.54847700  0.06192300  0.85203100  1
  O  O152  1  0.00000000  0.71465000  0.25000000  1
  O  O153  1  0.69000300  0.33904500  0.65616400  1
  O  O154  1  0.30999700  0.33904500  0.84383600  1
  O  O155  1  0.31463000  0.40402000  0.02841500  1
  O  O156  1  0.23823700  0.47772500  0.24194100  1
  O  O157  1  0.98411700  0.59893600  0.46763000  1
  O  O158  1  0.65987250  0.57339450  0.61336800  1
  O  O159  1  0.20217500  0.68819200  0.14980300  1
  O  O160  1  0.23219850  0.65159350  0.96879000  1
  O  O161  1  0.79782500  0.68819200  0.35019700  1
  O  O162  1  0.34012750  0.57339450  0.88663200  1
  O  O163  1  0.90352750  0.67879250  0.10241600  1
  O  O164  1  0.76780150  0.65159350  0.53121000  1
  O  O165  1  0.33836150  0.40642250  0.62249600  1
  O  O166  1  0.66163850  0.59357750  0.37750400  1
  O  O167  1  0.76176300  0.52227500  0.75805900  1
  O  O168  1  0.31463000  0.59598000  0.52841500  1
  O  O169  1  0.90352750  0.32120750  0.60241600  1
  O  O170  1  0.98411700  0.40106400  0.96763000  1
  O  O171  1  0.01588300  0.40106400  0.53237000  1
  O  O172  1  0.08978800  0.34936400  0.11979500  1
  O  O173  1  0.93277100  0.84436400  0.97118400  1
  O  O174  1  0.68537000  0.59598000  0.97158500  1
  O  O175  1  0.00000000  0.76306400  0.75000000  1
  O  O176  1  0.09647250  0.32120750  0.89758400  1
  O  O177  1  0.69000300  0.66095500  0.15616400  1
  O  O178  1  0.95152300  0.56192300  0.64796900  1
  O  O179  1  0.91021200  0.65063600  0.88020500  1
  O  O180  1  0.09647250  0.67879250  0.39758400  1
  O  O181  1  0.65987250  0.42660550  0.11336800  1
  O  O182  1  0.23823700  0.52227500  0.74194100  1
  O  O183  1  0.20217500  0.31180800  0.64980300  1
  O  O184  1  0.08978800  0.65063600  0.61979500  1
  O  O185  1  0.04847700  0.43807700  0.35203100  1
  O  O186  1  0.66163850  0.40642250  0.87750400  1
  O  O187  1  0.34012750  0.42660550  0.38663200  1
  O  O188  1  0.91021200  0.34936400  0.38020500  1
  O  O189  1  0.93818950  0.91069150  0.15545100  1
  O  O190  1  0.06722900  0.15563600  0.02881600  1
  O  O191  1  0.01588300  0.59893600  0.03237000  1
  O  O192  1  0.68537000  0.40402000  0.47158500  1
  O  O193  1  0.00000000  0.28535000  0.75000000  1
  O  O194  1  0.76780150  0.34840650  0.03121000  1
  O  O195  1  0.30999700  0.66095500  0.34383600  1
  O  O196  1  0.76176300  0.47772500  0.25805900  1
  O  O197  1  0.23219850  0.34840650  0.46879000  1
  O  O198  1  0.95152300  0.43807700  0.14796900  1
  O  O199  1  0.79782500  0.31180800  0.85019700  1
  O  O200  1  0.06181050  0.08930850  0.84454900  1
  O  O201  1  0.00000000  0.23693600  0.25000000  1
  O  O202  1  0.93277100  0.15563600  0.47118400  1
  O  O203  1  0.33836150  0.59357750  0.12249600  1
  O  O204  1  0.06722900  0.84436400  0.52881600  1
  O  O205  1  0.06181050  0.91069150  0.34454900  1
  O  O206  1  0.93818950  0.08930850  0.65545100  1
  O  O207  1  0.04847700  0.56192300  0.85203100  1
