# generated using pymatgen
data_K3Nd3(PS4)4
_symmetry_space_group_name_H-M   'P 1'
_cell_length_a   16.37949200
_cell_length_b   11.86042600
_cell_length_c   15.03599541
_cell_angle_alpha   90.00000000
_cell_angle_beta   90.81212538
_cell_angle_gamma   90.00000000
_symmetry_Int_Tables_number   1
_chemical_formula_structural   K3Nd3(PS4)4
_chemical_formula_sum   'K12 Nd12 P16 S64'
_cell_volume   2920.71561521
_cell_formula_units_Z   4
loop_
 _symmetry_equiv_pos_site_id
 _symmetry_equiv_pos_as_xyz
  1  'x, y, z'
loop_
 _atom_site_type_symbol
 _atom_site_label
 _atom_site_symmetry_multiplicity
 _atom_site_fract_x
 _atom_site_fract_y
 _atom_site_fract_z
 _atom_site_occupancy
  K  K0  1  0.21042800  0.81873300  0.33769800  1
  K  K1  1  0.00000000  0.00000000  0.00000000  1
  K  K2  1  0.21042800  0.18126700  0.83769800  1
  K  K3  1  0.78957200  0.18126700  0.66230200  1
  K  K4  1  0.78957200  0.81873300  0.16230200  1
  K  K5  1  0.00000000  0.00000000  0.50000000  1
  K  K6  1  0.71042800  0.31873300  0.33769800  1
  K  K7  1  0.50000000  0.50000000  0.00000000  1
  K  K8  1  0.71042800  0.68126700  0.83769800  1
  K  K9  1  0.28957200  0.68126700  0.66230200  1
  K  K10  1  0.28957200  0.31873300  0.16230200  1
  K  K11  1  0.50000000  0.50000000  0.50000000  1
  Nd  Nd12  1  0.50000000  0.75129500  0.25000000  1
  Nd  Nd13  1  0.50000000  0.24870500  0.75000000  1
  Nd  Nd14  1  0.36962400  0.11768100  0.48781000  1
  Nd  Nd15  1  0.63037600  0.88231900  0.51219000  1
  Nd  Nd16  1  0.63037600  0.11768100  0.01219000  1
  Nd  Nd17  1  0.36962400  0.88231900  0.98781000  1
  Nd  Nd18  1  0.00000000  0.25129500  0.25000000  1
  Nd  Nd19  1  0.00000000  0.74870500  0.75000000  1
  Nd  Nd20  1  0.86962400  0.61768100  0.48781000  1
  Nd  Nd21  1  0.13037600  0.38231900  0.51219000  1
  Nd  Nd22  1  0.13037600  0.61768100  0.01219000  1
  Nd  Nd23  1  0.86962400  0.38231900  0.98781000  1
  P  P24  1  0.81540050  0.14747350  0.13958500  1
  P  P25  1  0.41862800  0.81589000  0.47556400  1
  P  P26  1  0.81540050  0.85252650  0.63958500  1
  P  P27  1  0.18459950  0.85252650  0.86041500  1
  P  P28  1  0.58137200  0.18411000  0.52443600  1
  P  P29  1  0.58137200  0.81589000  0.02443600  1
  P  P30  1  0.18459950  0.14747350  0.36041500  1
  P  P31  1  0.41862800  0.18411000  0.97556400  1
  P  P32  1  0.31540050  0.64747350  0.13958500  1
  P  P33  1  0.91862800  0.31589000  0.47556400  1
  P  P34  1  0.31540050  0.35252650  0.63958500  1
  P  P35  1  0.68459950  0.35252650  0.86041500  1
  P  P36  1  0.08137200  0.68411000  0.52443600  1
  P  P37  1  0.08137200  0.31589000  0.02443600  1
  P  P38  1  0.68459950  0.64747350  0.36041500  1
  P  P39  1  0.91862800  0.68411000  0.97556400  1
  S  S40  1  0.48023850  0.06603450  0.89790800  1
  S  S41  1  0.29617250  0.10348950  0.31297800  1
  S  S42  1  0.50843400  0.23692500  0.42044600  1
  S  S43  1  0.68343100  0.10736800  0.47632200  1
  S  S44  1  0.51976150  0.06603450  0.60209200  1
  S  S45  1  0.38978100  0.31491600  0.89327900  1
  S  S46  1  0.65933000  0.18505300  0.82867500  1
  S  S47  1  0.81392950  0.13332950  0.00314100  1
  S  S48  1  0.34067000  0.81494700  0.17132500  1
  S  S49  1  0.34067000  0.18505300  0.67132500  1
  S  S50  1  0.29617250  0.89651050  0.81297800  1
  S  S51  1  0.90710050  0.05198150  0.19388000  1
  S  S52  1  0.09289950  0.94801850  0.80612000  1
  S  S53  1  0.18607050  0.13332950  0.49685900  1
  S  S54  1  0.65933000  0.81494700  0.32867500  1
  S  S55  1  0.31656900  0.89263200  0.52367800  1
  S  S56  1  0.51976150  0.93396550  0.10209200  1
  S  S57  1  0.68343100  0.89263200  0.97632200  1
  S  S58  1  0.61021900  0.31491600  0.60672100  1
  S  S59  1  0.70382750  0.10348950  0.18702200  1
  S  S60  1  0.18607050  0.86667050  0.99685900  1
  S  S61  1  0.61021900  0.68508400  0.10672100  1
  S  S62  1  0.38978100  0.68508400  0.39327900  1
  S  S63  1  0.90710050  0.94801850  0.69388000  1
  S  S64  1  0.49156600  0.76307500  0.57955400  1
  S  S65  1  0.48023850  0.93396550  0.39790800  1
  S  S66  1  0.70382750  0.89651050  0.68702200  1
  S  S67  1  0.49156600  0.23692500  0.07955400  1
  S  S68  1  0.50843400  0.76307500  0.92044600  1
  S  S69  1  0.81392950  0.86667050  0.50314100  1
  S  S70  1  0.09289950  0.05198150  0.30612000  1
  S  S71  1  0.31656900  0.10736800  0.02367800  1
  S  S72  1  0.98023850  0.56603450  0.89790800  1
  S  S73  1  0.79617250  0.60348950  0.31297800  1
  S  S74  1  0.00843400  0.73692500  0.42044600  1
  S  S75  1  0.18343100  0.60736800  0.47632200  1
  S  S76  1  0.01976150  0.56603450  0.60209200  1
  S  S77  1  0.88978100  0.81491600  0.89327900  1
  S  S78  1  0.15933000  0.68505300  0.82867500  1
  S  S79  1  0.31392950  0.63332950  0.00314100  1
  S  S80  1  0.84067000  0.31494700  0.17132500  1
  S  S81  1  0.84067000  0.68505300  0.67132500  1
  S  S82  1  0.79617250  0.39651050  0.81297800  1
  S  S83  1  0.40710050  0.55198150  0.19388000  1
  S  S84  1  0.59289950  0.44801850  0.80612000  1
  S  S85  1  0.68607050  0.63332950  0.49685900  1
  S  S86  1  0.15933000  0.31494700  0.32867500  1
  S  S87  1  0.81656900  0.39263200  0.52367800  1
  S  S88  1  0.01976150  0.43396550  0.10209200  1
  S  S89  1  0.18343100  0.39263200  0.97632200  1
  S  S90  1  0.11021900  0.81491600  0.60672100  1
  S  S91  1  0.20382750  0.60348950  0.18702200  1
  S  S92  1  0.68607050  0.36667050  0.99685900  1
  S  S93  1  0.11021900  0.18508400  0.10672100  1
  S  S94  1  0.88978100  0.18508400  0.39327900  1
  S  S95  1  0.40710050  0.44801850  0.69388000  1
  S  S96  1  0.99156600  0.26307500  0.57955400  1
  S  S97  1  0.98023850  0.43396550  0.39790800  1
  S  S98  1  0.20382750  0.39651050  0.68702200  1
  S  S99  1  0.99156600  0.73692500  0.07955400  1
  S  S100  1  0.00843400  0.26307500  0.92044600  1
  S  S101  1  0.31392950  0.36667050  0.50314100  1
  S  S102  1  0.59289950  0.55198150  0.30612000  1
  S  S103  1  0.81656900  0.60736800  0.02367800  1
