# generated using pymatgen
data_Zn4P6N12O
_symmetry_space_group_name_H-M   'P 1'
_cell_length_a   8.09887200
_cell_length_b   8.09887200
_cell_length_c   8.09887200
_cell_angle_alpha   90.00000000
_cell_angle_beta   90.00000000
_cell_angle_gamma   90.00000000
_symmetry_Int_Tables_number   1
_chemical_formula_structural   Zn4P6N12O
_chemical_formula_sum   'Zn8 P12 N24 O2'
_cell_volume   531.21900668
_cell_formula_units_Z   2
loop_
 _symmetry_equiv_pos_site_id
 _symmetry_equiv_pos_as_xyz
  1  'x, y, z'
loop_
 _atom_site_type_symbol
 _atom_site_label
 _atom_site_symmetry_multiplicity
 _atom_site_fract_x
 _atom_site_fract_y
 _atom_site_fract_z
 _atom_site_occupancy
  Zn  Zn0  1  0.35060050  0.64939950  0.35060050  1
  Zn  Zn1  1  0.64939950  0.35060050  0.35060050  1
  Zn  Zn2  1  0.35060050  0.35060050  0.64939950  1
  Zn  Zn3  1  0.14939950  0.14939950  0.14939950  1
  Zn  Zn4  1  0.85060050  0.14939950  0.85060050  1
  Zn  Zn5  1  0.14939950  0.85060050  0.85060050  1
  Zn  Zn6  1  0.85060050  0.85060050  0.14939950  1
  Zn  Zn7  1  0.64939950  0.64939950  0.64939950  1
  P  P8  1  0.25000000  0.50000000  0.00000000  1
  P  P9  1  0.25000000  0.00000000  0.50000000  1
  P  P10  1  0.00000000  0.25000000  0.50000000  1
  P  P11  1  0.50000000  0.00000000  0.25000000  1
  P  P12  1  0.00000000  0.50000000  0.25000000  1
  P  P13  1  0.50000000  0.25000000  0.00000000  1
  P  P14  1  0.75000000  0.00000000  0.50000000  1
  P  P15  1  0.75000000  0.50000000  0.00000000  1
  P  P16  1  0.50000000  0.75000000  0.00000000  1
  P  P17  1  0.00000000  0.50000000  0.75000000  1
  P  P18  1  0.50000000  0.00000000  0.75000000  1
  P  P19  1  0.00000000  0.75000000  0.50000000  1
  N  N20  1  0.59716050  0.86203650  0.13796350  1
  N  N21  1  0.40283950  0.13796350  0.13796350  1
  N  N22  1  0.86203650  0.13796350  0.59716050  1
  N  N23  1  0.36203650  0.90283950  0.36203650  1
  N  N24  1  0.13796350  0.59716050  0.86203650  1
  N  N25  1  0.90283950  0.36203650  0.36203650  1
  N  N26  1  0.13796350  0.40283950  0.13796350  1
  N  N27  1  0.86203650  0.59716050  0.13796350  1
  N  N28  1  0.36203650  0.36203650  0.90283950  1
  N  N29  1  0.13796350  0.86203650  0.59716050  1
  N  N30  1  0.13796350  0.13796350  0.40283950  1
  N  N31  1  0.59716050  0.13796350  0.86203650  1
  N  N32  1  0.09716050  0.36203650  0.63796350  1
  N  N33  1  0.90283950  0.63796350  0.63796350  1
  N  N34  1  0.36203650  0.63796350  0.09716050  1
  N  N35  1  0.86203650  0.40283950  0.86203650  1
  N  N36  1  0.63796350  0.09716050  0.36203650  1
  N  N37  1  0.40283950  0.86203650  0.86203650  1
  N  N38  1  0.63796350  0.90283950  0.63796350  1
  N  N39  1  0.36203650  0.09716050  0.63796350  1
  N  N40  1  0.86203650  0.86203650  0.40283950  1
  N  N41  1  0.63796350  0.36203650  0.09716050  1
  N  N42  1  0.63796350  0.63796350  0.90283950  1
  N  N43  1  0.09716050  0.63796350  0.36203650  1
  O  O44  1  0.00000000  0.00000000  0.00000000  1
  O  O45  1  0.50000000  0.50000000  0.50000000  1
