# generated using pymatgen
data_SrZrSe3
_symmetry_space_group_name_H-M   'P 1'
_cell_length_a   3.99299400
_cell_length_b   9.06305300
_cell_length_c   14.65583800
_cell_angle_alpha   90.00000000
_cell_angle_beta   90.00000000
_cell_angle_gamma   90.00000000
_symmetry_Int_Tables_number   1
_chemical_formula_structural   SrZrSe3
_chemical_formula_sum   'Sr4 Zr4 Se12'
_cell_volume   530.37596280
_cell_formula_units_Z   4
loop_
 _symmetry_equiv_pos_site_id
 _symmetry_equiv_pos_as_xyz
  1  'x, y, z'
loop_
 _atom_site_type_symbol
 _atom_site_label
 _atom_site_symmetry_multiplicity
 _atom_site_fract_x
 _atom_site_fract_y
 _atom_site_fract_z
 _atom_site_occupancy
  Sr  Sr0  1  0.75000000  0.55959600  0.32153600  1
  Sr  Sr1  1  0.25000000  0.44040400  0.67846400  1
  Sr  Sr2  1  0.75000000  0.05959600  0.17846400  1
  Sr  Sr3  1  0.25000000  0.94040400  0.82153600  1
  Zr  Zr4  1  0.75000000  0.83030600  0.55739200  1
  Zr  Zr5  1  0.25000000  0.16969400  0.44260800  1
  Zr  Zr6  1  0.75000000  0.33030600  0.94260800  1
  Zr  Zr7  1  0.25000000  0.66969400  0.05739200  1
  Se  Se8  1  0.75000000  0.98060600  0.39224900  1
  Se  Se9  1  0.25000000  0.01939400  0.60775100  1
  Se  Se10  1  0.75000000  0.48060600  0.10775100  1
  Se  Se11  1  0.25000000  0.51939400  0.89224900  1
  Se  Se12  1  0.75000000  0.83922700  0.98670000  1
  Se  Se13  1  0.25000000  0.16077300  0.01330000  1
  Se  Se14  1  0.75000000  0.33922700  0.51330000  1
  Se  Se15  1  0.25000000  0.66077300  0.48670000  1
  Se  Se16  1  0.75000000  0.71031100  0.71896900  1
  Se  Se17  1  0.25000000  0.28968900  0.28103100  1
  Se  Se18  1  0.75000000  0.21031100  0.78103100  1
  Se  Se19  1  0.25000000  0.78968900  0.21896900  1
