# generated using pymatgen
data_LiBi2(PO4)3
_symmetry_space_group_name_H-M   'P 1'
_cell_length_a   8.77152997
_cell_length_b   8.78688799
_cell_length_c   9.67616754
_cell_angle_alpha   116.95681117
_cell_angle_beta   89.73345712
_cell_angle_gamma   119.85491103
_symmetry_Int_Tables_number   1
_chemical_formula_structural   LiBi2(PO4)3
_chemical_formula_sum   'Li2 Bi4 P6 O24'
_cell_volume   552.47032282
_cell_formula_units_Z   2
loop_
 _symmetry_equiv_pos_site_id
 _symmetry_equiv_pos_as_xyz
  1  'x, y, z'
loop_
 _atom_site_type_symbol
 _atom_site_label
 _atom_site_symmetry_multiplicity
 _atom_site_fract_x
 _atom_site_fract_y
 _atom_site_fract_z
 _atom_site_occupancy
  Li  Li0  1  0.25794277  0.31801514  0.87834617  1
  Li  Li1  1  0.74205723  0.68198486  0.12165383  1
  Bi  Bi2  1  0.14813950  0.86430591  0.43520345  1
  Bi  Bi3  1  0.33728731  0.66104715  0.03343839  1
  Bi  Bi4  1  0.66271269  0.33895285  0.96656161  1
  Bi  Bi5  1  0.85186050  0.13569409  0.56479655  1
  P  P6  1  0.54852359  0.73496463  0.76431902  1
  P  P7  1  0.73871812  0.94563230  0.24121978  1
  P  P8  1  0.04686017  0.54667476  0.24604390  1
  P  P9  1  0.95313983  0.45332524  0.75395610  1
  P  P10  1  0.26128188  0.05436770  0.75878022  1
  P  P11  1  0.45147641  0.26503537  0.23568098  1
  O  O12  1  0.20800206  0.86110956  0.89050235  1
  O  O13  1  0.55398554  0.77169678  0.91397528  1
  O  O14  1  0.39836789  0.78088137  0.61366036  1
  O  O15  1  0.74332732  0.84674702  0.75018049  1
  O  O16  1  0.15009165  0.46786172  0.88447216  1
  O  O17  1  0.13128509  0.74291969  0.25407846  1
  O  O18  1  0.78617822  0.96576577  0.40490348  1
  O  O19  1  0.50031869  0.52124659  0.81159554  1
  O  O20  1  0.52670269  0.83474802  0.19010063  1
  O  O21  1  0.02736832  0.39941018  0.40688489  1
  O  O22  1  0.84828208  0.84894252  0.24620404  1
  O  O23  1  0.15824658  0.50516077  0.18635426  1
  O  O24  1  0.84175342  0.49483923  0.81364574  1
  O  O25  1  0.15171792  0.15105748  0.75379596  1
  O  O26  1  0.97263168  0.60058982  0.59311511  1
  O  O27  1  0.47329731  0.16525198  0.80989937  1
  O  O28  1  0.49968131  0.47875341  0.18840446  1
  O  O29  1  0.21382178  0.03423423  0.59509652  1
  O  O30  1  0.86871491  0.25708031  0.74592154  1
  O  O31  1  0.84990835  0.53213828  0.11552784  1
  O  O32  1  0.25667268  0.15325298  0.24981951  1
  O  O33  1  0.60163211  0.21911863  0.38633964  1
  O  O34  1  0.44601446  0.22830322  0.08602472  1
  O  O35  1  0.79199794  0.13889044  0.10949765  1
