# generated using pymatgen
data_Sr14Al8Ge3
_symmetry_space_group_name_H-M   'P 1'
_cell_length_a   12.00534173
_cell_length_b   12.00534173
_cell_length_c   40.15940787
_cell_angle_alpha   90.00000000
_cell_angle_beta   90.00000000
_cell_angle_gamma   120.00000000
_symmetry_Int_Tables_number   1
_chemical_formula_structural   Sr14Al8Ge3
_chemical_formula_sum   'Sr84 Al48 Ge18'
_cell_volume   5012.64542553
_cell_formula_units_Z   6
loop_
 _symmetry_equiv_pos_site_id
 _symmetry_equiv_pos_as_xyz
  1  'x, y, z'
loop_
 _atom_site_type_symbol
 _atom_site_label
 _atom_site_symmetry_multiplicity
 _atom_site_fract_x
 _atom_site_fract_y
 _atom_site_fract_z
 _atom_site_occupancy
  Sr  Sr0  1  0.66384467  0.82504733  0.03004633  1
  Sr  Sr1  1  0.88336733  0.45643867  0.04338767  1
  Sr  Sr2  1  0.67525767  0.97218433  0.11873633  1
  Sr  Sr3  1  0.16120267  0.33615533  0.03004633  1
  Sr  Sr4  1  0.12310533  0.90640467  0.28994567  1
  Sr  Sr5  1  0.02781567  0.70307333  0.11873633  1
  Sr  Sr6  1  0.09359533  0.21670067  0.28994567  1
  Sr  Sr7  1  0.49171400  0.49453600  0.30328700  1
  Sr  Sr8  1  0.29692667  0.32474233  0.11873633  1
  Sr  Sr9  1  0.29170367  0.26967533  0.21561633  1
  Sr  Sr10  1  0.68869500  0.62503700  0.11771700  1
  Sr  Sr11  1  0.66666667  0.33333333  0.24277933  1
  Sr  Sr12  1  0.00000000  0.00000000  0.09055400  1
  Sr  Sr13  1  0.63885100  0.63026000  0.21459700  1
  Sr  Sr14  1  0.50546400  0.99717800  0.30328700  1
  Sr  Sr15  1  0.99140900  0.36114900  0.21459700  1
  Sr  Sr16  1  0.36974000  0.00859100  0.21459700  1
  Sr  Sr17  1  0.93634200  0.31130500  0.11771700  1
  Sr  Sr18  1  0.37496300  0.06365800  0.11771700  1
  Sr  Sr19  1  0.97797167  0.70829633  0.21561633  1
  Sr  Sr20  1  0.78329933  0.87689467  0.28994567  1
  Sr  Sr21  1  0.33333333  0.66666667  0.16666667  1
  Sr  Sr22  1  0.57307133  0.11663267  0.04338767  1
  Sr  Sr23  1  0.54356133  0.42692867  0.04338767  1
  Sr  Sr24  1  0.00000000  0.00000000  0.00000000  1
  Sr  Sr25  1  0.73032467  0.02202833  0.21561633  1
  Sr  Sr26  1  0.00282200  0.50828600  0.30328700  1
  Sr  Sr27  1  0.17495267  0.83879733  0.03004633  1
  Sr  Sr28  1  0.33051133  0.15838067  0.36337967  1
  Sr  Sr29  1  0.55003400  0.78977200  0.37672100  1
  Sr  Sr30  1  0.34192433  0.30551767  0.45206967  1
  Sr  Sr31  1  0.82786933  0.66948867  0.36337967  1
  Sr  Sr32  1  0.78977200  0.23973800  0.62327900  1
  Sr  Sr33  1  0.69448233  0.03640667  0.45206967  1
  Sr  Sr34  1  0.76026200  0.55003400  0.62327900  1
  Sr  Sr35  1  0.15838067  0.82786933  0.63662033  1
  Sr  Sr36  1  0.96359333  0.65807567  0.45206967  1
  Sr  Sr37  1  0.95837033  0.60300867  0.54894967  1
  Sr  Sr38  1  0.35536167  0.95837033  0.45105033  1
  Sr  Sr39  1  0.33333333  0.66666667  0.57611267  1
  Sr  Sr40  1  0.66666667  0.33333333  0.42388733  1
  Sr  Sr41  1  0.30551767  0.96359333  0.54793033  1
  Sr  Sr42  1  0.17213067  0.33051133  0.63662033  1
  Sr  Sr43  1  0.65807567  0.69448233  0.54793033  1
  Sr  Sr44  1  0.03640667  0.34192433  0.54793033  1
  Sr  Sr45  1  0.60300867  0.64463833  0.45105033  1
  Sr  Sr46  1  0.04162967  0.39699133  0.45105033  1
  Sr  Sr47  1  0.64463833  0.04162967  0.54894967  1
  Sr  Sr48  1  0.44996600  0.21022800  0.62327900  1
  Sr  Sr49  1  1.00000000  0.00000000  0.50000000  1
  Sr  Sr50  1  0.23973800  0.44996600  0.37672100  1
  Sr  Sr51  1  0.21022800  0.76026200  0.37672100  1
  Sr  Sr52  1  0.66666667  0.33333333  0.33333333  1
  Sr  Sr53  1  0.39699133  0.35536167  0.54894967  1
  Sr  Sr54  1  0.66948867  0.84161933  0.63662033  1
  Sr  Sr55  1  0.84161933  0.17213067  0.36337967  1
  Sr  Sr56  1  0.99717800  0.49171400  0.69671300  1
  Sr  Sr57  1  0.21670067  0.12310533  0.71005433  1
  Sr  Sr58  1  0.00859100  0.63885100  0.78540300  1
  Sr  Sr59  1  0.49453600  0.00282200  0.69671300  1
  Sr  Sr60  1  0.45643867  0.57307133  0.95661233  1
  Sr  Sr61  1  0.36114900  0.36974000  0.78540300  1
  Sr  Sr62  1  0.42692867  0.88336733  0.95661233  1
  Sr  Sr63  1  0.82504733  0.16120267  0.96995367  1
  Sr  Sr64  1  0.63026000  0.99140900  0.78540300  1
  Sr  Sr65  1  0.62503700  0.93634200  0.88228300  1
  Sr  Sr66  1  0.02202833  0.29170367  0.78438367  1
  Sr  Sr67  1  0.00000000  0.00000000  0.90944600  1
  Sr  Sr68  1  0.33333333  0.66666667  0.75722067  1
  Sr  Sr69  1  0.97218433  0.29692667  0.88126367  1
  Sr  Sr70  1  0.83879733  0.66384467  0.96995367  1
  Sr  Sr71  1  0.32474233  0.02781567  0.88126367  1
  Sr  Sr72  1  0.70307333  0.67525767  0.88126367  1
  Sr  Sr73  1  0.26967533  0.97797167  0.78438367  1
  Sr  Sr74  1  0.70829633  0.73032467  0.78438367  1
  Sr  Sr75  1  0.31130500  0.37496300  0.88228300  1
  Sr  Sr76  1  0.11663267  0.54356133  0.95661233  1
  Sr  Sr77  1  0.66666667  0.33333333  0.83333333  1
  Sr  Sr78  1  0.90640467  0.78329933  0.71005433  1
  Sr  Sr79  1  0.87689467  0.09359533  0.71005433  1
  Sr  Sr80  1  0.33333333  0.66666667  0.66666667  1
  Sr  Sr81  1  0.06365800  0.68869500  0.88228300  1
  Sr  Sr82  1  0.33615533  0.17495267  0.96995367  1
  Sr  Sr83  1  0.50828600  0.50546400  0.69671300  1
  Al  Al84  1  0.27750400  0.51824900  0.25122600  1
  Al  Al85  1  0.86319700  0.87840200  0.16778200  1
  Al  Al86  1  0.42592167  0.61083733  0.08210733  1
  Al  Al87  1  0.12159800  0.98479500  0.16778200  1
  Al  Al88  1  0.18491567  0.57407833  0.08210733  1
  Al  Al89  1  0.33333333  0.66666667  0.30711567  1
  Al  Al90  1  0.48175100  0.75925500  0.25122600  1
  Al  Al91  1  0.01520500  0.13680300  0.16778200  1
  Al  Al92  1  0.33333333  0.66666667  0.02621767  1
  Al  Al93  1  0.66666667  0.33333333  0.10988633  1
  Al  Al94  1  0.38916267  0.81508433  0.08210733  1
  Al  Al95  1  0.65146167  0.19653033  0.16555133  1
  Al  Al96  1  0.80346967  0.45493133  0.16555133  1
  Al  Al97  1  0.24074500  0.72249600  0.25122600  1
  Al  Al98  1  0.54506867  0.34853833  0.16555133  1
  Al  Al99  1  0.00000000  0.00000000  0.22344700  1
  Al  Al100  1  0.94417067  0.85158233  0.58455933  1
  Al  Al101  1  0.52986367  0.21173533  0.50111533  1
  Al  Al102  1  0.09258833  0.94417067  0.41544067  1
  Al  Al103  1  0.78826467  0.31812833  0.50111533  1
  Al  Al104  1  0.85158233  0.90741167  0.41544067  1
  Al  Al105  1  0.00000000  0.00000000  0.64044900  1
  Al  Al106  1  0.14841767  0.09258833  0.58455933  1
  Al  Al107  1  0.68187167  0.47013633  0.50111533  1
  Al  Al108  1  0.00000000  0.00000000  0.35955100  1
  Al  Al109  1  0.33333333  0.66666667  0.44321967  1
  Al  Al110  1  0.05582933  0.14841767  0.41544067  1
  Al  Al111  1  0.31812833  0.52986367  0.49888467  1
  Al  Al112  1  0.47013633  0.78826467  0.49888467  1
  Al  Al113  1  0.90741167  0.05582933  0.58455933  1
  Al  Al114  1  0.21173533  0.68187167  0.49888467  1
  Al  Al115  1  0.66666667  0.33333333  0.55678033  1
  Al  Al116  1  0.61083733  0.18491567  0.91789267  1
  Al  Al117  1  0.19653033  0.54506867  0.83444867  1
  Al  Al118  1  0.75925500  0.27750400  0.74877400  1
  Al  Al119  1  0.45493133  0.65146167  0.83444867  1
  Al  Al120  1  0.51824900  0.24074500  0.74877400  1
  Al  Al121  1  0.66666667  0.33333333  0.97378233  1
  Al  Al122  1  0.81508433  0.42592167  0.91789267  1
  Al  Al123  1  0.34853833  0.80346967  0.83444867  1
  Al  Al124  1  0.66666667  0.33333333  0.69288433  1
  Al  Al125  1  0.00000000  0.00000000  0.77655300  1
  Al  Al126  1  0.72249600  0.48175100  0.74877400  1
  Al  Al127  1  0.98479500  0.86319700  0.83221800  1
  Al  Al128  1  0.13680300  0.12159800  0.83221800  1
  Al  Al129  1  0.57407833  0.38916267  0.91789267  1
  Al  Al130  1  0.87840200  0.01520500  0.83221800  1
  Al  Al131  1  0.33333333  0.66666667  0.89011367  1
  Ge  Ge132  1  0.38755167  0.18703533  0.28284333  1
  Ge  Ge133  1  0.79948367  0.61244833  0.28284333  1
  Ge  Ge134  1  0.27911500  0.14629800  0.05049000  1
  Ge  Ge135  1  0.85370200  0.13281700  0.05049000  1
  Ge  Ge136  1  0.86718300  0.72088500  0.05049000  1
  Ge  Ge137  1  0.81296467  0.20051633  0.28284333  1
  Ge  Ge138  1  0.05421833  0.52036867  0.61617667  1
  Ge  Ge139  1  0.46615033  0.94578167  0.61617667  1
  Ge  Ge140  1  0.94578167  0.47963133  0.38382333  1
  Ge  Ge141  1  0.52036867  0.46615033  0.38382333  1
  Ge  Ge142  1  0.53384967  0.05421833  0.38382333  1
  Ge  Ge143  1  0.47963133  0.53384967  0.61617667  1
  Ge  Ge144  1  0.72088500  0.85370200  0.94951000  1
  Ge  Ge145  1  0.13281700  0.27911500  0.94951000  1
  Ge  Ge146  1  0.61244833  0.81296467  0.71715667  1
  Ge  Ge147  1  0.18703533  0.79948367  0.71715667  1
  Ge  Ge148  1  0.20051633  0.38755167  0.71715667  1
  Ge  Ge149  1  0.14629800  0.86718300  0.94951000  1
