# generated using pymatgen
data_Ba3V4O13
_symmetry_space_group_name_H-M   'P 1'
_cell_length_a   16.20492400
_cell_length_b   9.10753200
_cell_length_c   10.43472333
_cell_angle_alpha   90.00000000
_cell_angle_beta   111.98222795
_cell_angle_gamma   90.00000000
_symmetry_Int_Tables_number   1
_chemical_formula_structural   Ba3V4O13
_chemical_formula_sum   'Ba12 V16 O52'
_cell_volume   1428.06805781
_cell_formula_units_Z   4
loop_
 _symmetry_equiv_pos_site_id
 _symmetry_equiv_pos_as_xyz
  1  'x, y, z'
loop_
 _atom_site_type_symbol
 _atom_site_label
 _atom_site_symmetry_multiplicity
 _atom_site_fract_x
 _atom_site_fract_y
 _atom_site_fract_z
 _atom_site_occupancy
  Ba  Ba0  1  0.00000000  0.88901700  0.75000000  1
  Ba  Ba1  1  0.00000000  0.11098300  0.25000000  1
  Ba  Ba2  1  0.20245150  0.82893450  0.19014800  1
  Ba  Ba3  1  0.29754850  0.32893450  0.30985200  1
  Ba  Ba4  1  0.29754850  0.67106550  0.80985200  1
  Ba  Ba5  1  0.20245150  0.17106550  0.69014800  1
  Ba  Ba6  1  0.50000000  0.38901700  0.75000000  1
  Ba  Ba7  1  0.50000000  0.61098300  0.25000000  1
  Ba  Ba8  1  0.70245150  0.32893450  0.19014800  1
  Ba  Ba9  1  0.79754850  0.82893450  0.30985200  1
  Ba  Ba10  1  0.79754850  0.17106550  0.80985200  1
  Ba  Ba11  1  0.70245150  0.67106550  0.69014800  1
  V  V12  1  0.38768550  0.98289650  0.13511600  1
  V  V13  1  0.11231450  0.48289650  0.36488400  1
  V  V14  1  0.11231450  0.51710350  0.86488400  1
  V  V15  1  0.38768550  0.01710350  0.63511600  1
  V  V16  1  0.41046850  0.30981450  0.00173800  1
  V  V17  1  0.08953150  0.80981450  0.49826200  1
  V  V18  1  0.08953150  0.19018550  0.99826200  1
  V  V19  1  0.41046850  0.69018550  0.50173800  1
  V  V20  1  0.88768550  0.48289650  0.13511600  1
  V  V21  1  0.61231450  0.98289650  0.36488400  1
  V  V22  1  0.61231450  0.01710350  0.86488400  1
  V  V23  1  0.88768550  0.51710350  0.63511600  1
  V  V24  1  0.91046850  0.80981450  0.00173800  1
  V  V25  1  0.58953150  0.30981450  0.49826200  1
  V  V26  1  0.58953150  0.69018550  0.99826200  1
  V  V27  1  0.91046850  0.19018550  0.50173800  1
  O  O28  1  0.00000000  0.43246200  0.25000000  1
  O  O29  1  0.00000000  0.56753800  0.75000000  1
  O  O30  1  0.35529950  0.36559650  0.83369300  1
  O  O31  1  0.14470050  0.86559650  0.66630700  1
  O  O32  1  0.14470050  0.13440350  0.16630700  1
  O  O33  1  0.35529950  0.63440350  0.33369300  1
  O  O34  1  0.02168200  0.83567200  0.03944900  1
  O  O35  1  0.47831800  0.33567200  0.46055100  1
  O  O36  1  0.47831800  0.66432800  0.96055100  1
  O  O37  1  0.02168200  0.16432800  0.53944900  1
  O  O38  1  0.37587600  0.40873700  0.11266700  1
  O  O39  1  0.12412400  0.90873700  0.38733300  1
  O  O40  1  0.12412400  0.09126300  0.88733300  1
  O  O41  1  0.37587600  0.59126300  0.61266700  1
  O  O42  1  0.38455200  0.88676400  0.50539900  1
  O  O43  1  0.11544800  0.38676400  0.99460100  1
  O  O44  1  0.11544800  0.61323600  0.49460100  1
  O  O45  1  0.38455200  0.11323600  0.00539900  1
  O  O46  1  0.33681650  0.17542450  0.56380000  1
  O  O47  1  0.16318350  0.67542450  0.93620000  1
  O  O48  1  0.33175700  0.05150000  0.22863500  1
  O  O49  1  0.33681650  0.82457550  0.06380000  1
  O  O50  1  0.33175700  0.94850000  0.72863500  1
  O  O51  1  0.16824300  0.44850000  0.77136500  1
  O  O52  1  0.16824300  0.55150000  0.27136500  1
  O  O53  1  0.16318350  0.32457550  0.43620000  1
  O  O54  1  0.50000000  0.93246200  0.25000000  1
  O  O55  1  0.50000000  0.06753800  0.75000000  1
  O  O56  1  0.85529950  0.86559650  0.83369300  1
  O  O57  1  0.64470050  0.36559650  0.66630700  1
  O  O58  1  0.64470050  0.63440350  0.16630700  1
  O  O59  1  0.85529950  0.13440350  0.33369300  1
  O  O60  1  0.52168200  0.33567200  0.03944900  1
  O  O61  1  0.97831800  0.83567200  0.46055100  1
  O  O62  1  0.97831800  0.16432800  0.96055100  1
  O  O63  1  0.52168200  0.66432800  0.53944900  1
  O  O64  1  0.87587600  0.90873700  0.11266700  1
  O  O65  1  0.62412400  0.40873700  0.38733300  1
  O  O66  1  0.62412400  0.59126300  0.88733300  1
  O  O67  1  0.87587600  0.09126300  0.61266700  1
  O  O68  1  0.88455200  0.38676400  0.50539900  1
  O  O69  1  0.61544800  0.88676400  0.99460100  1
  O  O70  1  0.61544800  0.11323600  0.49460100  1
  O  O71  1  0.88455200  0.61323600  0.00539900  1
  O  O72  1  0.83681650  0.67542450  0.56380000  1
  O  O73  1  0.66318350  0.17542450  0.93620000  1
  O  O74  1  0.83175700  0.55150000  0.22863500  1
  O  O75  1  0.83681650  0.32457550  0.06380000  1
  O  O76  1  0.83175700  0.44850000  0.72863500  1
  O  O77  1  0.66824300  0.94850000  0.77136500  1
  O  O78  1  0.66824300  0.05150000  0.27136500  1
  O  O79  1  0.66318350  0.82457550  0.43620000  1
