# generated using pymatgen
data_La3Si2ClO8
_symmetry_space_group_name_H-M   'P 1'
_cell_length_a   14.65609000
_cell_length_b   6.56606800
_cell_length_c   8.90673512
_cell_angle_alpha   90.00000000
_cell_angle_beta   98.15054248
_cell_angle_gamma   90.00000000
_symmetry_Int_Tables_number   1
_chemical_formula_structural   La3Si2ClO8
_chemical_formula_sum   'La12 Si8 Cl4 O32'
_cell_volume   848.46300827
_cell_formula_units_Z   4
loop_
 _symmetry_equiv_pos_site_id
 _symmetry_equiv_pos_as_xyz
  1  'x, y, z'
loop_
 _atom_site_type_symbol
 _atom_site_label
 _atom_site_symmetry_multiplicity
 _atom_site_fract_x
 _atom_site_fract_y
 _atom_site_fract_z
 _atom_site_occupancy
  La  La0  1  0.00000000  0.06901800  0.25000000  1
  La  La1  1  0.81559350  0.39599250  0.82934700  1
  La  La2  1  0.68440650  0.89599250  0.67065300  1
  La  La3  1  0.68440650  0.10400750  0.17065300  1
  La  La4  1  0.81559350  0.60400750  0.32934700  1
  La  La5  1  0.00000000  0.93098200  0.75000000  1
  La  La6  1  0.50000000  0.56901800  0.25000000  1
  La  La7  1  0.31559350  0.89599250  0.82934700  1
  La  La8  1  0.18440650  0.39599250  0.67065300  1
  La  La9  1  0.18440650  0.60400750  0.17065300  1
  La  La10  1  0.31559350  0.10400750  0.32934700  1
  La  La11  1  0.50000000  0.43098200  0.75000000  1
  Si  Si12  1  0.65822750  0.55628250  0.02642100  1
  Si  Si13  1  0.84177250  0.94371750  0.97357900  1
  Si  Si14  1  0.84177250  0.05628250  0.47357900  1
  Si  Si15  1  0.65822750  0.44371750  0.52642100  1
  Si  Si16  1  0.15822750  0.05628250  0.02642100  1
  Si  Si17  1  0.34177250  0.44371750  0.97357900  1
  Si  Si18  1  0.34177250  0.55628250  0.47357900  1
  Si  Si19  1  0.15822750  0.94371750  0.52642100  1
  Cl  Cl20  1  0.00000000  0.52456500  0.25000000  1
  Cl  Cl21  1  0.00000000  0.47543500  0.75000000  1
  Cl  Cl22  1  0.50000000  0.02456500  0.25000000  1
  Cl  Cl23  1  0.50000000  0.97543500  0.75000000  1
  O  O24  1  0.64428050  0.26279250  0.64680100  1
  O  O25  1  0.57876550  0.62162450  0.53261800  1
  O  O26  1  0.74084800  0.94433500  0.41903500  1
  O  O27  1  0.74084800  0.05566500  0.91903500  1
  O  O28  1  0.92123450  0.12162450  0.96738200  1
  O  O29  1  0.64428050  0.73720750  0.14680100  1
  O  O30  1  0.85571950  0.23720750  0.35319900  1
  O  O31  1  0.84596600  0.11804900  0.65240200  1
  O  O32  1  0.65403400  0.38195100  0.34759800  1
  O  O33  1  0.84596600  0.88195100  0.15240200  1
  O  O34  1  0.75915200  0.44433500  0.08096500  1
  O  O35  1  0.92123450  0.87837550  0.46738200  1
  O  O36  1  0.75915200  0.55566500  0.58096500  1
  O  O37  1  0.57876550  0.37837550  0.03261800  1
  O  O38  1  0.85571950  0.76279250  0.85319900  1
  O  O39  1  0.65403400  0.61804900  0.84759800  1
  O  O40  1  0.14428050  0.76279250  0.64680100  1
  O  O41  1  0.07876550  0.12162450  0.53261800  1
  O  O42  1  0.24084800  0.44433500  0.41903500  1
  O  O43  1  0.24084800  0.55566500  0.91903500  1
  O  O44  1  0.42123450  0.62162450  0.96738200  1
  O  O45  1  0.14428050  0.23720750  0.14680100  1
  O  O46  1  0.35571950  0.73720750  0.35319900  1
  O  O47  1  0.34596600  0.61804900  0.65240200  1
  O  O48  1  0.15403400  0.88195100  0.34759800  1
  O  O49  1  0.34596600  0.38195100  0.15240200  1
  O  O50  1  0.25915200  0.94433500  0.08096500  1
  O  O51  1  0.42123450  0.37837550  0.46738200  1
  O  O52  1  0.25915200  0.05566500  0.58096500  1
  O  O53  1  0.07876550  0.87837550  0.03261800  1
  O  O54  1  0.35571950  0.26279250  0.85319900  1
  O  O55  1  0.15403400  0.11804900  0.84759800  1
