# generated using pymatgen
data_CsSbCl6
_symmetry_space_group_name_H-M   'P 1'
_cell_length_a   12.79023200
_cell_length_b   6.77533400
_cell_length_c   12.93378365
_cell_angle_alpha   90.00000000
_cell_angle_beta   102.60203591
_cell_angle_gamma   90.00000000
_symmetry_Int_Tables_number   1
_chemical_formula_structural   CsSbCl6
_chemical_formula_sum   'Cs4 Sb4 Cl24'
_cell_volume   1093.81544414
_cell_formula_units_Z   4
loop_
 _symmetry_equiv_pos_site_id
 _symmetry_equiv_pos_as_xyz
  1  'x, y, z'
loop_
 _atom_site_type_symbol
 _atom_site_label
 _atom_site_symmetry_multiplicity
 _atom_site_fract_x
 _atom_site_fract_y
 _atom_site_fract_z
 _atom_site_occupancy
  Cs  Cs0  1  0.00000000  0.12147500  0.25000000  1
  Cs  Cs1  1  0.00000000  0.87852500  0.75000000  1
  Cs  Cs2  1  0.50000000  0.62147500  0.25000000  1
  Cs  Cs3  1  0.50000000  0.37852500  0.75000000  1
  Sb  Sb4  1  0.75000000  0.25000000  0.50000000  1
  Sb  Sb5  1  0.75000000  0.75000000  0.00000000  1
  Sb  Sb6  1  0.25000000  0.75000000  0.50000000  1
  Sb  Sb7  1  0.25000000  0.25000000  0.00000000  1
  Cl  Cl8  1  0.58353000  0.12842100  0.39420000  1
  Cl  Cl9  1  0.58353000  0.87157900  0.89420000  1
  Cl  Cl10  1  0.71641500  0.91283400  0.15445500  1
  Cl  Cl11  1  0.91647000  0.37157900  0.60580000  1
  Cl  Cl12  1  0.71641500  0.08716600  0.65445500  1
  Cl  Cl13  1  0.78358500  0.58716600  0.84554500  1
  Cl  Cl14  1  0.65853300  0.45953000  0.04110900  1
  Cl  Cl15  1  0.65853300  0.54047000  0.54110900  1
  Cl  Cl16  1  0.84146700  0.04047000  0.95889100  1
  Cl  Cl17  1  0.78358500  0.41283400  0.34554500  1
  Cl  Cl18  1  0.84146700  0.95953000  0.45889100  1
  Cl  Cl19  1  0.91647000  0.62842100  0.10580000  1
  Cl  Cl20  1  0.08353000  0.62842100  0.39420000  1
  Cl  Cl21  1  0.08353000  0.37157900  0.89420000  1
  Cl  Cl22  1  0.21641500  0.41283400  0.15445500  1
  Cl  Cl23  1  0.41647000  0.87157900  0.60580000  1
  Cl  Cl24  1  0.21641500  0.58716600  0.65445500  1
  Cl  Cl25  1  0.28358500  0.08716600  0.84554500  1
  Cl  Cl26  1  0.15853300  0.95953000  0.04110900  1
  Cl  Cl27  1  0.15853300  0.04047000  0.54110900  1
  Cl  Cl28  1  0.34146700  0.54047000  0.95889100  1
  Cl  Cl29  1  0.28358500  0.91283400  0.34554500  1
  Cl  Cl30  1  0.34146700  0.45953000  0.45889100  1
  Cl  Cl31  1  0.41647000  0.12842100  0.10580000  1
