# generated using pymatgen
data_TaP4(SCl)5
_symmetry_space_group_name_H-M   'P 1'
_cell_length_a   6.93104300
_cell_length_b   10.61689478
_cell_length_c   13.65953465
_cell_angle_alpha   98.04229617
_cell_angle_beta   104.51261965
_cell_angle_gamma   106.94355559
_symmetry_Int_Tables_number   1
_chemical_formula_structural   TaP4(SCl)5
_chemical_formula_sum   'Ta2 P8 S10 Cl10'
_cell_volume   905.90089363
_cell_formula_units_Z   2
loop_
 _symmetry_equiv_pos_site_id
 _symmetry_equiv_pos_as_xyz
  1  'x, y, z'
loop_
 _atom_site_type_symbol
 _atom_site_label
 _atom_site_symmetry_multiplicity
 _atom_site_fract_x
 _atom_site_fract_y
 _atom_site_fract_z
 _atom_site_occupancy
  Ta  Ta0  1  0.39348800  0.26573400  0.15583300  1
  Ta  Ta1  1  0.60651200  0.73426600  0.84416700  1
  P  P2  1  0.08291800  0.42439300  0.69015000  1
  P  P3  1  0.96478000  0.87792100  0.25829800  1
  P  P4  1  0.91708200  0.57560700  0.30985000  1
  P  P5  1  0.77197900  0.69005000  0.40606500  1
  P  P6  1  0.03522000  0.12207900  0.74170200  1
  P  P7  1  0.12185000  0.80751500  0.49689000  1
  P  P8  1  0.22802100  0.30995000  0.59393500  1
  P  P9  1  0.87815000  0.19248500  0.50311000  1
  S  S10  1  0.79552100  0.05031300  0.59443300  1
  S  S11  1  0.30697500  0.18352800  0.68670300  1
  S  S12  1  0.17985700  0.62354300  0.74697000  1
  S  S13  1  0.20447900  0.94968700  0.40556700  1
  S  S14  1  0.80935000  0.36992600  0.56209900  1
  S  S15  1  0.02710000  0.31641600  0.80417400  1
  S  S16  1  0.82014300  0.37645700  0.25303000  1
  S  S17  1  0.19065000  0.63007400  0.43790100  1
  S  S18  1  0.97290000  0.68358400  0.19582600  1
  S  S19  1  0.69302500  0.81647200  0.31329700  1
  Cl  Cl20  1  0.51769700  0.75897400  0.99792000  1
  Cl  Cl21  1  0.48230300  0.24102600  0.00208000  1
  Cl  Cl22  1  0.39603100  0.48427800  0.14786300  1
  Cl  Cl23  1  0.60396900  0.51572200  0.85213700  1
  Cl  Cl24  1  0.48024800  0.07357900  0.18705600  1
  Cl  Cl25  1  0.63953000  0.69726800  0.67461900  1
  Cl  Cl26  1  0.51975200  0.92642100  0.81294400  1
  Cl  Cl27  1  0.96300400  0.83917400  0.92234800  1
  Cl  Cl28  1  0.03699600  0.16082600  0.07765200  1
  Cl  Cl29  1  0.36047000  0.30273200  0.32538100  1
