# generated using pymatgen
data_KTe3O6F
_symmetry_space_group_name_H-M   'P 1'
_cell_length_a   9.63043821
_cell_length_b   9.63043821
_cell_length_c   14.26622409
_cell_angle_alpha   90.00000000
_cell_angle_beta   90.00000000
_cell_angle_gamma   120.00000000
_symmetry_Int_Tables_number   1
_chemical_formula_structural   KTe3O6F
_chemical_formula_sum   'K6 Te18 O36 F6'
_cell_volume   1145.86055883
_cell_formula_units_Z   6
loop_
 _symmetry_equiv_pos_site_id
 _symmetry_equiv_pos_as_xyz
  1  'x, y, z'
loop_
 _atom_site_type_symbol
 _atom_site_label
 _atom_site_symmetry_multiplicity
 _atom_site_fract_x
 _atom_site_fract_y
 _atom_site_fract_z
 _atom_site_occupancy
  K  K0  1  0.33333333  0.66666667  0.81946767  1
  K  K1  1  0.33333333  0.66666667  0.51386567  1
  K  K2  1  0.00000000  0.00000000  0.15280100  1
  K  K3  1  0.00000000  0.00000000  0.84719900  1
  K  K4  1  0.66666667  0.33333333  0.48613433  1
  K  K5  1  0.66666667  0.33333333  0.18053233  1
  Te  Te6  1  0.58144467  0.64988533  0.29704933  1
  Te  Te7  1  0.59822600  0.91477800  0.03628400  1
  Te  Te8  1  0.31655200  0.40177400  0.03628400  1
  Te  Te9  1  0.06844067  0.41855533  0.29704933  1
  Te  Te10  1  0.35011467  0.93155933  0.29704933  1
  Te  Te11  1  0.08522200  0.68344800  0.03628400  1
  Te  Te12  1  0.24811133  0.98321867  0.63038267  1
  Te  Te13  1  0.26489267  0.24811133  0.36961733  1
  Te  Te14  1  0.98321867  0.73510733  0.36961733  1
  Te  Te15  1  0.73510733  0.75188867  0.63038267  1
  Te  Te16  1  0.01678133  0.26489267  0.63038267  1
  Te  Te17  1  0.75188867  0.01678133  0.36961733  1
  Te  Te18  1  0.91477800  0.31655200  0.96371600  1
  Te  Te19  1  0.93155933  0.58144467  0.70295067  1
  Te  Te20  1  0.64988533  0.06844067  0.70295067  1
  Te  Te21  1  0.40177400  0.08522200  0.96371600  1
  Te  Te22  1  0.68344800  0.59822600  0.96371600  1
  Te  Te23  1  0.41855533  0.35011467  0.70295067  1
  O  O24  1  0.19983100  0.29668800  0.25227400  1
  O  O25  1  0.70331200  0.90314300  0.25227400  1
  O  O26  1  0.56980967  0.53316433  0.08105933  1
  O  O27  1  0.09685700  0.80016900  0.25227400  1
  O  O28  1  0.10673167  0.29863333  0.95563233  1
  O  O29  1  0.70136667  0.80809833  0.95563233  1
  O  O30  1  0.19190167  0.89326833  0.95563233  1
  O  O31  1  0.46683567  0.03664533  0.08105933  1
  O  O32  1  0.55993500  0.03470000  0.37770100  1
  O  O33  1  0.47476500  0.44006500  0.37770100  1
  O  O34  1  0.96530000  0.52523500  0.37770100  1
  O  O35  1  0.96335467  0.43019033  0.08105933  1
  O  O36  1  0.86649767  0.63002133  0.58560733  1
  O  O37  1  0.36997867  0.23647633  0.58560733  1
  O  O38  1  0.23647633  0.86649767  0.41439267  1
  O  O39  1  0.76352367  0.13350233  0.58560733  1
  O  O40  1  0.77339833  0.63196667  0.28896567  1
  O  O41  1  0.36803333  0.14143167  0.28896567  1
  O  O42  1  0.85856833  0.22660167  0.28896567  1
  O  O43  1  0.13350233  0.36997867  0.41439267  1
  O  O44  1  0.22660167  0.36803333  0.71103433  1
  O  O45  1  0.14143167  0.77339833  0.71103433  1
  O  O46  1  0.63196667  0.85856833  0.71103433  1
  O  O47  1  0.63002133  0.76352367  0.41439267  1
  O  O48  1  0.53316433  0.96335467  0.91894067  1
  O  O49  1  0.03664533  0.56980967  0.91894067  1
  O  O50  1  0.90314300  0.19983100  0.74772600  1
  O  O51  1  0.43019033  0.46683567  0.91894067  1
  O  O52  1  0.44006500  0.96530000  0.62229900  1
  O  O53  1  0.03470000  0.47476500  0.62229900  1
  O  O54  1  0.52523500  0.55993500  0.62229900  1
  O  O55  1  0.80016900  0.70331200  0.74772600  1
  O  O56  1  0.89326833  0.70136667  0.04436767  1
  O  O57  1  0.80809833  0.10673167  0.04436767  1
  O  O58  1  0.29863333  0.19190167  0.04436767  1
  O  O59  1  0.29668800  0.09685700  0.74772600  1
  F  F60  1  0.33333333  0.66666667  0.31700167  1
  F  F61  1  0.33333333  0.66666667  0.01633167  1
  F  F62  1  0.00000000  0.00000000  0.65033500  1
  F  F63  1  0.00000000  0.00000000  0.34966500  1
  F  F64  1  0.66666667  0.33333333  0.98366833  1
  F  F65  1  0.66666667  0.33333333  0.68299833  1
