# generated using pymatgen
data_K2AgI3
_symmetry_space_group_name_H-M   'P 1'
_cell_length_a   4.86538000
_cell_length_b   10.22567800
_cell_length_c   19.86579600
_cell_angle_alpha   90.00000000
_cell_angle_beta   90.00000000
_cell_angle_gamma   90.00000000
_symmetry_Int_Tables_number   1
_chemical_formula_structural   K2AgI3
_chemical_formula_sum   'K8 Ag4 I12'
_cell_volume   988.35929275
_cell_formula_units_Z   4
loop_
 _symmetry_equiv_pos_site_id
 _symmetry_equiv_pos_as_xyz
  1  'x, y, z'
loop_
 _atom_site_type_symbol
 _atom_site_label
 _atom_site_symmetry_multiplicity
 _atom_site_fract_x
 _atom_site_fract_y
 _atom_site_fract_z
 _atom_site_occupancy
  K  K0  1  0.75000000  0.75048900  0.53693400  1
  K  K1  1  0.25000000  0.24951100  0.46306600  1
  K  K2  1  0.75000000  0.25048900  0.96306600  1
  K  K3  1  0.25000000  0.74951100  0.03693400  1
  K  K4  1  0.75000000  0.42406700  0.21399100  1
  K  K5  1  0.25000000  0.07593300  0.71399100  1
  K  K6  1  0.75000000  0.92406700  0.28600900  1
  K  K7  1  0.25000000  0.57593300  0.78600900  1
  Ag  Ag8  1  0.25000000  0.63045200  0.36422400  1
  Ag  Ag9  1  0.25000000  0.13045200  0.13577600  1
  Ag  Ag10  1  0.75000000  0.36954800  0.63577600  1
  Ag  Ag11  1  0.75000000  0.86954800  0.86422400  1
  I  I12  1  0.75000000  0.99183200  0.09918600  1
  I  I13  1  0.25000000  0.50816800  0.59918600  1
  I  I14  1  0.25000000  0.18759000  0.27729900  1
  I  I15  1  0.75000000  0.31241000  0.77729900  1
  I  I16  1  0.25000000  0.38117000  0.07170800  1
  I  I17  1  0.75000000  0.61883000  0.92829200  1
  I  I18  1  0.25000000  0.00816800  0.90081400  1
  I  I19  1  0.75000000  0.11883000  0.57170800  1
  I  I20  1  0.25000000  0.88117000  0.42829200  1
  I  I21  1  0.75000000  0.81241000  0.72270100  1
  I  I22  1  0.25000000  0.68759000  0.22270100  1
  I  I23  1  0.75000000  0.49183200  0.40081400  1
