# generated using pymatgen
data_K3Sb2N2O6F7
_symmetry_space_group_name_H-M   'P 1'
_cell_length_a   15.31993600
_cell_length_b   5.76673600
_cell_length_c   7.30705066
_cell_angle_alpha   90.00000000
_cell_angle_beta   91.56930713
_cell_angle_gamma   90.00000000
_symmetry_Int_Tables_number   1
_chemical_formula_structural   K3Sb2N2O6F7
_chemical_formula_sum   'K6 Sb4 N4 O12 F14'
_cell_volume   645.30676445
_cell_formula_units_Z   2
loop_
 _symmetry_equiv_pos_site_id
 _symmetry_equiv_pos_as_xyz
  1  'x, y, z'
loop_
 _atom_site_type_symbol
 _atom_site_label
 _atom_site_symmetry_multiplicity
 _atom_site_fract_x
 _atom_site_fract_y
 _atom_site_fract_z
 _atom_site_occupancy
  K  K0  1  0.71719600  0.50000000  0.74081900  1
  K  K1  1  0.78280400  0.00000000  0.25918100  1
  K  K2  1  0.00000000  0.50000000  0.50000000  1
  K  K3  1  0.21719600  0.00000000  0.74081900  1
  K  K4  1  0.28280400  0.50000000  0.25918100  1
  K  K5  1  0.50000000  0.00000000  0.50000000  1
  Sb  Sb6  1  0.90340300  0.00000000  0.74923000  1
  Sb  Sb7  1  0.59659700  0.50000000  0.25077000  1
  Sb  Sb8  1  0.40340300  0.50000000  0.74923000  1
  Sb  Sb9  1  0.09659700  0.00000000  0.25077000  1
  N  N10  1  0.59143500  0.00000000  0.92089600  1
  N  N11  1  0.90856500  0.50000000  0.07910400  1
  N  N12  1  0.09143500  0.50000000  0.92089600  1
  N  N13  1  0.40856500  0.00000000  0.07910400  1
  O  O14  1  0.60791100  0.00000000  0.09293900  1
  O  O15  1  0.91733700  0.69054300  0.16368100  1
  O  O16  1  0.58266300  0.80945700  0.83631900  1
  O  O17  1  0.58266300  0.19054300  0.83631900  1
  O  O18  1  0.91733700  0.30945700  0.16368100  1
  O  O19  1  0.89208900  0.50000000  0.90706100  1
  O  O20  1  0.10791100  0.50000000  0.09293900  1
  O  O21  1  0.41733700  0.19054300  0.16368100  1
  O  O22  1  0.08266300  0.30945700  0.83631900  1
  O  O23  1  0.08266300  0.69054300  0.83631900  1
  O  O24  1  0.41733700  0.80945700  0.16368100  1
  O  O25  1  0.39208900  0.00000000  0.90706100  1
  F  F26  1  0.64973950  0.73533350  0.41619600  1
  F  F27  1  0.85026050  0.23533350  0.58380400  1
  F  F28  1  0.64973950  0.26466650  0.41619600  1
  F  F29  1  0.71247300  0.50000000  0.12940300  1
  F  F30  1  0.85026050  0.76466650  0.58380400  1
  F  F31  1  0.78752700  0.00000000  0.87059700  1
  F  F32  1  0.00000000  0.00000000  0.50000000  1
  F  F33  1  0.14973950  0.23533350  0.41619600  1
  F  F34  1  0.35026050  0.73533350  0.58380400  1
  F  F35  1  0.14973950  0.76466650  0.41619600  1
  F  F36  1  0.21247300  0.00000000  0.12940300  1
  F  F37  1  0.35026050  0.26466650  0.58380400  1
  F  F38  1  0.28752700  0.50000000  0.87059700  1
  F  F39  1  0.50000000  0.50000000  0.50000000  1
