# generated using pymatgen
data_Na2UF6
_symmetry_space_group_name_H-M   'P 1'
_cell_length_a   4.08643000
_cell_length_b   5.60141400
_cell_length_c   11.36027800
_cell_angle_alpha   90.00000000
_cell_angle_beta   90.00000000
_cell_angle_gamma   90.00000000
_symmetry_Int_Tables_number   1
_chemical_formula_structural   Na2UF6
_chemical_formula_sum   'Na4 U2 F12'
_cell_volume   260.03433473
_cell_formula_units_Z   2
loop_
 _symmetry_equiv_pos_site_id
 _symmetry_equiv_pos_as_xyz
  1  'x, y, z'
loop_
 _atom_site_type_symbol
 _atom_site_label
 _atom_site_symmetry_multiplicity
 _atom_site_fract_x
 _atom_site_fract_y
 _atom_site_fract_z
 _atom_site_occupancy
  Na  Na0  1  0.50000000  0.50000000  0.83004600  1
  Na  Na1  1  0.00000000  0.00000000  0.66995400  1
  Na  Na2  1  0.00000000  0.00000000  0.33004600  1
  Na  Na3  1  0.50000000  0.50000000  0.16995400  1
  U  U4  1  0.00000000  0.00000000  0.00000000  1
  U  U5  1  0.50000000  0.50000000  0.50000000  1
  F  F6  1  0.00000000  0.75590050  0.84669350  1
  F  F7  1  0.50000000  0.74409950  0.65330650  1
  F  F8  1  0.50000000  0.25590050  0.65330650  1
  F  F9  1  0.50000000  0.22456000  0.00000000  1
  F  F10  1  0.00000000  0.24409950  0.84669350  1
  F  F11  1  0.50000000  0.77544000  0.00000000  1
  F  F12  1  0.50000000  0.25590050  0.34669350  1
  F  F13  1  0.00000000  0.24409950  0.15330650  1
  F  F14  1  0.00000000  0.75590050  0.15330650  1
  F  F15  1  0.00000000  0.72456000  0.50000000  1
  F  F16  1  0.50000000  0.74409950  0.34669350  1
  F  F17  1  0.00000000  0.27544000  0.50000000  1
