# generated using pymatgen
data_LiPr2C2N4F3
_symmetry_space_group_name_H-M   'P 1'
_cell_length_a   11.70240400
_cell_length_b   6.63891400
_cell_length_c   8.59916232
_cell_angle_alpha   90.00000000
_cell_angle_beta   115.43928450
_cell_angle_gamma   90.00000000
_symmetry_Int_Tables_number   1
_chemical_formula_structural   LiPr2C2N4F3
_chemical_formula_sum   'Li4 Pr8 C8 N16 F12'
_cell_volume   603.30335110
_cell_formula_units_Z   4
loop_
 _symmetry_equiv_pos_site_id
 _symmetry_equiv_pos_as_xyz
  1  'x, y, z'
loop_
 _atom_site_type_symbol
 _atom_site_label
 _atom_site_symmetry_multiplicity
 _atom_site_fract_x
 _atom_site_fract_y
 _atom_site_fract_z
 _atom_site_occupancy
  Li  Li0  1  0.00000000  0.09308400  0.25000000  1
  Li  Li1  1  0.00000000  0.90691600  0.75000000  1
  Li  Li2  1  0.50000000  0.59308400  0.25000000  1
  Li  Li3  1  0.50000000  0.40691600  0.75000000  1
  Pr  Pr4  1  0.21338450  0.49600150  0.33214000  1
  Pr  Pr5  1  0.28661550  0.00399850  0.66786000  1
  Pr  Pr6  1  0.28661550  0.99600150  0.16786000  1
  Pr  Pr7  1  0.21338450  0.50399850  0.83214000  1
  Pr  Pr8  1  0.71338450  0.99600150  0.33214000  1
  Pr  Pr9  1  0.78661550  0.50399850  0.66786000  1
  Pr  Pr10  1  0.78661550  0.49600150  0.16786000  1
  Pr  Pr11  1  0.71338450  0.00399850  0.83214000  1
  C  C12  1  0.47572250  0.25030050  0.04638900  1
  C  C13  1  0.47572250  0.74969950  0.54638900  1
  C  C14  1  0.02427750  0.75030050  0.45361100  1
  C  C15  1  0.02427750  0.24969950  0.95361100  1
  C  C16  1  0.97572250  0.75030050  0.04638900  1
  C  C17  1  0.97572250  0.24969950  0.54638900  1
  C  C18  1  0.52427750  0.25030050  0.45361100  1
  C  C19  1  0.52427750  0.74969950  0.95361100  1
  N  N20  1  0.36284150  0.20191050  0.96267200  1
  N  N21  1  0.41350850  0.29781250  0.36749900  1
  N  N22  1  0.13715850  0.29808950  0.03732800  1
  N  N23  1  0.08649150  0.79781250  0.13250100  1
  N  N24  1  0.36284150  0.79808950  0.46267200  1
  N  N25  1  0.41350850  0.70218750  0.86749900  1
  N  N26  1  0.13715850  0.70191050  0.53732800  1
  N  N27  1  0.08649150  0.20218750  0.63250100  1
  N  N28  1  0.86284150  0.70191050  0.96267200  1
  N  N29  1  0.91350850  0.79781250  0.36749900  1
  N  N30  1  0.63715850  0.79808950  0.03732800  1
  N  N31  1  0.58649150  0.29781250  0.13250100  1
  N  N32  1  0.86284150  0.29808950  0.46267200  1
  N  N33  1  0.91350850  0.20218750  0.86749900  1
  N  N34  1  0.63715850  0.20191050  0.53732800  1
  N  N35  1  0.58649150  0.70218750  0.63250100  1
  F  F36  1  0.00000000  0.60269700  0.75000000  1
  F  F37  1  0.18658500  0.12233900  0.36595400  1
  F  F38  1  0.00000000  0.39730300  0.25000000  1
  F  F39  1  0.18658500  0.87766100  0.86595400  1
  F  F40  1  0.31341500  0.37766100  0.63404600  1
  F  F41  1  0.31341500  0.62233900  0.13404600  1
  F  F42  1  0.50000000  0.10269700  0.75000000  1
  F  F43  1  0.68658500  0.62233900  0.36595400  1
  F  F44  1  0.50000000  0.89730300  0.25000000  1
  F  F45  1  0.68658500  0.37766100  0.86595400  1
  F  F46  1  0.81341500  0.87766100  0.63404600  1
  F  F47  1  0.81341500  0.12233900  0.13404600  1
