# generated using pymatgen
data_CaHf4O9
_symmetry_space_group_name_H-M   'P 1'
_cell_length_a   17.69632800
_cell_length_b   14.63507600
_cell_length_c   12.03851775
_cell_angle_alpha   90.00000000
_cell_angle_beta   119.24512622
_cell_angle_gamma   90.00000000
_symmetry_Int_Tables_number   1
_chemical_formula_structural   CaHf4O9
_chemical_formula_sum   'Ca16 Hf64 O144'
_cell_volume   2720.41583327
_cell_formula_units_Z   16
loop_
 _symmetry_equiv_pos_site_id
 _symmetry_equiv_pos_as_xyz
  1  'x, y, z'
loop_
 _atom_site_type_symbol
 _atom_site_label
 _atom_site_symmetry_multiplicity
 _atom_site_fract_x
 _atom_site_fract_y
 _atom_site_fract_z
 _atom_site_occupancy
  Ca  Ca0  1  0.19900050  0.31245150  0.85025800  1
  Ca  Ca1  1  0.80099950  0.31245150  0.64974200  1
  Ca  Ca2  1  0.19900050  0.68754850  0.35025800  1
  Ca  Ca3  1  0.00000000  0.93693900  0.75000000  1
  Ca  Ca4  1  0.00000000  0.06306100  0.25000000  1
  Ca  Ca5  1  0.00000000  0.43612700  0.75000000  1
  Ca  Ca6  1  0.00000000  0.56387300  0.25000000  1
  Ca  Ca7  1  0.80099950  0.68754850  0.14974200  1
  Ca  Ca8  1  0.69900050  0.81245150  0.85025800  1
  Ca  Ca9  1  0.30099950  0.81245150  0.64974200  1
  Ca  Ca10  1  0.69900050  0.18754850  0.35025800  1
  Ca  Ca11  1  0.50000000  0.43693900  0.75000000  1
  Ca  Ca12  1  0.50000000  0.56306100  0.25000000  1
  Ca  Ca13  1  0.50000000  0.93612700  0.75000000  1
  Ca  Ca14  1  0.50000000  0.06387300  0.25000000  1
  Ca  Ca15  1  0.30099950  0.18754850  0.14974200  1
  Hf  Hf16  1  0.18412050  0.80937050  0.82244900  1
  Hf  Hf17  1  0.60774650  0.54365650  0.06423700  1
  Hf  Hf18  1  0.39225350  0.54365650  0.43576300  1
  Hf  Hf19  1  0.00000000  0.81474900  0.25000000  1
  Hf  Hf20  1  0.88045300  0.18457500  0.94917200  1
  Hf  Hf21  1  0.39225350  0.45634350  0.93576300  1
  Hf  Hf22  1  0.10284750  0.68618450  0.55117100  1
  Hf  Hf23  1  0.09044700  0.57475800  0.04959900  1
  Hf  Hf24  1  0.00000000  0.31241000  0.25000000  1
  Hf  Hf25  1  0.31310700  0.43035500  0.15111900  1
  Hf  Hf26  1  0.11954700  0.81542500  0.05082800  1
  Hf  Hf27  1  0.81587950  0.80937050  0.67755100  1
  Hf  Hf28  1  0.19526900  0.44606100  0.37975200  1
  Hf  Hf29  1  0.09044700  0.42524200  0.54959900  1
  Hf  Hf30  1  0.90955300  0.42524200  0.95040100  1
  Hf  Hf31  1  0.31310700  0.56964500  0.65111900  1
  Hf  Hf32  1  0.18412050  0.19062950  0.32244900  1
  Hf  Hf33  1  0.81587950  0.19062950  0.17755100  1
  Hf  Hf34  1  0.19526900  0.55393900  0.87975200  1
  Hf  Hf35  1  0.00000000  0.18525100  0.75000000  1
  Hf  Hf36  1  0.88045300  0.81542500  0.44917200  1
  Hf  Hf37  1  0.90955300  0.57475800  0.45040100  1
  Hf  Hf38  1  0.68689300  0.43035500  0.34888100  1
  Hf  Hf39  1  0.68689300  0.56964500  0.84888100  1
  Hf  Hf40  1  0.80473100  0.44606100  0.12024800  1
  Hf  Hf41  1  0.89715250  0.31381550  0.44882900  1
  Hf  Hf42  1  0.60774650  0.45634350  0.56423700  1
  Hf  Hf43  1  0.89715250  0.68618450  0.94882900  1
  Hf  Hf44  1  0.80473100  0.55393900  0.62024800  1
  Hf  Hf45  1  0.00000000  0.68759000  0.75000000  1
  Hf  Hf46  1  0.10284750  0.31381550  0.05117100  1
  Hf  Hf47  1  0.11954700  0.18457500  0.55082800  1
  Hf  Hf48  1  0.68412050  0.30937050  0.82244900  1
  Hf  Hf49  1  0.10774650  0.04365650  0.06423700  1
  Hf  Hf50  1  0.89225350  0.04365650  0.43576300  1
  Hf  Hf51  1  0.50000000  0.31474900  0.25000000  1
  Hf  Hf52  1  0.38045300  0.68457500  0.94917200  1
  Hf  Hf53  1  0.89225350  0.95634350  0.93576300  1
  Hf  Hf54  1  0.60284750  0.18618450  0.55117100  1
  Hf  Hf55  1  0.59044700  0.07475800  0.04959900  1
  Hf  Hf56  1  0.50000000  0.81241000  0.25000000  1
  Hf  Hf57  1  0.81310700  0.93035500  0.15111900  1
  Hf  Hf58  1  0.61954700  0.31542500  0.05082800  1
  Hf  Hf59  1  0.31587950  0.30937050  0.67755100  1
  Hf  Hf60  1  0.69526900  0.94606100  0.37975200  1
  Hf  Hf61  1  0.59044700  0.92524200  0.54959900  1
  Hf  Hf62  1  0.40955300  0.92524200  0.95040100  1
  Hf  Hf63  1  0.81310700  0.06964500  0.65111900  1
  Hf  Hf64  1  0.68412050  0.69062950  0.32244900  1
  Hf  Hf65  1  0.31587950  0.69062950  0.17755100  1
  Hf  Hf66  1  0.69526900  0.05393900  0.87975200  1
  Hf  Hf67  1  0.50000000  0.68525100  0.75000000  1
  Hf  Hf68  1  0.38045300  0.31542500  0.44917200  1
  Hf  Hf69  1  0.40955300  0.07475800  0.45040100  1
  Hf  Hf70  1  0.18689300  0.93035500  0.34888100  1
  Hf  Hf71  1  0.18689300  0.06964500  0.84888100  1
  Hf  Hf72  1  0.30473100  0.94606100  0.12024800  1
  Hf  Hf73  1  0.39715250  0.81381550  0.44882900  1
  Hf  Hf74  1  0.10774650  0.95634350  0.56423700  1
  Hf  Hf75  1  0.39715250  0.18618450  0.94882900  1
  Hf  Hf76  1  0.30473100  0.05393900  0.62024800  1
  Hf  Hf77  1  0.50000000  0.18759000  0.75000000  1
  Hf  Hf78  1  0.60284750  0.81381550  0.05117100  1
  Hf  Hf79  1  0.61954700  0.68457500  0.55082800  1
  O  O80  1  0.97507600  0.70726000  0.52232600  1
  O  O81  1  0.22663550  0.32610050  0.07978100  1
  O  O82  1  0.27198250  0.66531050  0.97987700  1
  O  O83  1  0.22663550  0.67389950  0.57978100  1
  O  O84  1  0.03014000  0.92455300  0.97859300  1
  O  O85  1  0.07109250  0.42080250  0.36296700  1
  O  O86  1  0.77336450  0.32610050  0.42021900  1
  O  O87  1  0.92890750  0.42080250  0.13703300  1
  O  O88  1  0.95463850  0.43905450  0.50780400  1
  O  O89  1  0.87393600  0.54660400  0.26290900  1
  O  O90  1  0.93050150  0.28987850  0.63132500  1
  O  O91  1  0.04536150  0.43905450  0.99219600  1
  O  O92  1  0.79587400  0.47823000  0.94133900  1
  O  O93  1  0.87393600  0.45339600  0.76290900  1
  O  O94  1  0.85909200  0.18097300  0.37803500  1
  O  O95  1  0.14090800  0.81902700  0.62196500  1
  O  O96  1  0.72801750  0.66531050  0.52012300  1
  O  O97  1  0.07109250  0.57919750  0.86296700  1
  O  O98  1  0.92914150  0.92255350  0.12807900  1
  O  O99  1  0.30191550  0.43315150  0.32789500  1
  O  O100  1  0.20412600  0.47823000  0.55866100  1
  O  O101  1  0.12606400  0.54660400  0.23709100  1
  O  O102  1  0.07789600  0.79890100  0.84911700  1
  O  O103  1  0.81039350  0.30565850  0.85695600  1
  O  O104  1  0.06949850  0.28987850  0.86867500  1
  O  O105  1  0.14090800  0.18097300  0.12196500  1
  O  O106  1  0.89704800  0.17659200  0.78606100  1
  O  O107  1  0.79587400  0.52177000  0.44133900  1
  O  O108  1  0.77336450  0.67389950  0.92021900  1
  O  O109  1  0.86850100  0.32509200  0.25420800  1
  O  O110  1  0.07789600  0.20109900  0.34911700  1
  O  O111  1  0.92210400  0.79890100  0.65088300  1
  O  O112  1  0.06949850  0.71012150  0.36867500  1
  O  O113  1  0.13149900  0.32509200  0.24579200  1
  O  O114  1  0.63250750  0.44324750  0.75918900  1
  O  O115  1  0.93050150  0.71012150  0.13132500  1
  O  O116  1  0.71899300  0.55517600  0.04356600  1
  O  O117  1  0.30191550  0.56684850  0.82789500  1
  O  O118  1  0.63250750  0.55675250  0.25918900  1
  O  O119  1  0.72801750  0.33468950  0.02012300  1
  O  O120  1  0.85909200  0.81902700  0.87803500  1
  O  O121  1  0.96986000  0.92455300  0.52140700  1
  O  O122  1  0.92914150  0.07744650  0.62807900  1
  O  O123  1  0.69808450  0.56684850  0.67210500  1
  O  O124  1  0.04536150  0.56094550  0.49219600  1
  O  O125  1  0.18960650  0.30565850  0.64304400  1
  O  O126  1  0.86850100  0.67490800  0.75420800  1
  O  O127  1  0.27198250  0.33468950  0.47987700  1
  O  O128  1  0.03014000  0.07544700  0.47859300  1
  O  O129  1  0.20412600  0.52177000  0.05866100  1
  O  O130  1  0.07085850  0.92255350  0.37192100  1
  O  O131  1  0.10295200  0.82340800  0.21393900  1
  O  O132  1  0.89704800  0.82340800  0.28606100  1
  O  O133  1  0.02492400  0.29274000  0.47767400  1
  O  O134  1  0.81039350  0.69434150  0.35695600  1
  O  O135  1  0.97507600  0.29274000  0.02232600  1
  O  O136  1  0.10295200  0.17659200  0.71393900  1
  O  O137  1  0.18960650  0.69434150  0.14304400  1
  O  O138  1  0.71899300  0.44482400  0.54356600  1
  O  O139  1  0.92890750  0.57919750  0.63703300  1
  O  O140  1  0.69808450  0.43315150  0.17210500  1
  O  O141  1  0.36749250  0.55675250  0.24081100  1
  O  O142  1  0.07085850  0.07744650  0.87192100  1
  O  O143  1  0.28100700  0.44482400  0.95643400  1
  O  O144  1  0.96986000  0.07544700  0.02140700  1
  O  O145  1  0.13149900  0.67490800  0.74579200  1
  O  O146  1  0.92210400  0.20109900  0.15088300  1
  O  O147  1  0.95463850  0.56094550  0.00780400  1
  O  O148  1  0.28100700  0.55517600  0.45643400  1
  O  O149  1  0.02492400  0.70726000  0.97767400  1
  O  O150  1  0.36749250  0.44324750  0.74081100  1
  O  O151  1  0.12606400  0.45339600  0.73709100  1
  O  O152  1  0.47507600  0.20726000  0.52232600  1
  O  O153  1  0.72663550  0.82610050  0.07978100  1
  O  O154  1  0.77198250  0.16531050  0.97987700  1
  O  O155  1  0.72663550  0.17389950  0.57978100  1
  O  O156  1  0.53014000  0.42455300  0.97859300  1
  O  O157  1  0.57109250  0.92080250  0.36296700  1
  O  O158  1  0.27336450  0.82610050  0.42021900  1
  O  O159  1  0.42890750  0.92080250  0.13703300  1
  O  O160  1  0.45463850  0.93905450  0.50780400  1
  O  O161  1  0.37393600  0.04660400  0.26290900  1
  O  O162  1  0.43050150  0.78987850  0.63132500  1
  O  O163  1  0.54536150  0.93905450  0.99219600  1
  O  O164  1  0.29587400  0.97823000  0.94133900  1
  O  O165  1  0.37393600  0.95339600  0.76290900  1
  O  O166  1  0.35909200  0.68097300  0.37803500  1
  O  O167  1  0.64090800  0.31902700  0.62196500  1
  O  O168  1  0.22801750  0.16531050  0.52012300  1
  O  O169  1  0.57109250  0.07919750  0.86296700  1
  O  O170  1  0.42914150  0.42255350  0.12807900  1
  O  O171  1  0.80191550  0.93315150  0.32789500  1
  O  O172  1  0.70412600  0.97823000  0.55866100  1
  O  O173  1  0.62606400  0.04660400  0.23709100  1
  O  O174  1  0.57789600  0.29890100  0.84911700  1
  O  O175  1  0.31039350  0.80565850  0.85695600  1
  O  O176  1  0.56949850  0.78987850  0.86867500  1
  O  O177  1  0.64090800  0.68097300  0.12196500  1
  O  O178  1  0.39704800  0.67659200  0.78606100  1
  O  O179  1  0.29587400  0.02177000  0.44133900  1
  O  O180  1  0.27336450  0.17389950  0.92021900  1
  O  O181  1  0.36850100  0.82509200  0.25420800  1
  O  O182  1  0.57789600  0.70109900  0.34911700  1
  O  O183  1  0.42210400  0.29890100  0.65088300  1
  O  O184  1  0.56949850  0.21012150  0.36867500  1
  O  O185  1  0.63149900  0.82509200  0.24579200  1
  O  O186  1  0.13250750  0.94324750  0.75918900  1
  O  O187  1  0.43050150  0.21012150  0.13132500  1
  O  O188  1  0.21899300  0.05517600  0.04356600  1
  O  O189  1  0.80191550  0.06684850  0.82789500  1
  O  O190  1  0.13250750  0.05675250  0.25918900  1
  O  O191  1  0.22801750  0.83468950  0.02012300  1
  O  O192  1  0.35909200  0.31902700  0.87803500  1
  O  O193  1  0.46986000  0.42455300  0.52140700  1
  O  O194  1  0.42914150  0.57744650  0.62807900  1
  O  O195  1  0.19808450  0.06684850  0.67210500  1
  O  O196  1  0.54536150  0.06094550  0.49219600  1
  O  O197  1  0.68960650  0.80565850  0.64304400  1
  O  O198  1  0.36850100  0.17490800  0.75420800  1
  O  O199  1  0.77198250  0.83468950  0.47987700  1
  O  O200  1  0.53014000  0.57544700  0.47859300  1
  O  O201  1  0.70412600  0.02177000  0.05866100  1
  O  O202  1  0.57085850  0.42255350  0.37192100  1
  O  O203  1  0.60295200  0.32340800  0.21393900  1
  O  O204  1  0.39704800  0.32340800  0.28606100  1
  O  O205  1  0.52492400  0.79274000  0.47767400  1
  O  O206  1  0.31039350  0.19434150  0.35695600  1
  O  O207  1  0.47507600  0.79274000  0.02232600  1
  O  O208  1  0.60295200  0.67659200  0.71393900  1
  O  O209  1  0.68960650  0.19434150  0.14304400  1
  O  O210  1  0.21899300  0.94482400  0.54356600  1
  O  O211  1  0.42890750  0.07919750  0.63703300  1
  O  O212  1  0.19808450  0.93315150  0.17210500  1
  O  O213  1  0.86749250  0.05675250  0.24081100  1
  O  O214  1  0.57085850  0.57744650  0.87192100  1
  O  O215  1  0.78100700  0.94482400  0.95643400  1
  O  O216  1  0.46986000  0.57544700  0.02140700  1
  O  O217  1  0.63149900  0.17490800  0.74579200  1
  O  O218  1  0.42210400  0.70109900  0.15088300  1
  O  O219  1  0.45463850  0.06094550  0.00780400  1
  O  O220  1  0.78100700  0.05517600  0.45643400  1
  O  O221  1  0.52492400  0.20726000  0.97767400  1
  O  O222  1  0.86749250  0.94324750  0.74081100  1
  O  O223  1  0.62606400  0.95339600  0.73709100  1
