# generated using pymatgen
data_SrAl2B2O7
_symmetry_space_group_name_H-M   'P 1'
_cell_length_a   4.95461562
_cell_length_b   4.95461562
_cell_length_c   48.53487872
_cell_angle_alpha   90.00000000
_cell_angle_beta   90.00000000
_cell_angle_gamma   120.00000000
_symmetry_Int_Tables_number   1
_chemical_formula_structural   SrAl2B2O7
_chemical_formula_sum   'Sr6 Al12 B12 O42'
_cell_volume   1031.82136380
_cell_formula_units_Z   6
loop_
 _symmetry_equiv_pos_site_id
 _symmetry_equiv_pos_as_xyz
  1  'x, y, z'
loop_
 _atom_site_type_symbol
 _atom_site_label
 _atom_site_symmetry_multiplicity
 _atom_site_fract_x
 _atom_site_fract_y
 _atom_site_fract_z
 _atom_site_occupancy
  Sr  Sr0  1  0.00000000  0.00000000  0.00000000  1
  Sr  Sr1  1  0.33333333  0.66666667  0.16666667  1
  Sr  Sr2  1  0.66666667  0.33333333  0.33333333  1
  Sr  Sr3  1  0.00000000  0.00000000  0.50000000  1
  Sr  Sr4  1  0.33333333  0.66666667  0.66666667  1
  Sr  Sr5  1  0.66666667  0.33333333  0.83333333  1
  Al  Al6  1  0.00000000  0.00000000  0.21516200  1
  Al  Al7  1  0.00000000  0.00000000  0.28483800  1
  Al  Al8  1  0.66666667  0.33333333  0.11817133  1
  Al  Al9  1  0.66666667  0.33333333  0.04849533  1
  Al  Al10  1  0.66666667  0.33333333  0.54849533  1
  Al  Al11  1  0.66666667  0.33333333  0.61817133  1
  Al  Al12  1  0.33333333  0.66666667  0.45150467  1
  Al  Al13  1  0.33333333  0.66666667  0.38182867  1
  Al  Al14  1  0.33333333  0.66666667  0.88182867  1
  Al  Al15  1  0.33333333  0.66666667  0.95150467  1
  Al  Al16  1  0.00000000  0.00000000  0.78483800  1
  Al  Al17  1  0.00000000  0.00000000  0.71516200  1
  B  B18  1  0.00000000  0.00000000  0.13257300  1
  B  B19  1  0.33333333  0.66666667  0.29923967  1
  B  B20  1  0.66666667  0.33333333  0.20076033  1
  B  B21  1  0.33333333  0.66666667  0.03409367  1
  B  B22  1  0.66666667  0.33333333  0.46590633  1
  B  B23  1  0.00000000  0.00000000  0.63257300  1
  B  B24  1  0.33333333  0.66666667  0.53409367  1
  B  B25  1  0.00000000  0.00000000  0.36742700  1
  B  B26  1  0.33333333  0.66666667  0.79923967  1
  B  B27  1  0.66666667  0.33333333  0.96590633  1
  B  B28  1  0.00000000  0.00000000  0.86742700  1
  B  B29  1  0.66666667  0.33333333  0.70076033  1
  O  O30  1  0.30363767  0.05962933  0.13380933  1
  O  O31  1  0.75599167  0.69636233  0.13380933  1
  O  O32  1  0.27370400  0.36302900  0.30047600  1
  O  O33  1  0.66666667  0.33333333  0.08333333  1
  O  O34  1  0.08932500  0.72629600  0.30047600  1
  O  O35  1  0.39296267  0.97030433  0.03285733  1
  O  O36  1  0.63697100  0.91067500  0.30047600  1
  O  O37  1  0.91067500  0.63697100  0.19952400  1
  O  O38  1  0.36302900  0.27370400  0.19952400  1
  O  O39  1  0.94037067  0.24400833  0.13380933  1
  O  O40  1  0.72629600  0.08932500  0.19952400  1
  O  O41  1  0.02969567  0.42265833  0.03285733  1
  O  O42  1  0.57734167  0.60703733  0.03285733  1
  O  O43  1  0.00000000  0.00000000  0.25000000  1
  O  O44  1  0.97030433  0.39296267  0.46714267  1
  O  O45  1  0.42265833  0.02969567  0.46714267  1
  O  O46  1  0.94037067  0.69636233  0.63380933  1
  O  O47  1  0.33333333  0.66666667  0.41666667  1
  O  O48  1  0.75599167  0.05962933  0.63380933  1
  O  O49  1  0.05962933  0.30363767  0.36619067  1
  O  O50  1  0.30363767  0.24400833  0.63380933  1
  O  O51  1  0.57734167  0.97030433  0.53285733  1
  O  O52  1  0.02969567  0.60703733  0.53285733  1
  O  O53  1  0.60703733  0.57734167  0.46714267  1
  O  O54  1  0.39296267  0.42265833  0.53285733  1
  O  O55  1  0.69636233  0.75599167  0.36619067  1
  O  O56  1  0.24400833  0.94037067  0.36619067  1
  O  O57  1  0.66666667  0.33333333  0.58333333  1
  O  O58  1  0.63697100  0.72629600  0.80047600  1
  O  O59  1  0.08932500  0.36302900  0.80047600  1
  O  O60  1  0.60703733  0.02969567  0.96714267  1
  O  O61  1  0.00000000  0.00000000  0.75000000  1
  O  O62  1  0.42265833  0.39296267  0.96714267  1
  O  O63  1  0.72629600  0.63697100  0.69952400  1
  O  O64  1  0.97030433  0.57734167  0.96714267  1
  O  O65  1  0.24400833  0.30363767  0.86619067  1
  O  O66  1  0.69636233  0.94037067  0.86619067  1
  O  O67  1  0.27370400  0.91067500  0.80047600  1
  O  O68  1  0.05962933  0.75599167  0.86619067  1
  O  O69  1  0.36302900  0.08932500  0.69952400  1
  O  O70  1  0.91067500  0.27370400  0.69952400  1
  O  O71  1  0.33333333  0.66666667  0.91666667  1
