# generated using pymatgen
data_K3SbN3(O3F)3
_symmetry_space_group_name_H-M   'P 1'
_cell_length_a   11.54380400
_cell_length_b   14.20165200
_cell_length_c   7.54336600
_cell_angle_alpha   90.00000000
_cell_angle_beta   90.00000000
_cell_angle_gamma   90.00000000
_symmetry_Int_Tables_number   1
_chemical_formula_structural   K3SbN3(O3F)3
_chemical_formula_sum   'K12 Sb4 N12 O36 F12'
_cell_volume   1236.66762292
_cell_formula_units_Z   4
loop_
 _symmetry_equiv_pos_site_id
 _symmetry_equiv_pos_as_xyz
  1  'x, y, z'
loop_
 _atom_site_type_symbol
 _atom_site_label
 _atom_site_symmetry_multiplicity
 _atom_site_fract_x
 _atom_site_fract_y
 _atom_site_fract_z
 _atom_site_occupancy
  K  K0  1  0.79295650  0.17801250  0.22651000  1
  K  K1  1  0.20704350  0.82198750  0.72651000  1
  K  K2  1  0.79295650  0.82198750  0.72651000  1
  K  K3  1  0.50000000  0.09669900  0.99494000  1
  K  K4  1  0.50000000  0.90330100  0.49494000  1
  K  K5  1  0.20704350  0.17801250  0.22651000  1
  K  K6  1  0.29295650  0.67801250  0.22651000  1
  K  K7  1  0.70704350  0.32198750  0.72651000  1
  K  K8  1  0.29295650  0.32198750  0.72651000  1
  K  K9  1  0.00000000  0.59669900  0.99494000  1
  K  K10  1  0.00000000  0.40330100  0.49494000  1
  K  K11  1  0.70704350  0.67801250  0.22651000  1
  Sb  Sb12  1  0.50000000  0.36257600  0.15120500  1
  Sb  Sb13  1  0.50000000  0.63742400  0.65120500  1
  Sb  Sb14  1  0.00000000  0.86257600  0.15120500  1
  Sb  Sb15  1  0.00000000  0.13742400  0.65120500  1
  N  N16  1  0.26020200  0.94647600  0.24543500  1
  N  N17  1  0.26020200  0.05352400  0.74543500  1
  N  N18  1  0.73979800  0.05352400  0.74543500  1
  N  N19  1  0.73979800  0.94647600  0.24543500  1
  N  N20  1  0.50000000  0.20291500  0.51643100  1
  N  N21  1  0.50000000  0.79708500  0.01643100  1
  N  N22  1  0.76020200  0.44647600  0.24543500  1
  N  N23  1  0.76020200  0.55352400  0.74543500  1
  N  N24  1  0.23979800  0.55352400  0.74543500  1
  N  N25  1  0.23979800  0.44647600  0.24543500  1
  N  N26  1  0.00000000  0.70291500  0.51643100  1
  N  N27  1  0.00000000  0.29708500  0.01643100  1
  O  O28  1  0.59515300  0.19604400  0.43432500  1
  O  O29  1  0.17808350  0.03239750  0.63655400  1
  O  O30  1  0.65217700  0.00044400  0.75224300  1
  O  O31  1  0.74827750  0.12505050  0.84266900  1
  O  O32  1  0.82191650  0.96760250  0.13655400  1
  O  O33  1  0.82191650  0.03239750  0.63655400  1
  O  O34  1  0.25172250  0.87494950  0.34266900  1
  O  O35  1  0.74827750  0.87494950  0.34266900  1
  O  O36  1  0.59515300  0.80395600  0.93432500  1
  O  O37  1  0.40484700  0.19604400  0.43432500  1
  O  O38  1  0.34782300  0.99955600  0.25224300  1
  O  O39  1  0.17808350  0.96760250  0.13655400  1
  O  O40  1  0.50000000  0.21974800  0.68247500  1
  O  O41  1  0.34782300  0.00044400  0.75224300  1
  O  O42  1  0.65217700  0.99955600  0.25224300  1
  O  O43  1  0.25172250  0.12505050  0.84266900  1
  O  O44  1  0.40484700  0.80395600  0.93432500  1
  O  O45  1  0.50000000  0.78025200  0.18247500  1
  O  O46  1  0.09515300  0.69604400  0.43432500  1
  O  O47  1  0.67808350  0.53239750  0.63655400  1
  O  O48  1  0.15217700  0.50044400  0.75224300  1
  O  O49  1  0.24827750  0.62505050  0.84266900  1
  O  O50  1  0.32191650  0.46760250  0.13655400  1
  O  O51  1  0.32191650  0.53239750  0.63655400  1
  O  O52  1  0.75172250  0.37494950  0.34266900  1
  O  O53  1  0.24827750  0.37494950  0.34266900  1
  O  O54  1  0.09515300  0.30395600  0.93432500  1
  O  O55  1  0.90484700  0.69604400  0.43432500  1
  O  O56  1  0.84782300  0.49955600  0.25224300  1
  O  O57  1  0.67808350  0.46760250  0.13655400  1
  O  O58  1  0.00000000  0.71974800  0.68247500  1
  O  O59  1  0.84782300  0.50044400  0.75224300  1
  O  O60  1  0.15217700  0.49955600  0.25224300  1
  O  O61  1  0.75172250  0.62505050  0.84266900  1
  O  O62  1  0.90484700  0.30395600  0.93432500  1
  O  O63  1  0.00000000  0.28025200  0.18247500  1
  F  F64  1  0.50000000  0.41826800  0.91254000  1
  F  F65  1  0.50000000  0.58173200  0.41254000  1
  F  F66  1  0.38494350  0.26987250  0.05226800  1
  F  F67  1  0.38494350  0.73012750  0.55226800  1
  F  F68  1  0.61505650  0.73012750  0.55226800  1
  F  F69  1  0.61505650  0.26987250  0.05226800  1
  F  F70  1  0.00000000  0.91826800  0.91254000  1
  F  F71  1  0.00000000  0.08173200  0.41254000  1
  F  F72  1  0.88494350  0.76987250  0.05226800  1
  F  F73  1  0.88494350  0.23012750  0.55226800  1
  F  F74  1  0.11505650  0.23012750  0.55226800  1
  F  F75  1  0.11505650  0.76987250  0.05226800  1
