# generated using pymatgen
data_CaP4O11
_symmetry_space_group_name_H-M   'P 1'
_cell_length_a   12.36386000
_cell_length_b   12.82275600
_cell_length_c   12.94889500
_cell_angle_alpha   90.00000000
_cell_angle_beta   90.00000000
_cell_angle_gamma   90.00000000
_symmetry_Int_Tables_number   1
_chemical_formula_structural   CaP4O11
_chemical_formula_sum   'Ca8 P32 O88'
_cell_volume   2052.90175665
_cell_formula_units_Z   8
loop_
 _symmetry_equiv_pos_site_id
 _symmetry_equiv_pos_as_xyz
  1  'x, y, z'
loop_
 _atom_site_type_symbol
 _atom_site_label
 _atom_site_symmetry_multiplicity
 _atom_site_fract_x
 _atom_site_fract_y
 _atom_site_fract_z
 _atom_site_occupancy
  Ca  Ca0  1  0.73289100  0.00000000  0.96950800  1
  Ca  Ca1  1  0.76710900  0.00000000  0.46950800  1
  Ca  Ca2  1  0.23289100  0.00000000  0.53049200  1
  Ca  Ca3  1  0.26710900  0.00000000  0.03049200  1
  Ca  Ca4  1  0.23289100  0.50000000  0.96950800  1
  Ca  Ca5  1  0.26710900  0.50000000  0.46950800  1
  Ca  Ca6  1  0.73289100  0.50000000  0.53049200  1
  Ca  Ca7  1  0.76710900  0.50000000  0.03049200  1
  P  P8  1  0.40443900  0.00000000  0.28891200  1
  P  P9  1  0.50000000  0.17848300  0.00000000  1
  P  P10  1  0.43924250  0.82625750  0.66234200  1
  P  P11  1  0.43924250  0.32625750  0.83765800  1
  P  P12  1  0.56075750  0.82625750  0.33765800  1
  P  P13  1  0.56075750  0.17374250  0.33765800  1
  P  P14  1  0.50000000  0.82151700  0.00000000  1
  P  P15  1  0.43924250  0.17374250  0.66234200  1
  P  P16  1  0.59556100  0.00000000  0.71108800  1
  P  P17  1  0.43924250  0.67374250  0.83765800  1
  P  P18  1  0.56075750  0.32625750  0.16234200  1
  P  P19  1  0.50000000  0.67848300  0.50000000  1
  P  P20  1  0.56075750  0.67374250  0.16234200  1
  P  P21  1  0.90443900  0.00000000  0.21108800  1
  P  P22  1  0.50000000  0.32151700  0.50000000  1
  P  P23  1  0.09556100  0.00000000  0.78891200  1
  P  P24  1  0.90443900  0.50000000  0.28891200  1
  P  P25  1  0.00000000  0.67848300  0.00000000  1
  P  P26  1  0.93924250  0.32625750  0.66234200  1
  P  P27  1  0.93924250  0.82625750  0.83765800  1
  P  P28  1  0.06075750  0.32625750  0.33765800  1
  P  P29  1  0.06075750  0.67374250  0.33765800  1
  P  P30  1  0.00000000  0.32151700  0.00000000  1
  P  P31  1  0.93924250  0.67374250  0.66234200  1
  P  P32  1  0.09556100  0.50000000  0.71108800  1
  P  P33  1  0.93924250  0.17374250  0.83765800  1
  P  P34  1  0.06075750  0.82625750  0.16234200  1
  P  P35  1  0.00000000  0.17848300  0.50000000  1
  P  P36  1  0.06075750  0.17374250  0.16234200  1
  P  P37  1  0.40443900  0.50000000  0.21108800  1
  P  P38  1  0.00000000  0.82151700  0.50000000  1
  P  P39  1  0.59556100  0.50000000  0.78891200  1
  O  O40  1  0.39518700  0.37422600  0.51875200  1
  O  O41  1  0.60481300  0.37422600  0.48124800  1
  O  O42  1  0.35000850  0.87419850  0.60456700  1
  O  O43  1  0.48718650  0.90093750  0.27204600  1
  O  O44  1  0.52268100  0.26076700  0.90371800  1
  O  O45  1  0.64999150  0.12580150  0.39543300  1
  O  O46  1  0.36138100  0.00000000  0.39581200  1
  O  O47  1  0.60594400  0.75000000  0.25000000  1
  O  O48  1  0.85000850  0.87419850  0.89543300  1
  O  O49  1  0.60481300  0.12577400  0.01875200  1
  O  O50  1  0.52268100  0.76076700  0.59628200  1
  O  O51  1  0.13861900  0.00000000  0.89581200  1
  O  O52  1  0.86138100  0.00000000  0.10418800  1
  O  O53  1  0.39518700  0.87422600  0.98124800  1
  O  O54  1  0.60481300  0.87422600  0.01875200  1
  O  O55  1  0.83610700  0.00000000  0.30474200  1
  O  O56  1  0.39405600  0.25000000  0.75000000  1
  O  O57  1  0.63861900  0.00000000  0.60418800  1
  O  O58  1  0.51281350  0.09906250  0.72795400  1
  O  O59  1  0.48718650  0.09906250  0.27204600  1
  O  O60  1  0.51281350  0.40093750  0.77204600  1
  O  O61  1  0.33610700  0.00000000  0.19525800  1
  O  O62  1  0.85000850  0.12580150  0.89543300  1
  O  O63  1  0.16389300  0.00000000  0.69525800  1
  O  O64  1  0.47731900  0.23923300  0.40371800  1
  O  O65  1  0.14999150  0.12580150  0.10456700  1
  O  O66  1  0.52268100  0.23923300  0.59628200  1
  O  O67  1  0.47731900  0.26076700  0.09628200  1
  O  O68  1  0.66389300  0.00000000  0.80474200  1
  O  O69  1  0.39518700  0.62577400  0.51875200  1
  O  O70  1  0.47731900  0.73923300  0.09628200  1
  O  O71  1  0.39405600  0.75000000  0.75000000  1
  O  O72  1  0.51281350  0.59906250  0.77204600  1
  O  O73  1  0.64999150  0.87419850  0.39543300  1
  O  O74  1  0.60481300  0.62577400  0.48124800  1
  O  O75  1  0.52268100  0.73923300  0.90371800  1
  O  O76  1  0.60594400  0.25000000  0.25000000  1
  O  O77  1  0.39518700  0.12577400  0.98124800  1
  O  O78  1  0.35000850  0.12580150  0.60456700  1
  O  O79  1  0.47731900  0.76076700  0.40371800  1
  O  O80  1  0.14999150  0.87419850  0.10456700  1
  O  O81  1  0.51281350  0.90093750  0.72795400  1
  O  O82  1  0.48718650  0.59906250  0.22795400  1
  O  O83  1  0.48718650  0.40093750  0.22795400  1
  O  O84  1  0.89518700  0.87422600  0.51875200  1
  O  O85  1  0.10481300  0.87422600  0.48124800  1
  O  O86  1  0.85000850  0.37419850  0.60456700  1
  O  O87  1  0.98718650  0.40093750  0.27204600  1
  O  O88  1  0.02268100  0.76076700  0.90371800  1
  O  O89  1  0.14999150  0.62580150  0.39543300  1
  O  O90  1  0.86138100  0.50000000  0.39581200  1
  O  O91  1  0.10594400  0.25000000  0.25000000  1
  O  O92  1  0.35000850  0.37419850  0.89543300  1
  O  O93  1  0.10481300  0.62577400  0.01875200  1
  O  O94  1  0.02268100  0.26076700  0.59628200  1
  O  O95  1  0.63861900  0.50000000  0.89581200  1
  O  O96  1  0.36138100  0.50000000  0.10418800  1
  O  O97  1  0.89518700  0.37422600  0.98124800  1
  O  O98  1  0.10481300  0.37422600  0.01875200  1
  O  O99  1  0.33610700  0.50000000  0.30474200  1
  O  O100  1  0.89405600  0.75000000  0.75000000  1
  O  O101  1  0.13861900  0.50000000  0.60418800  1
  O  O102  1  0.01281350  0.59906250  0.72795400  1
  O  O103  1  0.98718650  0.59906250  0.27204600  1
  O  O104  1  0.01281350  0.90093750  0.77204600  1
  O  O105  1  0.83610700  0.50000000  0.19525800  1
  O  O106  1  0.35000850  0.62580150  0.89543300  1
  O  O107  1  0.66389300  0.50000000  0.69525800  1
  O  O108  1  0.97731900  0.73923300  0.40371800  1
  O  O109  1  0.64999150  0.62580150  0.10456700  1
  O  O110  1  0.02268100  0.73923300  0.59628200  1
  O  O111  1  0.97731900  0.76076700  0.09628200  1
  O  O112  1  0.16389300  0.50000000  0.80474200  1
  O  O113  1  0.89518700  0.12577400  0.51875200  1
  O  O114  1  0.97731900  0.23923300  0.09628200  1
  O  O115  1  0.89405600  0.25000000  0.75000000  1
  O  O116  1  0.01281350  0.09906250  0.77204600  1
  O  O117  1  0.14999150  0.37419850  0.39543300  1
  O  O118  1  0.10481300  0.12577400  0.48124800  1
  O  O119  1  0.02268100  0.23923300  0.90371800  1
  O  O120  1  0.10594400  0.75000000  0.25000000  1
  O  O121  1  0.89518700  0.62577400  0.98124800  1
  O  O122  1  0.85000850  0.62580150  0.60456700  1
  O  O123  1  0.97731900  0.26076700  0.40371800  1
  O  O124  1  0.64999150  0.37419850  0.10456700  1
  O  O125  1  0.01281350  0.40093750  0.72795400  1
  O  O126  1  0.98718650  0.09906250  0.22795400  1
  O  O127  1  0.98718650  0.90093750  0.22795400  1
