# generated using pymatgen
data_CsTbZnSe3
_symmetry_space_group_name_H-M   'P 1'
_cell_length_a   4.19098400
_cell_length_b   16.19477200
_cell_length_c   11.04530600
_cell_angle_alpha   90.00000000
_cell_angle_beta   90.00000000
_cell_angle_gamma   90.00000000
_symmetry_Int_Tables_number   1
_chemical_formula_structural   CsTbZnSe3
_chemical_formula_sum   'Cs4 Tb4 Zn4 Se12'
_cell_volume   749.66734390
_cell_formula_units_Z   4
loop_
 _symmetry_equiv_pos_site_id
 _symmetry_equiv_pos_as_xyz
  1  'x, y, z'
loop_
 _atom_site_type_symbol
 _atom_site_label
 _atom_site_symmetry_multiplicity
 _atom_site_fract_x
 _atom_site_fract_y
 _atom_site_fract_z
 _atom_site_occupancy
  Cs  Cs0  1  0.00000000  0.25778400  0.75000000  1
  Cs  Cs1  1  0.50000000  0.24221600  0.25000000  1
  Cs  Cs2  1  0.50000000  0.75778400  0.75000000  1
  Cs  Cs3  1  0.00000000  0.74221600  0.25000000  1
  Tb  Tb4  1  0.00000000  0.00000000  0.00000000  1
  Tb  Tb5  1  0.00000000  0.00000000  0.50000000  1
  Tb  Tb6  1  0.50000000  0.50000000  0.00000000  1
  Tb  Tb7  1  0.50000000  0.50000000  0.50000000  1
  Zn  Zn8  1  0.50000000  0.03900300  0.75000000  1
  Zn  Zn9  1  0.00000000  0.46099700  0.25000000  1
  Zn  Zn10  1  0.00000000  0.53900300  0.75000000  1
  Zn  Zn11  1  0.50000000  0.96099700  0.25000000  1
  Se  Se12  1  0.00000000  0.38308600  0.44056200  1
  Se  Se13  1  0.50000000  0.44528900  0.75000000  1
  Se  Se14  1  0.50000000  0.11691400  0.55943800  1
  Se  Se15  1  0.00000000  0.05471100  0.25000000  1
  Se  Se16  1  0.00000000  0.38308600  0.05943800  1
  Se  Se17  1  0.50000000  0.11691400  0.94056200  1
  Se  Se18  1  0.50000000  0.88308600  0.44056200  1
  Se  Se19  1  0.00000000  0.94528900  0.75000000  1
  Se  Se20  1  0.00000000  0.61691400  0.55943800  1
  Se  Se21  1  0.50000000  0.55471100  0.25000000  1
  Se  Se22  1  0.50000000  0.88308600  0.05943800  1
  Se  Se23  1  0.00000000  0.61691400  0.94056200  1
