# generated using pymatgen
data_FeH12Pt(ClO)6
_symmetry_space_group_name_H-M   'P 1'
_cell_length_a   10.77367015
_cell_length_b   10.77367015
_cell_length_c   10.89326661
_cell_angle_alpha   90.00000000
_cell_angle_beta   90.00000000
_cell_angle_gamma   120.00000000
_symmetry_Int_Tables_number   1
_chemical_formula_structural   FeH12Pt(ClO)6
_chemical_formula_sum   'Fe3 H36 Pt3 Cl18 O18'
_cell_volume   1095.00503041
_cell_formula_units_Z   3
loop_
 _symmetry_equiv_pos_site_id
 _symmetry_equiv_pos_as_xyz
  1  'x, y, z'
loop_
 _atom_site_type_symbol
 _atom_site_label
 _atom_site_symmetry_multiplicity
 _atom_site_fract_x
 _atom_site_fract_y
 _atom_site_fract_z
 _atom_site_occupancy
  Fe  Fe0  1  0.33333333  0.66666667  0.16666667  1
  Fe  Fe1  1  1.00000000  0.00000000  0.50000000  1
  Fe  Fe2  1  0.66666667  0.33333333  0.83333333  1
  H  H3  1  0.42175617  0.48976633  0.27550533  1
  H  H4  1  0.59865650  0.75508950  0.05782800  1
  H  H5  1  0.15643300  0.40134350  0.05782800  1
  H  H6  1  0.06801017  0.57824383  0.27550533  1
  H  H7  1  0.51023367  0.93198983  0.27550533  1
  H  H8  1  0.24491050  0.84356700  0.05782800  1
  H  H9  1  0.18618300  0.69277100  0.36511500  1
  H  H10  1  0.48048367  0.64056233  0.96821833  1
  H  H11  1  0.35943767  0.83992133  0.96821833  1
  H  H12  1  0.16007867  0.51951633  0.96821833  1
  H  H13  1  0.30722900  0.49341200  0.36511500  1
  H  H14  1  0.50658800  0.81381700  0.36511500  1
  H  H15  1  0.08842283  0.82309967  0.60883867  1
  H  H16  1  0.26532317  0.08842283  0.39116133  1
  H  H17  1  0.82309967  0.73467683  0.39116133  1
  H  H18  1  0.73467683  0.91157717  0.60883867  1
  H  H19  1  0.17690033  0.26532317  0.60883867  1
  H  H20  1  0.91157717  0.17690033  0.39116133  1
  H  H21  1  0.85284967  0.02610433  0.69844833  1
  H  H22  1  0.14715033  0.97389567  0.30155167  1
  H  H23  1  0.02610433  0.17325467  0.30155167  1
  H  H24  1  0.82674533  0.85284967  0.30155167  1
  H  H25  1  0.97389567  0.82674533  0.69844833  1
  H  H26  1  0.17325467  0.14715033  0.69844833  1
  H  H27  1  0.75508950  0.15643300  0.94217200  1
  H  H28  1  0.93198983  0.42175617  0.72449467  1
  H  H29  1  0.48976633  0.06801017  0.72449467  1
  H  H30  1  0.40134350  0.24491050  0.94217200  1
  H  H31  1  0.84356700  0.59865650  0.94217200  1
  H  H32  1  0.57824383  0.51023367  0.72449467  1
  H  H33  1  0.51951633  0.35943767  0.03178167  1
  H  H34  1  0.81381700  0.30722900  0.63488500  1
  H  H35  1  0.69277100  0.50658800  0.63488500  1
  H  H36  1  0.49341200  0.18618300  0.63488500  1
  H  H37  1  0.64056233  0.16007867  0.03178167  1
  H  H38  1  0.83992133  0.48048367  0.03178167  1
  Pt  Pt39  1  0.33333333  0.66666667  0.66666667  1
  Pt  Pt40  1  1.00000000  0.00000000  0.00000000  1
  Pt  Pt41  1  0.66666667  0.33333333  0.33333333  1
  Cl  Cl42  1  0.14994467  0.19861533  0.12385033  1
  Cl  Cl43  1  0.86528200  0.38200400  0.20948300  1
  Cl  Cl44  1  0.80138467  0.95132933  0.12385033  1
  Cl  Cl45  1  0.04867067  0.85005533  0.12385033  1
  Cl  Cl46  1  0.51672200  0.13471800  0.20948300  1
  Cl  Cl47  1  0.61799600  0.48327800  0.20948300  1
  Cl  Cl48  1  0.81661133  0.53194867  0.45718367  1
  Cl  Cl49  1  0.53194867  0.71533733  0.54281633  1
  Cl  Cl50  1  0.46805133  0.28466267  0.45718367  1
  Cl  Cl51  1  0.71533733  0.18338867  0.45718367  1
  Cl  Cl52  1  0.18338867  0.46805133  0.54281633  1
  Cl  Cl53  1  0.28466267  0.81661133  0.54281633  1
  Cl  Cl54  1  0.48327800  0.86528200  0.79051700  1
  Cl  Cl55  1  0.19861533  0.04867067  0.87614967  1
  Cl  Cl56  1  0.13471800  0.61799600  0.79051700  1
  Cl  Cl57  1  0.38200400  0.51672200  0.79051700  1
  Cl  Cl58  1  0.85005533  0.80138467  0.87614967  1
  Cl  Cl59  1  0.95132933  0.14994467  0.87614967  1
  O  O60  1  0.49384667  0.83250833  0.27882233  1
  O  O61  1  0.17282000  0.50082500  0.05451100  1
  O  O62  1  0.32800500  0.82718000  0.05451100  1
  O  O63  1  0.49917500  0.67199500  0.05451100  1
  O  O64  1  0.16749167  0.66133833  0.27882233  1
  O  O65  1  0.33866167  0.50615333  0.27882233  1
  O  O66  1  0.16051333  0.16584167  0.61215567  1
  O  O67  1  0.83948667  0.83415833  0.38784433  1
  O  O68  1  0.99467167  0.16051333  0.38784433  1
  O  O69  1  0.16584167  0.00532833  0.38784433  1
  O  O70  1  0.83415833  0.99467167  0.61215567  1
  O  O71  1  0.00532833  0.83948667  0.61215567  1
  O  O72  1  0.82718000  0.49917500  0.94548900  1
  O  O73  1  0.50615333  0.16749167  0.72117767  1
  O  O74  1  0.66133833  0.49384667  0.72117767  1
  O  O75  1  0.83250833  0.33866167  0.72117767  1
  O  O76  1  0.50082500  0.32800500  0.94548900  1
  O  O77  1  0.67199500  0.17282000  0.94548900  1
