# generated using pymatgen
data_KLi(PO3)2
_symmetry_space_group_name_H-M   'P 1'
_cell_length_a   13.95114600
_cell_length_b   14.02966400
_cell_length_c   12.01527554
_cell_angle_alpha   90.00000000
_cell_angle_beta   90.27315472
_cell_angle_gamma   90.00000000
_symmetry_Int_Tables_number   1
_chemical_formula_structural   KLi(PO3)2
_chemical_formula_sum   'K16 Li16 P32 O96'
_cell_volume   2351.72184436
_cell_formula_units_Z   16
loop_
 _symmetry_equiv_pos_site_id
 _symmetry_equiv_pos_as_xyz
  1  'x, y, z'
loop_
 _atom_site_type_symbol
 _atom_site_label
 _atom_site_symmetry_multiplicity
 _atom_site_fract_x
 _atom_site_fract_y
 _atom_site_fract_z
 _atom_site_occupancy
  K  K0  1  0.34508850  0.87619850  0.95571700  1
  K  K1  1  0.65491150  0.87619850  0.54428300  1
  K  K2  1  0.12741500  0.87390200  0.47127200  1
  K  K3  1  0.65491150  0.12380150  0.04428300  1
  K  K4  1  0.34508850  0.12380150  0.45571700  1
  K  K5  1  0.87258500  0.12609800  0.52872800  1
  K  K6  1  0.87258500  0.87390200  0.02872800  1
  K  K7  1  0.12741500  0.12609800  0.97127200  1
  K  K8  1  0.84508850  0.37619850  0.95571700  1
  K  K9  1  0.15491150  0.37619850  0.54428300  1
  K  K10  1  0.62741500  0.37390200  0.47127200  1
  K  K11  1  0.15491150  0.62380150  0.04428300  1
  K  K12  1  0.84508850  0.62380150  0.45571700  1
  K  K13  1  0.37258500  0.62609800  0.52872800  1
  K  K14  1  0.37258500  0.37390200  0.02872800  1
  K  K15  1  0.62741500  0.62609800  0.97127200  1
  Li  Li16  1  0.30803950  0.08014150  0.12758700  1
  Li  Li17  1  0.43067350  0.31334450  0.56784500  1
  Li  Li18  1  0.56932650  0.31334450  0.93215500  1
  Li  Li19  1  0.69196050  0.91985850  0.87241300  1
  Li  Li20  1  0.69196050  0.08014150  0.37241300  1
  Li  Li21  1  0.30803950  0.91985850  0.62758700  1
  Li  Li22  1  0.43067350  0.68665550  0.06784500  1
  Li  Li23  1  0.56932650  0.68665550  0.43215500  1
  Li  Li24  1  0.80803950  0.58014150  0.12758700  1
  Li  Li25  1  0.93067350  0.81334450  0.56784500  1
  Li  Li26  1  0.06932650  0.81334450  0.93215500  1
  Li  Li27  1  0.19196050  0.41985850  0.87241300  1
  Li  Li28  1  0.19196050  0.58014150  0.37241300  1
  Li  Li29  1  0.80803950  0.41985850  0.62758700  1
  Li  Li30  1  0.93067350  0.18665550  0.06784500  1
  Li  Li31  1  0.06932650  0.18665550  0.43215500  1
  P  P32  1  0.50000000  0.01981100  0.25000000  1
  P  P33  1  0.50000000  0.46567400  0.75000000  1
  P  P34  1  0.57951400  0.86899100  0.09897500  1
  P  P35  1  0.29130900  0.23933200  0.75178000  1
  P  P36  1  0.42048600  0.86899100  0.40102500  1
  P  P37  1  0.57951400  0.13100900  0.59897500  1
  P  P38  1  0.70869100  0.76066800  0.24822000  1
  P  P39  1  0.29130900  0.76066800  0.25178000  1
  P  P40  1  0.84955150  0.90342450  0.33673200  1
  P  P41  1  0.15044850  0.90342450  0.16326800  1
  P  P42  1  0.50000000  0.98018900  0.75000000  1
  P  P43  1  0.70869100  0.23933200  0.74822000  1
  P  P44  1  0.84955150  0.09657550  0.83673200  1
  P  P45  1  0.50000000  0.53432600  0.25000000  1
  P  P46  1  0.15044850  0.09657550  0.66326800  1
  P  P47  1  0.42048600  0.13100900  0.90102500  1
  P  P48  1  0.00000000  0.51981100  0.25000000  1
  P  P49  1  0.00000000  0.96567400  0.75000000  1
  P  P50  1  0.07951400  0.36899100  0.09897500  1
  P  P51  1  0.79130900  0.73933200  0.75178000  1
  P  P52  1  0.92048600  0.36899100  0.40102500  1
  P  P53  1  0.07951400  0.63100900  0.59897500  1
  P  P54  1  0.20869100  0.26066800  0.24822000  1
  P  P55  1  0.79130900  0.26066800  0.25178000  1
  P  P56  1  0.34955150  0.40342450  0.33673200  1
  P  P57  1  0.65044850  0.40342450  0.16326800  1
  P  P58  1  0.00000000  0.48018900  0.75000000  1
  P  P59  1  0.20869100  0.73933200  0.74822000  1
  P  P60  1  0.34955150  0.59657550  0.83673200  1
  P  P61  1  0.00000000  0.03432600  0.25000000  1
  P  P62  1  0.65044850  0.59657550  0.66326800  1
  P  P63  1  0.92048600  0.63100900  0.90102500  1
  O  O64  1  0.90916550  0.03813450  0.74231800  1
  O  O65  1  0.49650400  0.94847500  0.35708900  1
  O  O66  1  0.09083450  0.96186550  0.25768200  1
  O  O67  1  0.38018000  0.16979700  0.78223200  1
  O  O68  1  0.69183100  0.72803500  0.36586300  1
  O  O69  1  0.59306900  0.07245100  0.25880600  1
  O  O70  1  0.61982000  0.83020300  0.21776800  1
  O  O71  1  0.22511050  0.80904750  0.65607000  1
  O  O72  1  0.49891000  0.41440800  0.85905800  1
  O  O73  1  0.59306900  0.92754900  0.75880600  1
  O  O74  1  0.77488950  0.19095250  0.34393000  1
  O  O75  1  0.90916550  0.96186550  0.24231800  1
  O  O76  1  0.50349600  0.05152500  0.64291100  1
  O  O77  1  0.41597250  0.34859450  0.41104300  1
  O  O78  1  0.34139850  0.91675650  0.46465200  1
  O  O79  1  0.30816900  0.72803500  0.13413700  1
  O  O80  1  0.69183100  0.27196500  0.86586300  1
  O  O81  1  0.34139850  0.08324350  0.96465200  1
  O  O82  1  0.77537950  0.96653350  0.38872800  1
  O  O83  1  0.22462050  0.96653350  0.11127200  1
  O  O84  1  0.49891000  0.58559200  0.35905800  1
  O  O85  1  0.30816900  0.27196500  0.63413700  1
  O  O86  1  0.58402750  0.34859450  0.08895700  1
  O  O87  1  0.80034000  0.83200400  0.24562500  1
  O  O88  1  0.49650400  0.05152500  0.85708900  1
  O  O89  1  0.52052300  0.20606700  0.54209900  1
  O  O90  1  0.19966000  0.16799600  0.75437500  1
  O  O91  1  0.65860150  0.08324350  0.53534800  1
  O  O92  1  0.50109000  0.41440800  0.64094200  1
  O  O93  1  0.77488950  0.80904750  0.84393000  1
  O  O94  1  0.52052300  0.79393300  0.04209900  1
  O  O95  1  0.22462050  0.03346650  0.61127200  1
  O  O96  1  0.50109000  0.58559200  0.14094200  1
  O  O97  1  0.22511050  0.19095250  0.15607000  1
  O  O98  1  0.47947700  0.20606700  0.95790100  1
  O  O99  1  0.40693100  0.07245100  0.24119400  1
  O  O100  1  0.19966000  0.83200400  0.25437500  1
  O  O101  1  0.41597250  0.65140550  0.91104300  1
  O  O102  1  0.61982000  0.16979700  0.71776800  1
  O  O103  1  0.77537950  0.03346650  0.88872800  1
  O  O104  1  0.50349600  0.94847500  0.14291100  1
  O  O105  1  0.58402750  0.65140550  0.58895700  1
  O  O106  1  0.65860150  0.91675650  0.03534800  1
  O  O107  1  0.80034000  0.16799600  0.74562500  1
  O  O108  1  0.09083450  0.03813450  0.75768200  1
  O  O109  1  0.47947700  0.79393300  0.45790100  1
  O  O110  1  0.40693100  0.92754900  0.74119400  1
  O  O111  1  0.38018000  0.83020300  0.28223200  1
  O  O112  1  0.40916550  0.53813450  0.74231800  1
  O  O113  1  0.99650400  0.44847500  0.35708900  1
  O  O114  1  0.59083450  0.46186550  0.25768200  1
  O  O115  1  0.88018000  0.66979700  0.78223200  1
  O  O116  1  0.19183100  0.22803500  0.36586300  1
  O  O117  1  0.09306900  0.57245100  0.25880600  1
  O  O118  1  0.11982000  0.33020300  0.21776800  1
  O  O119  1  0.72511050  0.30904750  0.65607000  1
  O  O120  1  0.99891000  0.91440800  0.85905800  1
  O  O121  1  0.09306900  0.42754900  0.75880600  1
  O  O122  1  0.27488950  0.69095250  0.34393000  1
  O  O123  1  0.40916550  0.46186550  0.24231800  1
  O  O124  1  0.00349600  0.55152500  0.64291100  1
  O  O125  1  0.91597250  0.84859450  0.41104300  1
  O  O126  1  0.84139850  0.41675650  0.46465200  1
  O  O127  1  0.80816900  0.22803500  0.13413700  1
  O  O128  1  0.19183100  0.77196500  0.86586300  1
  O  O129  1  0.84139850  0.58324350  0.96465200  1
  O  O130  1  0.27537950  0.46653350  0.38872800  1
  O  O131  1  0.72462050  0.46653350  0.11127200  1
  O  O132  1  0.99891000  0.08559200  0.35905800  1
  O  O133  1  0.80816900  0.77196500  0.63413700  1
  O  O134  1  0.08402750  0.84859450  0.08895700  1
  O  O135  1  0.30034000  0.33200400  0.24562500  1
  O  O136  1  0.99650400  0.55152500  0.85708900  1
  O  O137  1  0.02052300  0.70606700  0.54209900  1
  O  O138  1  0.69966000  0.66799600  0.75437500  1
  O  O139  1  0.15860150  0.58324350  0.53534800  1
  O  O140  1  0.00109000  0.91440800  0.64094200  1
  O  O141  1  0.27488950  0.30904750  0.84393000  1
  O  O142  1  0.02052300  0.29393300  0.04209900  1
  O  O143  1  0.72462050  0.53346650  0.61127200  1
  O  O144  1  0.00109000  0.08559200  0.14094200  1
  O  O145  1  0.72511050  0.69095250  0.15607000  1
  O  O146  1  0.97947700  0.70606700  0.95790100  1
  O  O147  1  0.90693100  0.57245100  0.24119400  1
  O  O148  1  0.69966000  0.33200400  0.25437500  1
  O  O149  1  0.91597250  0.15140550  0.91104300  1
  O  O150  1  0.11982000  0.66979700  0.71776800  1
  O  O151  1  0.27537950  0.53346650  0.88872800  1
  O  O152  1  0.00349600  0.44847500  0.14291100  1
  O  O153  1  0.08402750  0.15140550  0.58895700  1
  O  O154  1  0.15860150  0.41675650  0.03534800  1
  O  O155  1  0.30034000  0.66799600  0.74562500  1
  O  O156  1  0.59083450  0.53813450  0.75768200  1
  O  O157  1  0.97947700  0.29393300  0.45790100  1
  O  O158  1  0.90693100  0.42754900  0.74119400  1
  O  O159  1  0.88018000  0.33020300  0.28223200  1
