# generated using pymatgen
data_K3Bi2(AsO4)3
_symmetry_space_group_name_H-M   'P 1'
_cell_length_a   14.22785600
_cell_length_b   14.05122200
_cell_length_c   7.17743707
_cell_angle_alpha   90.00000000
_cell_angle_beta   114.73017159
_cell_angle_gamma   90.00000000
_symmetry_Int_Tables_number   1
_chemical_formula_structural   K3Bi2(AsO4)3
_chemical_formula_sum   'K12 Bi8 As12 O48'
_cell_volume   1303.30640294
_cell_formula_units_Z   4
loop_
 _symmetry_equiv_pos_site_id
 _symmetry_equiv_pos_as_xyz
  1  'x, y, z'
loop_
 _atom_site_type_symbol
 _atom_site_label
 _atom_site_symmetry_multiplicity
 _atom_site_fract_x
 _atom_site_fract_y
 _atom_site_fract_z
 _atom_site_occupancy
  K  K0  1  0.00000000  0.01385500  0.75000000  1
  K  K1  1  0.00000000  0.72411800  0.25000000  1
  K  K2  1  0.00000000  0.27588200  0.75000000  1
  K  K3  1  0.00000000  0.50000000  0.00000000  1
  K  K4  1  0.00000000  0.98614500  0.25000000  1
  K  K5  1  0.00000000  0.50000000  0.50000000  1
  K  K6  1  0.50000000  0.51385500  0.75000000  1
  K  K7  1  0.50000000  0.22411800  0.25000000  1
  K  K8  1  0.50000000  0.77588200  0.75000000  1
  K  K9  1  0.50000000  0.00000000  0.00000000  1
  K  K10  1  0.50000000  0.48614500  0.25000000  1
  K  K11  1  0.50000000  0.00000000  0.50000000  1
  Bi  Bi12  1  0.26402350  0.64805050  0.83432900  1
  Bi  Bi13  1  0.26402350  0.35194950  0.33432900  1
  Bi  Bi14  1  0.73597650  0.64805050  0.66567100  1
  Bi  Bi15  1  0.73597650  0.35194950  0.16567100  1
  Bi  Bi16  1  0.76402350  0.14805050  0.83432900  1
  Bi  Bi17  1  0.76402350  0.85194950  0.33432900  1
  Bi  Bi18  1  0.23597650  0.14805050  0.66567100  1
  Bi  Bi19  1  0.23597650  0.85194950  0.16567100  1
  As  As20  1  0.25557150  0.39422550  0.86074000  1
  As  As21  1  0.74442850  0.60577450  0.13926000  1
  As  As22  1  0.00000000  0.75380400  0.75000000  1
  As  As23  1  0.74442850  0.39422550  0.63926000  1
  As  As24  1  0.25557150  0.60577450  0.36074000  1
  As  As25  1  0.00000000  0.24619600  0.25000000  1
  As  As26  1  0.75557150  0.89422550  0.86074000  1
  As  As27  1  0.24442850  0.10577450  0.13926000  1
  As  As28  1  0.50000000  0.25380400  0.75000000  1
  As  As29  1  0.24442850  0.89422550  0.63926000  1
  As  As30  1  0.75557150  0.10577450  0.36074000  1
  As  As31  1  0.50000000  0.74619600  0.25000000  1
  O  O32  1  0.85758900  0.43295800  0.63947500  1
  O  O33  1  0.23228700  0.68405800  0.15571900  1
  O  O34  1  0.76771300  0.31594200  0.84428100  1
  O  O35  1  0.07496550  0.68268150  0.67259000  1
  O  O36  1  0.14241100  0.56704200  0.36052500  1
  O  O37  1  0.23228700  0.31594200  0.65571900  1
  O  O38  1  0.32745050  0.66441550  0.59098900  1
  O  O39  1  0.32745050  0.33558450  0.09098900  1
  O  O40  1  0.93310450  0.16817650  0.04801200  1
  O  O41  1  0.67042800  0.51346000  0.16245500  1
  O  O42  1  0.92503450  0.68268150  0.82741000  1
  O  O43  1  0.93310450  0.83182350  0.54801200  1
  O  O44  1  0.32957200  0.48654000  0.83754500  1
  O  O45  1  0.32957200  0.51346000  0.33754500  1
  O  O46  1  0.85758900  0.56704200  0.13947500  1
  O  O47  1  0.67254950  0.66441550  0.90901100  1
  O  O48  1  0.67254950  0.33558450  0.40901100  1
  O  O49  1  0.76771300  0.68405800  0.34428100  1
  O  O50  1  0.07496550  0.31731850  0.17259000  1
  O  O51  1  0.06689550  0.16817650  0.45198800  1
  O  O52  1  0.06689550  0.83182350  0.95198800  1
  O  O53  1  0.92503450  0.31731850  0.32741000  1
  O  O54  1  0.67042800  0.48654000  0.66245500  1
  O  O55  1  0.14241100  0.43295800  0.86052500  1
  O  O56  1  0.35758900  0.93295800  0.63947500  1
  O  O57  1  0.73228700  0.18405800  0.15571900  1
  O  O58  1  0.26771300  0.81594200  0.84428100  1
  O  O59  1  0.57496550  0.18268150  0.67259000  1
  O  O60  1  0.64241100  0.06704200  0.36052500  1
  O  O61  1  0.73228700  0.81594200  0.65571900  1
  O  O62  1  0.82745050  0.16441550  0.59098900  1
  O  O63  1  0.82745050  0.83558450  0.09098900  1
  O  O64  1  0.43310450  0.66817650  0.04801200  1
  O  O65  1  0.17042800  0.01346000  0.16245500  1
  O  O66  1  0.42503450  0.18268150  0.82741000  1
  O  O67  1  0.43310450  0.33182350  0.54801200  1
  O  O68  1  0.82957200  0.98654000  0.83754500  1
  O  O69  1  0.82957200  0.01346000  0.33754500  1
  O  O70  1  0.35758900  0.06704200  0.13947500  1
  O  O71  1  0.17254950  0.16441550  0.90901100  1
  O  O72  1  0.17254950  0.83558450  0.40901100  1
  O  O73  1  0.26771300  0.18405800  0.34428100  1
  O  O74  1  0.57496550  0.81731850  0.17259000  1
  O  O75  1  0.56689550  0.66817650  0.45198800  1
  O  O76  1  0.56689550  0.33182350  0.95198800  1
  O  O77  1  0.42503450  0.81731850  0.32741000  1
  O  O78  1  0.17042800  0.98654000  0.66245500  1
  O  O79  1  0.64241100  0.93295800  0.86052500  1
