# generated using pymatgen
data_LiHo(PO3)4
_symmetry_space_group_name_H-M   'P 1'
_cell_length_a   16.40504400
_cell_length_b   7.11780000
_cell_length_c   9.65152282
_cell_angle_alpha   90.00000000
_cell_angle_beta   125.98933315
_cell_angle_gamma   90.00000000
_symmetry_Int_Tables_number   1
_chemical_formula_structural   LiHo(PO3)4
_chemical_formula_sum   'Li4 Ho4 P16 O48'
_cell_volume   911.87518731
_cell_formula_units_Z   4
loop_
 _symmetry_equiv_pos_site_id
 _symmetry_equiv_pos_as_xyz
  1  'x, y, z'
loop_
 _atom_site_type_symbol
 _atom_site_label
 _atom_site_symmetry_multiplicity
 _atom_site_fract_x
 _atom_site_fract_y
 _atom_site_fract_z
 _atom_site_occupancy
  Li  Li0  1  0.00000000  0.70623100  0.25000000  1
  Li  Li1  1  0.00000000  0.29376900  0.75000000  1
  Li  Li2  1  0.50000000  0.20623100  0.25000000  1
  Li  Li3  1  0.50000000  0.79376900  0.75000000  1
  Ho  Ho4  1  0.00000000  0.20303800  0.25000000  1
  Ho  Ho5  1  0.00000000  0.79696200  0.75000000  1
  Ho  Ho6  1  0.50000000  0.70303800  0.25000000  1
  Ho  Ho7  1  0.50000000  0.29696200  0.75000000  1
  P  P8  1  0.86311450  0.44904150  0.38395700  1
  P  P9  1  0.14567750  0.14974350  0.69397400  1
  P  P10  1  0.35432250  0.64974350  0.80602600  1
  P  P11  1  0.64567750  0.35025650  0.19397400  1
  P  P12  1  0.36311450  0.05095850  0.88395700  1
  P  P13  1  0.13688550  0.55095850  0.61604300  1
  P  P14  1  0.63688550  0.94904150  0.11604300  1
  P  P15  1  0.85432250  0.85025650  0.30602600  1
  P  P16  1  0.36311450  0.94904150  0.38395700  1
  P  P17  1  0.64567750  0.64974350  0.69397400  1
  P  P18  1  0.85432250  0.14974350  0.80602600  1
  P  P19  1  0.14567750  0.85025650  0.19397400  1
  P  P20  1  0.86311450  0.55095850  0.88395700  1
  P  P21  1  0.63688550  0.05095850  0.61604300  1
  P  P22  1  0.13688550  0.44904150  0.11604300  1
  P  P23  1  0.35432250  0.35025650  0.30602600  1
  O  O24  1  0.84385700  0.62701700  0.26589400  1
  O  O25  1  0.06589200  0.49729900  0.92818800  1
  O  O26  1  0.07132500  0.91785700  0.22596500  1
  O  O27  1  0.34385700  0.87298300  0.76589400  1
  O  O28  1  0.88837950  0.28724950  0.31587600  1
  O  O29  1  0.87422000  0.88286200  0.47675200  1
  O  O30  1  0.62578000  0.38286200  0.02324800  1
  O  O31  1  0.38837950  0.21275050  0.81587600  1
  O  O32  1  0.61162050  0.78724950  0.18412400  1
  O  O33  1  0.92867500  0.08214300  0.77403500  1
  O  O34  1  0.75493800  0.42147900  0.34911400  1
  O  O35  1  0.65614300  0.12701700  0.23410600  1
  O  O36  1  0.93410800  0.49729900  0.57181200  1
  O  O37  1  0.92867500  0.91785700  0.27403500  1
  O  O38  1  0.37422000  0.61713800  0.97675200  1
  O  O39  1  0.11162050  0.71275050  0.68412400  1
  O  O40  1  0.93410800  0.50270100  0.07181200  1
  O  O41  1  0.24506200  0.57852100  0.65088600  1
  O  O42  1  0.07132500  0.08214300  0.72596500  1
  O  O43  1  0.74506200  0.92147900  0.15088600  1
  O  O44  1  0.25493800  0.07852100  0.84911400  1
  O  O45  1  0.06589200  0.50270100  0.42818800  1
  O  O46  1  0.12578000  0.11713800  0.52324800  1
  O  O47  1  0.15614300  0.37298300  0.73410600  1
  O  O48  1  0.34385700  0.12701700  0.26589400  1
  O  O49  1  0.56589200  0.99729900  0.92818800  1
  O  O50  1  0.57132500  0.41785700  0.22596500  1
  O  O51  1  0.84385700  0.37298300  0.76589400  1
  O  O52  1  0.38837950  0.78724950  0.31587600  1
  O  O53  1  0.37422000  0.38286200  0.47675200  1
  O  O54  1  0.12578000  0.88286200  0.02324800  1
  O  O55  1  0.88837950  0.71275050  0.81587600  1
  O  O56  1  0.11162050  0.28724950  0.18412400  1
  O  O57  1  0.42867500  0.58214300  0.77403500  1
  O  O58  1  0.25493800  0.92147900  0.34911400  1
  O  O59  1  0.15614300  0.62701700  0.23410600  1
  O  O60  1  0.43410800  0.99729900  0.57181200  1
  O  O61  1  0.42867500  0.41785700  0.27403500  1
  O  O62  1  0.87422000  0.11713800  0.97675200  1
  O  O63  1  0.61162050  0.21275050  0.68412400  1
  O  O64  1  0.43410800  0.00270100  0.07181200  1
  O  O65  1  0.74506200  0.07852100  0.65088600  1
  O  O66  1  0.57132500  0.58214300  0.72596500  1
  O  O67  1  0.24506200  0.42147900  0.15088600  1
  O  O68  1  0.75493800  0.57852100  0.84911400  1
  O  O69  1  0.56589200  0.00270100  0.42818800  1
  O  O70  1  0.62578000  0.61713800  0.52324800  1
  O  O71  1  0.65614300  0.87298300  0.73410600  1
