# generated using pymatgen
data_Zn2Si3Pb4SO15
_symmetry_space_group_name_H-M   'P 1'
_cell_length_a   11.50292300
_cell_length_b   5.33115400
_cell_length_c   12.80522824
_cell_angle_alpha   90.00000000
_cell_angle_beta   107.99657907
_cell_angle_gamma   90.00000000
_symmetry_Int_Tables_number   1
_chemical_formula_structural   Zn2Si3Pb4SO15
_chemical_formula_sum   'Zn4 Si6 Pb8 S2 O30'
_cell_volume   746.84678262
_cell_formula_units_Z   2
loop_
 _symmetry_equiv_pos_site_id
 _symmetry_equiv_pos_as_xyz
  1  'x, y, z'
loop_
 _atom_site_type_symbol
 _atom_site_label
 _atom_site_symmetry_multiplicity
 _atom_site_fract_x
 _atom_site_fract_y
 _atom_site_fract_z
 _atom_site_occupancy
  Zn  Zn0  1  0.36068700  0.98138900  0.38701000  1
  Zn  Zn1  1  0.07903400  0.00993200  0.64573200  1
  Zn  Zn2  1  0.92096600  0.50993200  0.35426800  1
  Zn  Zn3  1  0.63931300  0.48138900  0.61299000  1
  Si  Si4  1  0.63867600  0.55882600  0.18369400  1
  Si  Si5  1  0.07734600  0.02093300  0.37570600  1
  Si  Si6  1  0.92265400  0.52093300  0.62429400  1
  Si  Si7  1  0.36132400  0.05882600  0.81630600  1
  Si  Si8  1  0.51442800  0.98245100  0.65551600  1
  Si  Si9  1  0.48557200  0.48245100  0.34448400  1
  Pb  Pb10  1  0.26795500  0.38539300  0.56305200  1
  Pb  Pb11  1  0.73204500  0.88539300  0.43694800  1
  Pb  Pb12  1  0.54330000  0.54611200  0.88677200  1
  Pb  Pb13  1  0.81548400  0.01947000  0.12835900  1
  Pb  Pb14  1  0.45670000  0.04611200  0.11322800  1
  Pb  Pb15  1  0.15258500  0.50328900  0.21743800  1
  Pb  Pb16  1  0.84741500  0.00328900  0.78256200  1
  Pb  Pb17  1  0.18451600  0.51947000  0.87164100  1
  S  S18  1  0.85266800  0.49129600  0.96730200  1
  S  S19  1  0.14733200  0.99129600  0.03269800  1
  O  O20  1  0.21682100  0.23085400  0.06954600  1
  O  O21  1  0.80705000  0.63403400  0.66153800  1
  O  O22  1  0.05047000  0.67075700  0.68963900  1
  O  O23  1  0.65428900  0.26327700  0.15980100  1
  O  O24  1  0.39997400  0.06852700  0.54758500  1
  O  O25  1  0.19295000  0.13403400  0.33846200  1
  O  O26  1  0.23617900  0.77635000  0.07053400  1
  O  O27  1  0.47745100  0.09198000  0.76400600  1
  O  O28  1  0.88661000  0.58930900  0.49222700  1
  O  O29  1  0.35815200  0.62234700  0.34601100  1
  O  O30  1  0.76095500  0.68581900  0.27261100  1
  O  O31  1  0.34571100  0.76327700  0.84019900  1
  O  O32  1  0.06264800  0.71819100  0.35094200  1
  O  O33  1  0.95305500  0.46847800  0.91930100  1
  O  O34  1  0.52254900  0.59198000  0.23599400  1
  O  O35  1  0.93735200  0.21819100  0.64905800  1
  O  O36  1  0.60002600  0.56852700  0.45241500  1
  O  O37  1  0.94953000  0.17075700  0.31036100  1
  O  O38  1  0.89651000  0.48473000  0.09055600  1
  O  O39  1  0.52848300  0.67916300  0.66986200  1
  O  O40  1  0.40306100  0.23279400  0.92761400  1
  O  O41  1  0.76382100  0.27635000  0.92946600  1
  O  O42  1  0.64184800  0.12234700  0.65398900  1
  O  O43  1  0.47151700  0.17916300  0.33013800  1
  O  O44  1  0.59693900  0.73279400  0.07238600  1
  O  O45  1  0.78317900  0.73085400  0.93045400  1
  O  O46  1  0.10349000  0.98473000  0.90944400  1
  O  O47  1  0.04694500  0.96847800  0.08069900  1
  O  O48  1  0.23904500  0.18581900  0.72738900  1
  O  O49  1  0.11339000  0.08930900  0.50777300  1
