# generated using pymatgen
data_BaSrTa2O7
_symmetry_space_group_name_H-M   'P 1'
_cell_length_a   4.02968400
_cell_length_b   7.90810800
_cell_length_c   20.52858800
_cell_angle_alpha   90.00000000
_cell_angle_beta   90.00000000
_cell_angle_gamma   90.00000000
_symmetry_Int_Tables_number   1
_chemical_formula_structural   BaSrTa2O7
_chemical_formula_sum   'Ba4 Sr4 Ta8 O28'
_cell_volume   654.18813253
_cell_formula_units_Z   4
loop_
 _symmetry_equiv_pos_site_id
 _symmetry_equiv_pos_as_xyz
  1  'x, y, z'
loop_
 _atom_site_type_symbol
 _atom_site_label
 _atom_site_symmetry_multiplicity
 _atom_site_fract_x
 _atom_site_fract_y
 _atom_site_fract_z
 _atom_site_occupancy
  Ba  Ba0  1  0.00000000  0.50000000  0.73802100  1
  Ba  Ba1  1  0.50000000  0.00000000  0.76197900  1
  Ba  Ba2  1  0.50000000  0.00000000  0.23802100  1
  Ba  Ba3  1  0.00000000  0.50000000  0.26197900  1
  Sr  Sr4  1  0.50000000  0.50000000  0.00000000  1
  Sr  Sr5  1  0.50000000  0.00000000  0.00000000  1
  Sr  Sr6  1  0.00000000  0.00000000  0.50000000  1
  Sr  Sr7  1  0.00000000  0.50000000  0.50000000  1
  Ta  Ta8  1  0.50000000  0.25176950  0.60268650  1
  Ta  Ta9  1  0.50000000  0.74823050  0.60268650  1
  Ta  Ta10  1  0.00000000  0.24823050  0.89731350  1
  Ta  Ta11  1  0.00000000  0.75176950  0.89731350  1
  Ta  Ta12  1  0.00000000  0.75176950  0.10268650  1
  Ta  Ta13  1  0.00000000  0.24823050  0.10268650  1
  Ta  Ta14  1  0.50000000  0.74823050  0.39731350  1
  Ta  Ta15  1  0.50000000  0.25176950  0.39731350  1
  O  O16  1  0.00000000  0.00000000  0.92044300  1
  O  O17  1  0.50000000  0.24717650  0.90744050  1
  O  O18  1  0.00000000  0.74717650  0.59255950  1
  O  O19  1  0.00000000  0.20319000  0.80745400  1
  O  O20  1  0.00000000  0.71268100  0.00000000  1
  O  O21  1  0.50000000  0.75282350  0.90744050  1
  O  O22  1  0.50000000  0.70319000  0.69254600  1
  O  O23  1  0.00000000  0.28731900  0.00000000  1
  O  O24  1  0.50000000  0.29681000  0.69254600  1
  O  O25  1  0.00000000  0.50000000  0.88734500  1
  O  O26  1  0.50000000  0.50000000  0.57955700  1
  O  O27  1  0.00000000  0.25282350  0.59255950  1
  O  O28  1  0.00000000  0.79681000  0.80745400  1
  O  O29  1  0.50000000  0.00000000  0.61265500  1
  O  O30  1  0.50000000  0.50000000  0.42044300  1
  O  O31  1  0.00000000  0.74717650  0.40744050  1
  O  O32  1  0.50000000  0.24717650  0.09255950  1
  O  O33  1  0.50000000  0.70319000  0.30745400  1
  O  O34  1  0.50000000  0.21268100  0.50000000  1
  O  O35  1  0.00000000  0.25282350  0.40744050  1
  O  O36  1  0.00000000  0.20319000  0.19254600  1
  O  O37  1  0.50000000  0.78731900  0.50000000  1
  O  O38  1  0.00000000  0.79681000  0.19254600  1
  O  O39  1  0.50000000  0.00000000  0.38734500  1
  O  O40  1  0.00000000  0.00000000  0.07955700  1
  O  O41  1  0.50000000  0.75282350  0.09255950  1
  O  O42  1  0.50000000  0.29681000  0.30745400  1
  O  O43  1  0.00000000  0.50000000  0.11265500  1
