# generated using pymatgen
data_Mg8B5IN10
_symmetry_space_group_name_H-M   'P 1'
_cell_length_a   9.39005600
_cell_length_b   11.29664000
_cell_length_c   13.66813400
_cell_angle_alpha   90.00000000
_cell_angle_beta   90.00000000
_cell_angle_gamma   90.00000000
_symmetry_Int_Tables_number   1
_chemical_formula_structural   Mg8B5IN10
_chemical_formula_sum   'Mg32 B20 I4 N40'
_cell_volume   1449.86210587
_cell_formula_units_Z   4
loop_
 _symmetry_equiv_pos_site_id
 _symmetry_equiv_pos_as_xyz
  1  'x, y, z'
loop_
 _atom_site_type_symbol
 _atom_site_label
 _atom_site_symmetry_multiplicity
 _atom_site_fract_x
 _atom_site_fract_y
 _atom_site_fract_z
 _atom_site_occupancy
  Mg  Mg0  1  0.25000000  0.75000000  0.64519300  1
  Mg  Mg1  1  0.25110500  0.00000000  0.50000000  1
  Mg  Mg2  1  0.75000000  0.75000000  0.43430300  1
  Mg  Mg3  1  0.25000000  0.75000000  0.43430300  1
  Mg  Mg4  1  0.29594700  0.02526800  0.75000000  1
  Mg  Mg5  1  0.25000000  0.25000000  0.35480700  1
  Mg  Mg6  1  0.74889500  0.00000000  0.50000000  1
  Mg  Mg7  1  0.75000000  0.25000000  0.35480700  1
  Mg  Mg8  1  0.74889500  0.00000000  0.00000000  1
  Mg  Mg9  1  0.70405300  0.02526800  0.75000000  1
  Mg  Mg10  1  0.25000000  0.25000000  0.56569700  1
  Mg  Mg11  1  0.29594700  0.97473200  0.25000000  1
  Mg  Mg12  1  0.70405300  0.97473200  0.25000000  1
  Mg  Mg13  1  0.75000000  0.25000000  0.56569700  1
  Mg  Mg14  1  0.25110500  0.00000000  0.00000000  1
  Mg  Mg15  1  0.75000000  0.75000000  0.64519300  1
  Mg  Mg16  1  0.75000000  0.25000000  0.14519300  1
  Mg  Mg17  1  0.75110500  0.50000000  0.00000000  1
  Mg  Mg18  1  0.25000000  0.25000000  0.93430300  1
  Mg  Mg19  1  0.75000000  0.25000000  0.93430300  1
  Mg  Mg20  1  0.79594700  0.52526800  0.25000000  1
  Mg  Mg21  1  0.75000000  0.75000000  0.85480700  1
  Mg  Mg22  1  0.24889500  0.50000000  0.00000000  1
  Mg  Mg23  1  0.25000000  0.75000000  0.85480700  1
  Mg  Mg24  1  0.24889500  0.50000000  0.50000000  1
  Mg  Mg25  1  0.20405300  0.52526800  0.25000000  1
  Mg  Mg26  1  0.75000000  0.75000000  0.06569700  1
  Mg  Mg27  1  0.79594700  0.47473200  0.75000000  1
  Mg  Mg28  1  0.20405300  0.47473200  0.75000000  1
  Mg  Mg29  1  0.25000000  0.75000000  0.06569700  1
  Mg  Mg30  1  0.75110500  0.50000000  0.50000000  1
  Mg  Mg31  1  0.25000000  0.25000000  0.14519300  1
  B  B32  1  0.00000000  0.85184200  0.54429300  1
  B  B33  1  0.50000000  0.84670900  0.75000000  1
  B  B34  1  0.50000000  0.90039700  0.38585900  1
  B  B35  1  0.50000000  0.09960300  0.88585900  1
  B  B36  1  0.00000000  0.14815800  0.45570700  1
  B  B37  1  0.50000000  0.15329100  0.25000000  1
  B  B38  1  0.50000000  0.64815800  0.54429300  1
  B  B39  1  0.50000000  0.09960300  0.61414100  1
  B  B40  1  0.50000000  0.90039700  0.11414100  1
  B  B41  1  0.50000000  0.35184200  0.45570700  1
  B  B42  1  0.50000000  0.35184200  0.04429300  1
  B  B43  1  0.00000000  0.34670900  0.25000000  1
  B  B44  1  0.00000000  0.40039700  0.88585900  1
  B  B45  1  0.00000000  0.59960300  0.38585900  1
  B  B46  1  0.50000000  0.64815800  0.95570700  1
  B  B47  1  0.00000000  0.65329100  0.75000000  1
  B  B48  1  0.00000000  0.14815800  0.04429300  1
  B  B49  1  0.00000000  0.59960300  0.11414100  1
  B  B50  1  0.00000000  0.40039700  0.61414100  1
  B  B51  1  0.00000000  0.85184200  0.95570700  1
  I  I52  1  0.00000000  0.90246300  0.25000000  1
  I  I53  1  0.00000000  0.09753700  0.75000000  1
  I  I54  1  0.50000000  0.40246300  0.75000000  1
  I  I55  1  0.50000000  0.59753700  0.25000000  1
  N  N56  1  0.35669100  0.90270100  0.11529400  1
  N  N57  1  0.64330900  0.90270100  0.38470600  1
  N  N58  1  0.85755850  0.85005250  0.54325850  1
  N  N59  1  0.64330900  0.09729900  0.88470600  1
  N  N60  1  0.85755850  0.14994750  0.45674150  1
  N  N61  1  0.14244150  0.14994750  0.45674150  1
  N  N62  1  0.35669100  0.90270100  0.38470600  1
  N  N63  1  0.35669100  0.09729900  0.61529400  1
  N  N64  1  0.64269700  0.84928200  0.75000000  1
  N  N65  1  0.64330900  0.90270100  0.11529400  1
  N  N66  1  0.35669100  0.09729900  0.88470600  1
  N  N67  1  0.64244150  0.64994750  0.54325850  1
  N  N68  1  0.64244150  0.35005250  0.45674150  1
  N  N69  1  0.35755850  0.64994750  0.54325850  1
  N  N70  1  0.64269700  0.15071800  0.25000000  1
  N  N71  1  0.35755850  0.35005250  0.45674150  1
  N  N72  1  0.35730300  0.84928200  0.75000000  1
  N  N73  1  0.14244150  0.85005250  0.54325850  1
  N  N74  1  0.64330900  0.09729900  0.61529400  1
  N  N75  1  0.35730300  0.15071800  0.25000000  1
  N  N76  1  0.85669100  0.40270100  0.61529400  1
  N  N77  1  0.14330900  0.40270100  0.88470600  1
  N  N78  1  0.35755850  0.35005250  0.04325850  1
  N  N79  1  0.14330900  0.59729900  0.38470600  1
  N  N80  1  0.35755850  0.64994750  0.95674150  1
  N  N81  1  0.64244150  0.64994750  0.95674150  1
  N  N82  1  0.85669100  0.40270100  0.88470600  1
  N  N83  1  0.85669100  0.59729900  0.11529400  1
  N  N84  1  0.14269700  0.34928200  0.25000000  1
  N  N85  1  0.14330900  0.40270100  0.61529400  1
  N  N86  1  0.85669100  0.59729900  0.38470600  1
  N  N87  1  0.14244150  0.14994750  0.04325850  1
  N  N88  1  0.14244150  0.85005250  0.95674150  1
  N  N89  1  0.85755850  0.14994750  0.04325850  1
  N  N90  1  0.14269700  0.65071800  0.75000000  1
  N  N91  1  0.85755850  0.85005250  0.95674150  1
  N  N92  1  0.85730300  0.34928200  0.25000000  1
  N  N93  1  0.64244150  0.35005250  0.04325850  1
  N  N94  1  0.14330900  0.59729900  0.11529400  1
  N  N95  1  0.85730300  0.65071800  0.75000000  1
