# generated using pymatgen
data_ZnGa3N3O
_symmetry_space_group_name_H-M   'P 1'
_cell_length_a   6.47409000
_cell_length_b   6.47383697
_cell_length_c   10.52069933
_cell_angle_alpha   89.93566904
_cell_angle_beta   89.90404135
_cell_angle_gamma   59.99636672
_symmetry_Int_Tables_number   1
_chemical_formula_structural   ZnGa3N3O
_chemical_formula_sum   'Zn4 Ga12 N12 O4'
_cell_volume   381.85562935
_cell_formula_units_Z   4
loop_
 _symmetry_equiv_pos_site_id
 _symmetry_equiv_pos_as_xyz
  1  'x, y, z'
loop_
 _atom_site_type_symbol
 _atom_site_label
 _atom_site_symmetry_multiplicity
 _atom_site_fract_x
 _atom_site_fract_y
 _atom_site_fract_z
 _atom_site_occupancy
  Zn  Zn0  1  0.50008900  0.16162200  0.25421300  1
  Zn  Zn1  1  0.01740900  0.33933900  0.00442700  1
  Zn  Zn2  1  0.50134200  0.33421500  0.50581200  1
  Zn  Zn3  1  0.51655100  0.67789200  0.75687400  1
  Ga  Ga4  1  0.99057600  0.16457600  0.24785700  1
  Ga  Ga5  1  0.00951100  0.67446400  0.24963100  1
  Ga  Ga6  1  0.50196600  0.66672500  0.24964400  1
  Ga  Ga7  1  0.50379600  0.83454900  0.99962600  1
  Ga  Ga8  1  0.49570000  0.33559500  0.99945400  1
  Ga  Ga9  1  0.49871900  0.83915400  0.49972200  1
  Ga  Ga10  1  0.48448800  0.15951500  0.74784600  1
  Ga  Ga11  1  0.98299700  0.32138200  0.49760600  1
  Ga  Ga12  1  0.00702200  0.67071700  0.74963700  1
  Ga  Ga13  1  0.99296500  0.15865800  0.74809200  1
  Ga  Ga14  1  0.98455300  0.82447100  0.99810100  1
  Ga  Ga15  1  0.01773500  0.83828400  0.49789100  1
  N  N16  1  0.01665600  0.33952600  0.31319300  1
  N  N17  1  0.98433300  0.82343000  0.31399000  1
  N  N18  1  0.99856300  0.16086900  0.06390600  1
  N  N19  1  0.98955900  0.16320300  0.56375700  1
  N  N20  1  0.01053600  0.67358400  0.56380800  1
  N  N21  1  0.50044300  0.16309000  0.56300300  1
  N  N22  1  0.01445700  0.83757600  0.81413600  1
  N  N23  1  0.49943600  0.83268900  0.31327200  1
  N  N24  1  0.51438200  0.67680400  0.06342200  1
  N  N25  1  0.00083400  0.66665100  0.06319300  1
  N  N26  1  0.50163300  0.33433000  0.81231500  1
  N  N27  1  0.49828500  0.83730600  0.81410400  1
  O  O28  1  0.49913500  0.66658700  0.55365300  1
  O  O29  1  0.50113600  0.33966800  0.30294200  1
  O  O30  1  0.98230800  0.32184200  0.80455200  1
  O  O31  1  0.48288200  0.16168700  0.05433800  1
