# generated using pymatgen
data_Rb6Si10O23
_symmetry_space_group_name_H-M   'P 1'
_cell_length_a   9.48305200
_cell_length_b   16.69285600
_cell_length_c   8.24272400
_cell_angle_alpha   90.00000000
_cell_angle_beta   90.00000000
_cell_angle_gamma   90.00000000
_symmetry_Int_Tables_number   1
_chemical_formula_structural   Rb6Si10O23
_chemical_formula_sum   'Rb12 Si20 O46'
_cell_volume   1304.81679205
_cell_formula_units_Z   2
loop_
 _symmetry_equiv_pos_site_id
 _symmetry_equiv_pos_as_xyz
  1  'x, y, z'
loop_
 _atom_site_type_symbol
 _atom_site_label
 _atom_site_symmetry_multiplicity
 _atom_site_fract_x
 _atom_site_fract_y
 _atom_site_fract_z
 _atom_site_occupancy
  Rb  Rb0  1  0.86068000  0.12241900  0.50000000  1
  Rb  Rb1  1  0.21848100  0.00000000  0.50000000  1
  Rb  Rb2  1  0.36068000  0.37758100  0.50000000  1
  Rb  Rb3  1  0.22598100  0.00000000  0.00000000  1
  Rb  Rb4  1  0.86270350  0.11865150  0.00000000  1
  Rb  Rb5  1  0.36270350  0.38134850  0.00000000  1
  Rb  Rb6  1  0.36068000  0.62241900  0.50000000  1
  Rb  Rb7  1  0.71848100  0.50000000  0.50000000  1
  Rb  Rb8  1  0.86068000  0.87758100  0.50000000  1
  Rb  Rb9  1  0.72598100  0.50000000  0.00000000  1
  Rb  Rb10  1  0.36270350  0.61865150  0.00000000  1
  Rb  Rb11  1  0.86270350  0.88134850  0.00000000  1
  Si  Si12  1  0.58299400  0.00000000  0.69589800  1
  Si  Si13  1  0.97093350  0.33003150  0.18829200  1
  Si  Si14  1  0.17237900  0.20005800  0.69119200  1
  Si  Si15  1  0.67237900  0.29994200  0.69119200  1
  Si  Si16  1  0.47093350  0.16996850  0.81170800  1
  Si  Si17  1  0.58299400  0.00000000  0.30410200  1
  Si  Si18  1  0.97093350  0.33003150  0.81170800  1
  Si  Si19  1  0.67237900  0.29994200  0.30880800  1
  Si  Si20  1  0.17237900  0.20005800  0.30880800  1
  Si  Si21  1  0.47093350  0.16996850  0.18829200  1
  Si  Si22  1  0.08299400  0.50000000  0.69589800  1
  Si  Si23  1  0.47093350  0.83003150  0.18829200  1
  Si  Si24  1  0.67237900  0.70005800  0.69119200  1
  Si  Si25  1  0.17237900  0.79994200  0.69119200  1
  Si  Si26  1  0.97093350  0.66996850  0.81170800  1
  Si  Si27  1  0.08299400  0.50000000  0.30410200  1
  Si  Si28  1  0.47093350  0.83003150  0.81170800  1
  Si  Si29  1  0.17237900  0.79994200  0.30880800  1
  Si  Si30  1  0.67237900  0.70005800  0.30880800  1
  Si  Si31  1  0.97093350  0.66996850  0.18829200  1
  O  O32  1  0.34759250  0.20943650  0.29974600  1
  O  O33  1  0.49079600  0.07567700  0.22719700  1
  O  O34  1  0.49079600  0.07567700  0.77280300  1
  O  O35  1  0.11967650  0.28273450  0.21177500  1
  O  O36  1  0.11967650  0.28273450  0.78822500  1
  O  O37  1  0.74631200  0.00000000  0.73543900  1
  O  O38  1  0.10763900  0.11809700  0.75279300  1
  O  O39  1  0.34759250  0.20943650  0.70025400  1
  O  O40  1  0.99079600  0.42432300  0.77280300  1
  O  O41  1  0.61967650  0.21726550  0.78822500  1
  O  O42  1  0.13513350  0.22073250  0.50000000  1
  O  O43  1  0.54233900  0.00000000  0.50000000  1
  O  O44  1  0.99079600  0.42432300  0.22719700  1
  O  O45  1  0.84759250  0.29056350  0.29974600  1
  O  O46  1  0.74631200  0.00000000  0.26456100  1
  O  O47  1  0.60763900  0.38190300  0.75279300  1
  O  O48  1  0.60763900  0.38190300  0.24720700  1
  O  O49  1  0.41900500  0.17952800  0.00000000  1
  O  O50  1  0.84759250  0.29056350  0.70025400  1
  O  O51  1  0.10763900  0.11809700  0.24720700  1
  O  O52  1  0.63513350  0.27926750  0.50000000  1
  O  O53  1  0.91900500  0.32047200  0.00000000  1
  O  O54  1  0.61967650  0.21726550  0.21177500  1
  O  O55  1  0.84759250  0.70943650  0.29974600  1
  O  O56  1  0.99079600  0.57567700  0.22719700  1
  O  O57  1  0.99079600  0.57567700  0.77280300  1
  O  O58  1  0.61967650  0.78273450  0.21177500  1
  O  O59  1  0.61967650  0.78273450  0.78822500  1
  O  O60  1  0.24631200  0.50000000  0.73543900  1
  O  O61  1  0.60763900  0.61809700  0.75279300  1
  O  O62  1  0.84759250  0.70943650  0.70025400  1
  O  O63  1  0.49079600  0.92432300  0.77280300  1
  O  O64  1  0.11967650  0.71726550  0.78822500  1
  O  O65  1  0.63513350  0.72073250  0.50000000  1
  O  O66  1  0.04233900  0.50000000  0.50000000  1
  O  O67  1  0.49079600  0.92432300  0.22719700  1
  O  O68  1  0.34759250  0.79056350  0.29974600  1
  O  O69  1  0.24631200  0.50000000  0.26456100  1
  O  O70  1  0.10763900  0.88190300  0.75279300  1
  O  O71  1  0.10763900  0.88190300  0.24720700  1
  O  O72  1  0.91900500  0.67952800  0.00000000  1
  O  O73  1  0.34759250  0.79056350  0.70025400  1
  O  O74  1  0.60763900  0.61809700  0.24720700  1
  O  O75  1  0.13513350  0.77926750  0.50000000  1
  O  O76  1  0.41900500  0.82047200  0.00000000  1
  O  O77  1  0.11967650  0.71726550  0.21177500  1
