# generated using pymatgen
data_Ca3SiO5
_symmetry_space_group_name_H-M   'P 1'
_cell_length_a   7.15941402
_cell_length_b   7.15941402
_cell_length_c   25.97591103
_cell_angle_alpha   90.00000000
_cell_angle_beta   90.00000000
_cell_angle_gamma   120.00000000
_symmetry_Int_Tables_number   1
_chemical_formula_structural   Ca3SiO5
_chemical_formula_sum   'Ca27 Si9 O45'
_cell_volume   1153.07186387
_cell_formula_units_Z   9
loop_
 _symmetry_equiv_pos_site_id
 _symmetry_equiv_pos_as_xyz
  1  'x, y, z'
loop_
 _atom_site_type_symbol
 _atom_site_label
 _atom_site_symmetry_multiplicity
 _atom_site_fract_x
 _atom_site_fract_y
 _atom_site_fract_z
 _atom_site_occupancy
  Ca  Ca0  1  0.49433433  0.50566567  0.00207667  1
  Ca  Ca1  1  0.49221267  0.98442533  0.22421833  1
  Ca  Ca2  1  0.63550200  0.81775100  0.10489900  1
  Ca  Ca3  1  0.18224900  0.36449800  0.10489900  1
  Ca  Ca4  1  0.18224900  0.81775100  0.10489900  1
  Ca  Ca5  1  0.01557467  0.50778733  0.22421833  1
  Ca  Ca6  1  0.01133133  0.50566567  0.00207667  1
  Ca  Ca7  1  0.49221267  0.50778733  0.22421833  1
  Ca  Ca8  1  0.49433433  0.98866867  0.00207667  1
  Ca  Ca9  1  0.16100100  0.83899900  0.33541000  1
  Ca  Ca10  1  0.15887933  0.31775867  0.55755167  1
  Ca  Ca11  1  0.30216867  0.15108433  0.43823233  1
  Ca  Ca12  1  0.84891567  0.69783133  0.43823233  1
  Ca  Ca13  1  0.84891567  0.15108433  0.43823233  1
  Ca  Ca14  1  0.68224133  0.84112067  0.55755167  1
  Ca  Ca15  1  0.67799800  0.83899900  0.33541000  1
  Ca  Ca16  1  0.15887933  0.84112067  0.55755167  1
  Ca  Ca17  1  0.16100100  0.32200200  0.33541000  1
  Ca  Ca18  1  0.82766767  0.17233233  0.66874333  1
  Ca  Ca19  1  0.82554600  0.65109200  0.89088500  1
  Ca  Ca20  1  0.96883533  0.48441767  0.77156567  1
  Ca  Ca21  1  0.51558233  0.03116467  0.77156567  1
  Ca  Ca22  1  0.51558233  0.48441767  0.77156567  1
  Ca  Ca23  1  0.34890800  0.17445400  0.89088500  1
  Ca  Ca24  1  0.34466467  0.17233233  0.66874333  1
  Ca  Ca25  1  0.82554600  0.17445400  0.89088500  1
  Ca  Ca26  1  0.82766767  0.65533533  0.66874333  1
  Si  Si27  1  0.66666667  0.33333333  0.11255733  1
  Si  Si28  1  0.00000000  0.00000000  0.21382800  1
  Si  Si29  1  0.66666667  0.33333333  0.33194033  1
  Si  Si30  1  0.33333333  0.66666667  0.44589067  1
  Si  Si31  1  0.66666667  0.33333333  0.54716133  1
  Si  Si32  1  0.33333333  0.66666667  0.66527367  1
  Si  Si33  1  0.00000000  0.00000000  0.77922400  1
  Si  Si34  1  0.33333333  0.66666667  0.88049467  1
  Si  Si35  1  0.00000000  0.00000000  0.99860700  1
  O  O36  1  0.00000000  0.00000000  0.14921600  1
  O  O37  1  0.12541767  0.87458233  0.01981633  1
  O  O38  1  0.33333333  0.66666667  0.29542167  1
  O  O39  1  0.75074800  0.87537400  0.23630800  1
  O  O40  1  0.33333333  0.66666667  0.16693267  1
  O  O41  1  0.33333333  0.66666667  0.04817767  1
  O  O42  1  0.12541767  0.25083533  0.01981633  1
  O  O43  1  0.54116233  0.08232467  0.09227167  1
  O  O44  1  0.66666667  0.33333333  0.26926433  1
  O  O45  1  0.91767533  0.45883767  0.09227167  1
  O  O46  1  0.54116233  0.45883767  0.09227167  1
  O  O47  1  0.12462600  0.24925200  0.23630800  1
  O  O48  1  0.12462600  0.87537400  0.23630800  1
  O  O49  1  0.66666667  0.33333333  0.17541333  1
  O  O50  1  0.74916467  0.87458233  0.01981633  1
  O  O51  1  0.66666667  0.33333333  0.48254933  1
  O  O52  1  0.79208433  0.20791567  0.35314967  1
  O  O53  1  0.00000000  0.00000000  0.62875500  1
  O  O54  1  0.41741467  0.20870733  0.56964133  1
  O  O55  1  0.00000000  0.00000000  0.50026600  1
  O  O56  1  0.00000000  0.00000000  0.38151100  1
  O  O57  1  0.79208433  0.58416867  0.35314967  1
  O  O58  1  0.20782900  0.41565800  0.42560500  1
  O  O59  1  0.33333333  0.66666667  0.60259767  1
  O  O60  1  0.58434200  0.79217100  0.42560500  1
  O  O61  1  0.20782900  0.79217100  0.42560500  1
  O  O62  1  0.79129267  0.58258533  0.56964133  1
  O  O63  1  0.79129267  0.20870733  0.56964133  1
  O  O64  1  0.33333333  0.66666667  0.50874667  1
  O  O65  1  0.41583133  0.20791567  0.35314967  1
  O  O66  1  0.33333333  0.66666667  0.81588267  1
  O  O67  1  0.45875100  0.54124900  0.68648300  1
  O  O68  1  0.66666667  0.33333333  0.96208833  1
  O  O69  1  0.08408133  0.54204067  0.90297467  1
  O  O70  1  0.66666667  0.33333333  0.83359933  1
  O  O71  1  0.66666667  0.33333333  0.71484433  1
  O  O72  1  0.45875100  0.91750200  0.68648300  1
  O  O73  1  0.87449567  0.74899133  0.75893833  1
  O  O74  1  0.00000000  0.00000000  0.93593100  1
  O  O75  1  0.25100867  0.12550433  0.75893833  1
  O  O76  1  0.87449567  0.12550433  0.75893833  1
  O  O77  1  0.45795933  0.91591867  0.90297467  1
  O  O78  1  0.45795933  0.54204067  0.90297467  1
  O  O79  1  0.00000000  0.00000000  0.84208000  1
  O  O80  1  0.08249800  0.54124900  0.68648300  1
