# generated using pymatgen
data_Ba5Si(Br3O2)2
_symmetry_space_group_name_H-M   'P 1'
_cell_length_a   9.99010800
_cell_length_b   15.51217000
_cell_length_c   12.17178245
_cell_angle_alpha   90.00000000
_cell_angle_beta   104.80265256
_cell_angle_gamma   90.00000000
_symmetry_Int_Tables_number   1
_chemical_formula_structural   Ba5Si(Br3O2)2
_chemical_formula_sum   'Ba20 Si4 Br24 O16'
_cell_volume   1823.63851425
_cell_formula_units_Z   4
loop_
 _symmetry_equiv_pos_site_id
 _symmetry_equiv_pos_as_xyz
  1  'x, y, z'
loop_
 _atom_site_type_symbol
 _atom_site_label
 _atom_site_symmetry_multiplicity
 _atom_site_fract_x
 _atom_site_fract_y
 _atom_site_fract_z
 _atom_site_occupancy
  Ba  Ba0  1  0.55495650  0.87870050  0.98322200  1
  Ba  Ba1  1  0.50000000  0.70984900  0.25000000  1
  Ba  Ba2  1  0.16482300  0.92292800  0.13614200  1
  Ba  Ba3  1  0.83517700  0.07707200  0.86385800  1
  Ba  Ba4  1  0.55495650  0.12129950  0.48322200  1
  Ba  Ba5  1  0.83517700  0.92292800  0.36385800  1
  Ba  Ba6  1  0.50000000  0.29015100  0.75000000  1
  Ba  Ba7  1  0.44504350  0.12129950  0.01677800  1
  Ba  Ba8  1  0.16482300  0.07707200  0.63614200  1
  Ba  Ba9  1  0.44504350  0.87870050  0.51677800  1
  Ba  Ba10  1  0.05495650  0.37870050  0.98322200  1
  Ba  Ba11  1  0.00000000  0.20984900  0.25000000  1
  Ba  Ba12  1  0.66482300  0.42292800  0.13614200  1
  Ba  Ba13  1  0.33517700  0.57707200  0.86385800  1
  Ba  Ba14  1  0.05495650  0.62129950  0.48322200  1
  Ba  Ba15  1  0.33517700  0.42292800  0.36385800  1
  Ba  Ba16  1  0.00000000  0.79015100  0.75000000  1
  Ba  Ba17  1  0.94504350  0.62129950  0.01677800  1
  Ba  Ba18  1  0.66482300  0.57707200  0.63614200  1
  Ba  Ba19  1  0.94504350  0.37870050  0.51677800  1
  Si  Si20  1  0.50000000  0.92459900  0.25000000  1
  Si  Si21  1  0.50000000  0.07540100  0.75000000  1
  Si  Si22  1  0.00000000  0.42459900  0.25000000  1
  Si  Si23  1  0.00000000  0.57540100  0.75000000  1
  Br  Br24  1  0.50000000  0.74430400  0.75000000  1
  Br  Br25  1  0.63089200  0.64937500  0.04886700  1
  Br  Br26  1  0.18433700  0.96721900  0.86652600  1
  Br  Br27  1  0.18433700  0.03278100  0.36652600  1
  Br  Br28  1  0.36910800  0.64937500  0.45113300  1
  Br  Br29  1  0.36910800  0.35062500  0.95113300  1
  Br  Br30  1  0.81566300  0.03278100  0.13347400  1
  Br  Br31  1  0.50000000  0.25569600  0.25000000  1
  Br  Br32  1  0.75000000  0.75000000  0.50000000  1
  Br  Br33  1  0.63089200  0.35062500  0.54886700  1
  Br  Br34  1  0.81566300  0.96721900  0.63347400  1
  Br  Br35  1  0.75000000  0.25000000  0.00000000  1
  Br  Br36  1  0.00000000  0.24430400  0.75000000  1
  Br  Br37  1  0.13089200  0.14937500  0.04886700  1
  Br  Br38  1  0.68433700  0.46721900  0.86652600  1
  Br  Br39  1  0.68433700  0.53278100  0.36652600  1
  Br  Br40  1  0.86910800  0.14937500  0.45113300  1
  Br  Br41  1  0.86910800  0.85062500  0.95113300  1
  Br  Br42  1  0.31566300  0.53278100  0.13347400  1
  Br  Br43  1  0.00000000  0.75569600  0.25000000  1
  Br  Br44  1  0.25000000  0.25000000  0.50000000  1
  Br  Br45  1  0.13089200  0.85062500  0.54886700  1
  Br  Br46  1  0.31566300  0.46721900  0.63347400  1
  Br  Br47  1  0.25000000  0.75000000  0.00000000  1
  O  O48  1  0.61615150  0.13985050  0.71492300  1
  O  O49  1  0.42432650  0.02040950  0.63441100  1
  O  O50  1  0.61615150  0.86014950  0.21492300  1
  O  O51  1  0.42432650  0.97959050  0.13441100  1
  O  O52  1  0.57567350  0.97959050  0.36558900  1
  O  O53  1  0.38384850  0.86014950  0.28507700  1
  O  O54  1  0.57567350  0.02040950  0.86558900  1
  O  O55  1  0.38384850  0.13985050  0.78507700  1
  O  O56  1  0.11615150  0.63985050  0.71492300  1
  O  O57  1  0.92432650  0.52040950  0.63441100  1
  O  O58  1  0.11615150  0.36014950  0.21492300  1
  O  O59  1  0.92432650  0.47959050  0.13441100  1
  O  O60  1  0.07567350  0.47959050  0.36558900  1
  O  O61  1  0.88384850  0.36014950  0.28507700  1
  O  O62  1  0.07567350  0.52040950  0.86558900  1
  O  O63  1  0.88384850  0.63985050  0.78507700  1
