# generated using pymatgen
data_C2SNCl2F5
_symmetry_space_group_name_H-M   'P 1'
_cell_length_a   5.44688100
_cell_length_b   15.82959900
_cell_length_c   19.45595964
_cell_angle_alpha   90.00000000
_cell_angle_beta   96.41389527
_cell_angle_gamma   90.00000000
_symmetry_Int_Tables_number   1
_chemical_formula_structural   C2SNCl2F5
_chemical_formula_sum   'C16 S8 N8 Cl16 F40'
_cell_volume   1667.03071962
_cell_formula_units_Z   8
loop_
 _symmetry_equiv_pos_site_id
 _symmetry_equiv_pos_as_xyz
  1  'x, y, z'
loop_
 _atom_site_type_symbol
 _atom_site_label
 _atom_site_symmetry_multiplicity
 _atom_site_fract_x
 _atom_site_fract_y
 _atom_site_fract_z
 _atom_site_occupancy
  C  C0  1  0.54397500  0.31682200  0.39720900  1
  C  C1  1  0.07118400  0.55876600  0.39300500  1
  C  C2  1  0.41917600  0.77916800  0.61811300  1
  C  C3  1  0.11164100  0.85028200  0.86494100  1
  C  C4  1  0.88835900  0.14971800  0.13505900  1
  C  C5  1  0.41917600  0.72083200  0.11811300  1
  C  C6  1  0.45602500  0.68317800  0.60279100  1
  C  C7  1  0.54397500  0.18317800  0.89720900  1
  C  C8  1  0.07118400  0.94123400  0.89300500  1
  C  C9  1  0.58082400  0.27916800  0.88188700  1
  C  C10  1  0.88835900  0.35028200  0.63505900  1
  C  C11  1  0.45602500  0.81682200  0.10279100  1
  C  C12  1  0.92881600  0.44123400  0.60699500  1
  C  C13  1  0.58082400  0.22083200  0.38188700  1
  C  C14  1  0.11164100  0.64971800  0.36494100  1
  C  C15  1  0.92881600  0.05876600  0.10699500  1
  S  S16  1  0.72912600  0.59674300  0.16379800  1
  S  S17  1  0.78795700  0.77070800  0.32307800  1
  S  S18  1  0.21204300  0.22929200  0.67692200  1
  S  S19  1  0.21204300  0.27070800  0.17692200  1
  S  S20  1  0.72912600  0.90325700  0.66379800  1
  S  S21  1  0.27087400  0.09674300  0.33620200  1
  S  S22  1  0.27087400  0.40325700  0.83620200  1
  S  S23  1  0.78795700  0.72929200  0.82307800  1
  N  N24  1  0.63549400  0.68631600  0.15336000  1
  N  N25  1  0.10896600  0.18196100  0.16981100  1
  N  N26  1  0.36450600  0.18631600  0.34664000  1
  N  N27  1  0.10896600  0.31803900  0.66981100  1
  N  N28  1  0.63549400  0.81368400  0.65336000  1
  N  N29  1  0.89103400  0.68196100  0.33018900  1
  N  N30  1  0.89103400  0.81803900  0.83018900  1
  N  N31  1  0.36450600  0.31368400  0.84664000  1
  Cl  Cl32  1  0.05526600  0.64412200  0.79144100  1
  Cl  Cl33  1  0.75975400  0.82561000  0.42024700  1
  Cl  Cl34  1  0.76431500  0.53642900  0.06827500  1
  Cl  Cl35  1  0.23568500  0.46357100  0.93172500  1
  Cl  Cl36  1  0.24024600  0.32561000  0.07975300  1
  Cl  Cl37  1  0.76431500  0.96357100  0.56827500  1
  Cl  Cl38  1  0.54865500  0.01621100  0.30514500  1
  Cl  Cl39  1  0.75975400  0.67439000  0.92024700  1
  Cl  Cl40  1  0.45134500  0.51621100  0.19485500  1
  Cl  Cl41  1  0.24024600  0.17439000  0.57975300  1
  Cl  Cl42  1  0.23568500  0.03642900  0.43172500  1
  Cl  Cl43  1  0.05526600  0.85587800  0.29144100  1
  Cl  Cl44  1  0.94473400  0.14412200  0.70855900  1
  Cl  Cl45  1  0.54865500  0.48378900  0.80514500  1
  Cl  Cl46  1  0.45134500  0.98378900  0.69485500  1
  Cl  Cl47  1  0.94473400  0.35587800  0.20855900  1
  F  F48  1  0.99371800  0.99389100  0.83994500  1
  F  F49  1  0.99371800  0.50610900  0.33994500  1
  F  F50  1  0.34559300  0.81876600  0.55627600  1
  F  F51  1  0.71530000  0.02848400  0.07413700  1
  F  F52  1  0.79157100  0.30120400  0.58035600  1
  F  F53  1  0.47709300  0.35920800  0.33740300  1
  F  F54  1  0.00628200  0.00610900  0.16005500  1
  F  F55  1  0.75674900  0.35030500  0.42774000  1
  F  F56  1  0.36551800  0.17317300  0.93949700  1
  F  F57  1  0.75674900  0.14969500  0.92774000  1
  F  F58  1  0.22381600  0.78535400  0.65756900  1
  F  F59  1  0.65440700  0.18123400  0.44372400  1
  F  F60  1  0.47709300  0.14079200  0.83740300  1
  F  F61  1  0.65440700  0.31876600  0.94372400  1
  F  F62  1  0.24325100  0.64969500  0.57226000  1
  F  F63  1  0.28470000  0.97151600  0.92586300  1
  F  F64  1  0.71530000  0.47151600  0.57413700  1
  F  F65  1  0.79157100  0.19879600  0.08035600  1
  F  F66  1  0.63448200  0.67317300  0.56050300  1
  F  F67  1  0.29163300  0.85575600  0.82025200  1
  F  F68  1  0.00628200  0.49389100  0.66005500  1
  F  F69  1  0.10151200  0.43970500  0.56225000  1
  F  F70  1  0.63448200  0.82682700  0.06050300  1
  F  F71  1  0.34559300  0.68123400  0.05627600  1
  F  F72  1  0.52290700  0.64079200  0.66259700  1
  F  F73  1  0.20842900  0.69879600  0.41964400  1
  F  F74  1  0.36551800  0.32682700  0.43949700  1
  F  F75  1  0.28470000  0.52848400  0.42586300  1
  F  F76  1  0.24325100  0.85030500  0.07226000  1
  F  F77  1  0.70836700  0.35575600  0.67974800  1
  F  F78  1  0.89848800  0.56029500  0.43775000  1
  F  F79  1  0.89848800  0.93970500  0.93775000  1
  F  F80  1  0.10151200  0.06029500  0.06225000  1
  F  F81  1  0.77618400  0.21464600  0.34243100  1
  F  F82  1  0.52290700  0.85920800  0.16259700  1
  F  F83  1  0.29163300  0.64424400  0.32025200  1
  F  F84  1  0.77618400  0.28535400  0.84243100  1
  F  F85  1  0.70836700  0.14424400  0.17974800  1
  F  F86  1  0.22381600  0.71464600  0.15756900  1
  F  F87  1  0.20842900  0.80120400  0.91964400  1
