# generated using pymatgen
data_As2S3(NF6)2
_symmetry_space_group_name_H-M   'P 1'
_cell_length_a   12.77335400
_cell_length_b   8.60073600
_cell_length_c   10.89052593
_cell_angle_alpha   90.00000000
_cell_angle_beta   92.29494359
_cell_angle_gamma   90.00000000
_symmetry_Int_Tables_number   1
_chemical_formula_structural   As2S3(NF6)2
_chemical_formula_sum   'As8 S12 N8 F48'
_cell_volume   1195.47623170
_cell_formula_units_Z   4
loop_
 _symmetry_equiv_pos_site_id
 _symmetry_equiv_pos_as_xyz
  1  'x, y, z'
loop_
 _atom_site_type_symbol
 _atom_site_label
 _atom_site_symmetry_multiplicity
 _atom_site_fract_x
 _atom_site_fract_y
 _atom_site_fract_z
 _atom_site_occupancy
  As  As0  1  0.36440800  0.34722000  0.25138700  1
  As  As1  1  0.63559200  0.34722000  0.74861300  1
  As  As2  1  0.50000000  0.83221600  0.50000000  1
  As  As3  1  0.50000000  0.82469300  0.00000000  1
  As  As4  1  0.86440800  0.84722000  0.25138700  1
  As  As5  1  0.13559200  0.84722000  0.74861300  1
  As  As6  1  0.00000000  0.33221600  0.50000000  1
  As  As7  1  0.00000000  0.32469300  0.00000000  1
  S  S8  1  0.64441800  0.17564600  0.25603400  1
  S  S9  1  0.35558200  0.17564600  0.74396600  1
  S  S10  1  0.20511950  0.95440350  0.15231400  1
  S  S11  1  0.79488050  0.95440350  0.84768600  1
  S  S12  1  0.21402600  0.95881700  0.34957900  1
  S  S13  1  0.78597400  0.95881700  0.65042100  1
  S  S14  1  0.14441800  0.67564600  0.25603400  1
  S  S15  1  0.85558200  0.67564600  0.74396600  1
  S  S16  1  0.70511950  0.45440350  0.15231400  1
  S  S17  1  0.29488050  0.45440350  0.84768600  1
  S  S18  1  0.71402600  0.45881700  0.34957900  1
  S  S19  1  0.28597400  0.45881700  0.65042100  1
  N  N20  1  0.66581350  0.28412150  0.13958800  1
  N  N21  1  0.33418650  0.28412150  0.86041200  1
  N  N22  1  0.67627950  0.28902750  0.36838100  1
  N  N23  1  0.32372050  0.28902750  0.63161900  1
  N  N24  1  0.16581350  0.78412150  0.13958800  1
  N  N25  1  0.83418650  0.78412150  0.86041200  1
  N  N26  1  0.17627950  0.78902750  0.36838100  1
  N  N27  1  0.82372050  0.78902750  0.63161900  1
  F  F28  1  0.80547100  0.96914400  0.13658500  1
  F  F29  1  0.19452900  0.96914400  0.86341500  1
  F  F30  1  0.41803350  0.22324050  0.36672200  1
  F  F31  1  0.58196650  0.22324050  0.63327800  1
  F  F32  1  0.48033100  0.45925700  0.25701600  1
  F  F33  1  0.51966900  0.45925700  0.74298400  1
  F  F34  1  0.80795500  0.96585300  0.36480200  1
  F  F35  1  0.19204500  0.96585300  0.63519800  1
  F  F36  1  0.24717750  0.22784250  0.24716100  1
  F  F37  1  0.75282250  0.22784250  0.75283900  1
  F  F38  1  0.41514400  0.22776600  0.13610600  1
  F  F39  1  0.58485600  0.22776600  0.86389400  1
  F  F40  1  0.58191400  0.97744400  0.43811400  1
  F  F41  1  0.41808600  0.97744400  0.56188600  1
  F  F42  1  0.58055800  0.68684100  0.43765700  1
  F  F43  1  0.41944200  0.68684100  0.56234300  1
  F  F44  1  0.41935750  0.83470250  0.36330200  1
  F  F45  1  0.58064250  0.83470250  0.63669800  1
  F  F46  1  0.56142900  0.96939600  0.09323300  1
  F  F47  1  0.43857100  0.96939600  0.90676700  1
  F  F48  1  0.39017500  0.82456400  0.09546600  1
  F  F49  1  0.60982500  0.82456400  0.90453400  1
  F  F50  1  0.56031450  0.67830750  0.09291200  1
  F  F51  1  0.43968550  0.67830750  0.90708800  1
  F  F52  1  0.30547100  0.46914400  0.13658500  1
  F  F53  1  0.69452900  0.46914400  0.86341500  1
  F  F54  1  0.91803350  0.72324050  0.36672200  1
  F  F55  1  0.08196650  0.72324050  0.63327800  1
  F  F56  1  0.98033100  0.95925700  0.25701600  1
  F  F57  1  0.01966900  0.95925700  0.74298400  1
  F  F58  1  0.30795500  0.46585300  0.36480200  1
  F  F59  1  0.69204500  0.46585300  0.63519800  1
  F  F60  1  0.74717750  0.72784250  0.24716100  1
  F  F61  1  0.25282250  0.72784250  0.75283900  1
  F  F62  1  0.91514400  0.72776600  0.13610600  1
  F  F63  1  0.08485600  0.72776600  0.86389400  1
  F  F64  1  0.08191400  0.47744400  0.43811400  1
  F  F65  1  0.91808600  0.47744400  0.56188600  1
  F  F66  1  0.08055800  0.18684100  0.43765700  1
  F  F67  1  0.91944200  0.18684100  0.56234300  1
  F  F68  1  0.91935750  0.33470250  0.36330200  1
  F  F69  1  0.08064250  0.33470250  0.63669800  1
  F  F70  1  0.06142900  0.46939600  0.09323300  1
  F  F71  1  0.93857100  0.46939600  0.90676700  1
  F  F72  1  0.89017500  0.32456400  0.09546600  1
  F  F73  1  0.10982500  0.32456400  0.90453400  1
  F  F74  1  0.06031450  0.17830750  0.09291200  1
  F  F75  1  0.93968550  0.17830750  0.90708800  1
