# generated using pymatgen
data_PrGeBO5
_symmetry_space_group_name_H-M   'P 1'
_cell_length_a   12.19363280
_cell_length_b   12.19363280
_cell_length_c   6.84627200
_cell_angle_alpha   90.00000000
_cell_angle_beta   90.00000000
_cell_angle_gamma   120.00000000
_symmetry_Int_Tables_number   1
_chemical_formula_structural   PrGeBO5
_chemical_formula_sum   'Pr9 Ge9 B9 O45'
_cell_volume   881.55823398
_cell_formula_units_Z   9
loop_
 _symmetry_equiv_pos_site_id
 _symmetry_equiv_pos_as_xyz
  1  'x, y, z'
loop_
 _atom_site_type_symbol
 _atom_site_label
 _atom_site_symmetry_multiplicity
 _atom_site_fract_x
 _atom_site_fract_y
 _atom_site_fract_z
 _atom_site_occupancy
  Pr  Pr0  1  0.52849233  0.05664067  0.65948800  1
  Pr  Pr1  1  0.94335933  0.47185167  0.99282133  1
  Pr  Pr2  1  0.86181133  0.13809867  0.33013200  1
  Pr  Pr3  1  0.27628733  0.13818867  0.99679867  1
  Pr  Pr4  1  0.19415833  0.39048767  0.65921800  1
  Pr  Pr5  1  0.52814833  0.47150767  0.32615467  1
  Pr  Pr6  1  0.19632933  0.80584167  0.32588467  1
  Pr  Pr7  1  0.60951233  0.80367067  0.99255133  1
  Pr  Pr8  1  0.86190133  0.72371267  0.66346533  1
  Ge  Ge9  1  0.19442433  0.38669867  0.15917800  1
  Ge  Ge10  1  0.61330133  0.80772567  0.49251133  1
  Ge  Ge11  1  0.52821233  0.05364367  0.15907800  1
  Ge  Ge12  1  0.52543133  0.47178767  0.82574467  1
  Ge  Ge13  1  0.94635633  0.47456867  0.49241133  1
  Ge  Ge14  1  0.85864033  0.13852467  0.83163000  1
  Ge  Ge15  1  0.27988433  0.14135967  0.49829667  1
  Ge  Ge16  1  0.86147533  0.72011567  0.16496333  1
  Ge  Ge17  1  0.19227433  0.80557567  0.82584467  1
  B  B18  1  0.02821833  0.07223367  0.63396400  1
  B  B19  1  0.69480733  0.28892167  0.36318100  1
  B  B20  1  0.92776633  0.95598467  0.96729733  1
  B  B21  1  0.59411433  0.30519267  0.02984767  1
  B  B22  1  0.26087033  0.62231867  0.95854500  1
  B  B23  1  0.37768133  0.63855167  0.29187833  1
  B  B24  1  0.04401533  0.97178167  0.30063067  1
  B  B25  1  0.36144833  0.73912967  0.62521167  1
  B  B26  1  0.71107833  0.40588567  0.69651433  1
  O  O27  1  0.07881433  0.76931767  0.64533100  1
  O  O28  1  0.74939833  0.63341967  0.34209100  1
  O  O29  1  0.35093133  0.25650567  0.31832600  1
  O  O30  1  0.65048333  0.48739467  0.66730100  1
  O  O31  1  0.17044633  0.15359167  0.66143600  1
  O  O32  1  0.88402133  0.25060167  0.00875767  1
  O  O33  1  0.99319333  0.02998067  0.43179100  1
  O  O34  1  0.65502933  0.15161167  0.32423800  1
  O  O35  1  0.32121833  0.83626167  0.66429800  1
  O  O36  1  0.22590733  0.91978367  0.00289000  1
  O  O37  1  0.32699733  0.69705867  0.42273200  1
  O  O38  1  0.69387633  0.77409267  0.66955667  1
  O  O39  1  0.50366033  0.82164167  0.65282100  1
  O  O40  1  0.51504333  0.67878167  0.33096467  1
  O  O41  1  0.84838833  0.50341767  0.65757133  1
  O  O42  1  0.18127633  0.01078067  0.33993100  1
  O  O43  1  0.49658233  0.34497067  0.99090467  1
  O  O44  1  0.03678733  0.00680667  0.09845767  1
  O  O45  1  0.97001933  0.96321267  0.76512433  1
  O  O46  1  0.51260533  0.16308867  0.00063433  1
  O  O47  1  0.66170333  0.29619667  0.56684200  1
  O  O48  1  0.56439833  0.58747367  0.00287700  1
  O  O49  1  0.82950433  0.81872367  0.00659767  1
  O  O50  1  0.74349433  0.09442567  0.65165933  1
  O  O51  1  0.36658033  0.11597867  0.67542433  1
  O  O52  1  0.30294133  0.62993867  0.75606533  1
  O  O53  1  0.37006133  0.67300267  0.08939867  1
  O  O54  1  0.84640833  0.01685467  0.99476933  1
  O  O55  1  0.55803833  0.97167967  0.97901100  1
  O  O56  1  0.98314533  0.82955367  0.32810267  1
  O  O57  1  0.23068233  0.30949667  0.97866433  1
  O  O58  1  0.98921933  0.17049567  0.67326433  1
  O  O59  1  0.63449333  0.33829667  0.23350867  1
  O  O60  1  0.02307533  0.43560167  0.66954367  1
  O  O61  1  0.16373833  0.48495667  0.99763133  1
  O  O62  1  0.41364133  0.44196167  0.64567767  1
  O  O63  1  0.70380333  0.36550667  0.90017533  1
  O  O64  1  0.02832033  0.58635867  0.31234433  1
  O  O65  1  0.41252633  0.97692467  0.33621033  1
  O  O66  1  0.69050333  0.92118567  0.31199767  1
  O  O67  1  0.08021633  0.30612367  0.33622333  1
  O  O68  1  0.90557433  0.64906867  0.98499267  1
  O  O69  1  0.83691133  0.34951667  0.33396767  1
  O  O70  1  0.31798133  0.49633967  0.31948767  1
  O  O71  1  0.17835833  0.68201867  0.98615433  1
