# generated using pymatgen
data_Y2H16S3O20
_symmetry_space_group_name_H-M   'P 1'
_cell_length_a   13.52964800
_cell_length_b   6.75530200
_cell_length_c   18.35007670
_cell_angle_alpha   90.00000000
_cell_angle_beta   102.48658552
_cell_angle_gamma   90.00000000
_symmetry_Int_Tables_number   1
_chemical_formula_structural   Y2H16S3O20
_chemical_formula_sum   'Y8 H64 S12 O80'
_cell_volume   1637.46940169
_cell_formula_units_Z   4
loop_
 _symmetry_equiv_pos_site_id
 _symmetry_equiv_pos_as_xyz
  1  'x, y, z'
loop_
 _atom_site_type_symbol
 _atom_site_label
 _atom_site_symmetry_multiplicity
 _atom_site_fract_x
 _atom_site_fract_y
 _atom_site_fract_z
 _atom_site_occupancy
  Y  Y0  1  0.66744250  0.02195250  0.89276100  1
  Y  Y1  1  0.83255750  0.52195250  0.60723900  1
  Y  Y2  1  0.83255750  0.47804750  0.10723900  1
  Y  Y3  1  0.66744250  0.97804750  0.39276100  1
  Y  Y4  1  0.16744250  0.52195250  0.89276100  1
  Y  Y5  1  0.33255750  0.02195250  0.60723900  1
  Y  Y6  1  0.33255750  0.97804750  0.10723900  1
  Y  Y7  1  0.16744250  0.47804750  0.39276100  1
  H  H8  1  0.50591700  0.70705100  0.84108300  1
  H  H9  1  0.99408300  0.20705100  0.65891700  1
  H  H10  1  0.99408300  0.79294900  0.15891700  1
  H  H11  1  0.50591700  0.29294900  0.34108300  1
  H  H12  1  0.94582800  0.40579300  0.85238900  1
  H  H13  1  0.55417200  0.90579300  0.64761100  1
  H  H14  1  0.55417200  0.09420700  0.14761100  1
  H  H15  1  0.94582800  0.59420700  0.35238900  1
  H  H16  1  0.50786800  0.32763500  0.89437500  1
  H  H17  1  0.99213200  0.82763500  0.60562500  1
  H  H18  1  0.99213200  0.17236500  0.10562500  1
  H  H19  1  0.50786800  0.67236500  0.39437500  1
  H  H20  1  0.98808450  0.67829650  0.95600500  1
  H  H21  1  0.51191550  0.17829650  0.54399500  1
  H  H22  1  0.51191550  0.82170350  0.04399500  1
  H  H23  1  0.98808450  0.32170350  0.45600500  1
  H  H24  1  0.72624800  0.01980900  0.74530200  1
  H  H25  1  0.77375200  0.51980900  0.75469800  1
  H  H26  1  0.77375200  0.48019100  0.25469800  1
  H  H27  1  0.72624800  0.98019100  0.24530200  1
  H  H28  1  0.82927550  0.96278850  0.80298500  1
  H  H29  1  0.67072450  0.46278850  0.69701500  1
  H  H30  1  0.67072450  0.53721150  0.19701500  1
  H  H31  1  0.82927550  0.03721150  0.30298500  1
  H  H32  1  0.87597550  0.08502150  0.99190600  1
  H  H33  1  0.62402450  0.58502150  0.50809400  1
  H  H34  1  0.62402450  0.41497850  0.00809400  1
  H  H35  1  0.87597550  0.91497850  0.49190600  1
  H  H36  1  0.85496500  0.85361100  0.98262200  1
  H  H37  1  0.64503500  0.35361100  0.51737800  1
  H  H38  1  0.64503500  0.64638900  0.01737800  1
  H  H39  1  0.85496500  0.14638900  0.48262200  1
  H  H40  1  0.00591700  0.20705100  0.84108300  1
  H  H41  1  0.49408300  0.70705100  0.65891700  1
  H  H42  1  0.49408300  0.29294900  0.15891700  1
  H  H43  1  0.00591700  0.79294900  0.34108300  1
  H  H44  1  0.44582800  0.90579300  0.85238900  1
  H  H45  1  0.05417200  0.40579300  0.64761100  1
  H  H46  1  0.05417200  0.59420700  0.14761100  1
  H  H47  1  0.44582800  0.09420700  0.35238900  1
  H  H48  1  0.00786800  0.82763500  0.89437500  1
  H  H49  1  0.49213200  0.32763500  0.60562500  1
  H  H50  1  0.49213200  0.67236500  0.10562500  1
  H  H51  1  0.00786800  0.17236500  0.39437500  1
  H  H52  1  0.48808450  0.17829650  0.95600500  1
  H  H53  1  0.01191550  0.67829650  0.54399500  1
  H  H54  1  0.01191550  0.32170350  0.04399500  1
  H  H55  1  0.48808450  0.82170350  0.45600500  1
  H  H56  1  0.22624800  0.51980900  0.74530200  1
  H  H57  1  0.27375200  0.01980900  0.75469800  1
  H  H58  1  0.27375200  0.98019100  0.25469800  1
  H  H59  1  0.22624800  0.48019100  0.24530200  1
  H  H60  1  0.32927550  0.46278850  0.80298500  1
  H  H61  1  0.17072450  0.96278850  0.69701500  1
  H  H62  1  0.17072450  0.03721150  0.19701500  1
  H  H63  1  0.32927550  0.53721150  0.30298500  1
  H  H64  1  0.37597550  0.58502150  0.99190600  1
  H  H65  1  0.12402450  0.08502150  0.50809400  1
  H  H66  1  0.12402450  0.91497850  0.00809400  1
  H  H67  1  0.37597550  0.41497850  0.49190600  1
  H  H68  1  0.35496500  0.35361100  0.98262200  1
  H  H69  1  0.14503500  0.85361100  0.51737800  1
  H  H70  1  0.14503500  0.14638900  0.01737800  1
  H  H71  1  0.35496500  0.64638900  0.48262200  1
  S  S72  1  0.78174900  0.52892400  0.90946000  1
  S  S73  1  0.71825100  0.02892400  0.59054000  1
  S  S74  1  0.71825100  0.97107600  0.09054000  1
  S  S75  1  0.78174900  0.47107600  0.40946000  1
  S  S76  1  0.00000000  0.82742800  0.75000000  1
  S  S77  1  0.00000000  0.17257200  0.25000000  1
  S  S78  1  0.28174900  0.02892400  0.90946000  1
  S  S79  1  0.21825100  0.52892400  0.59054000  1
  S  S80  1  0.21825100  0.47107600  0.09054000  1
  S  S81  1  0.28174900  0.97107600  0.40946000  1
  S  S82  1  0.50000000  0.32742800  0.75000000  1
  S  S83  1  0.50000000  0.67257200  0.25000000  1
  O  O84  1  0.83729150  0.53314750  0.84841700  1
  O  O85  1  0.66270850  0.03314750  0.65158300  1
  O  O86  1  0.66270850  0.96685250  0.15158300  1
  O  O87  1  0.83729150  0.46685250  0.34841700  1
  O  O88  1  0.74004350  0.33053050  0.91832500  1
  O  O89  1  0.75995650  0.83053050  0.58167500  1
  O  O90  1  0.75995650  0.16946950  0.08167500  1
  O  O91  1  0.74004350  0.66946950  0.41832500  1
  O  O92  1  0.69885700  0.67698800  0.89602300  1
  O  O93  1  0.80114300  0.17698800  0.60397700  1
  O  O94  1  0.80114300  0.82301200  0.10397700  1
  O  O95  1  0.69885700  0.32301200  0.39602300  1
  O  O96  1  0.85526450  0.57907150  0.98225600  1
  O  O97  1  0.64473550  0.07907150  0.51774400  1
  O  O98  1  0.64473550  0.92092850  0.01774400  1
  O  O99  1  0.85526450  0.42092850  0.48225600  1
  O  O100  1  0.58501600  0.19991900  0.78777400  1
  O  O101  1  0.91498400  0.69991900  0.71222600  1
  O  O102  1  0.91498400  0.30008100  0.21222600  1
  O  O103  1  0.58501600  0.80008100  0.28777400  1
  O  O104  1  0.96571450  0.95329850  0.80700100  1
  O  O105  1  0.53428550  0.45329850  0.69299900  1
  O  O106  1  0.53428550  0.54670150  0.19299900  1
  O  O107  1  0.96571450  0.04670150  0.30700100  1
  O  O108  1  0.51421050  0.84393150  0.86026500  1
  O  O109  1  0.98578950  0.34393150  0.63973500  1
  O  O110  1  0.98578950  0.65606850  0.13973500  1
  O  O111  1  0.51421050  0.15606850  0.36026500  1
  O  O112  1  0.54249700  0.24290400  0.93683000  1
  O  O113  1  0.95750300  0.74290400  0.56317000  1
  O  O114  1  0.95750300  0.25709600  0.06317000  1
  O  O115  1  0.54249700  0.75709600  0.43683000  1
  O  O116  1  0.75694900  0.99409800  0.79860100  1
  O  O117  1  0.74305100  0.49409800  0.70139900  1
  O  O118  1  0.74305100  0.50590200  0.20139900  1
  O  O119  1  0.75694900  0.00590200  0.29860100  1
  O  O120  1  0.84114850  0.98260050  0.95724000  1
  O  O121  1  0.65885150  0.48260050  0.54276000  1
  O  O122  1  0.65885150  0.51739950  0.04276000  1
  O  O123  1  0.84114850  0.01739950  0.45724000  1
  O  O124  1  0.33729150  0.03314750  0.84841700  1
  O  O125  1  0.16270850  0.53314750  0.65158300  1
  O  O126  1  0.16270850  0.46685250  0.15158300  1
  O  O127  1  0.33729150  0.96685250  0.34841700  1
  O  O128  1  0.24004350  0.83053050  0.91832500  1
  O  O129  1  0.25995650  0.33053050  0.58167500  1
  O  O130  1  0.25995650  0.66946950  0.08167500  1
  O  O131  1  0.24004350  0.16946950  0.41832500  1
  O  O132  1  0.19885700  0.17698800  0.89602300  1
  O  O133  1  0.30114300  0.67698800  0.60397700  1
  O  O134  1  0.30114300  0.32301200  0.10397700  1
  O  O135  1  0.19885700  0.82301200  0.39602300  1
  O  O136  1  0.35526450  0.07907150  0.98225600  1
  O  O137  1  0.14473550  0.57907150  0.51774400  1
  O  O138  1  0.14473550  0.42092850  0.01774400  1
  O  O139  1  0.35526450  0.92092850  0.48225600  1
  O  O140  1  0.08501600  0.69991900  0.78777400  1
  O  O141  1  0.41498400  0.19991900  0.71222600  1
  O  O142  1  0.41498400  0.80008100  0.21222600  1
  O  O143  1  0.08501600  0.30008100  0.28777400  1
  O  O144  1  0.46571450  0.45329850  0.80700100  1
  O  O145  1  0.03428550  0.95329850  0.69299900  1
  O  O146  1  0.03428550  0.04670150  0.19299900  1
  O  O147  1  0.46571450  0.54670150  0.30700100  1
  O  O148  1  0.01421050  0.34393150  0.86026500  1
  O  O149  1  0.48578950  0.84393150  0.63973500  1
  O  O150  1  0.48578950  0.15606850  0.13973500  1
  O  O151  1  0.01421050  0.65606850  0.36026500  1
  O  O152  1  0.04249700  0.74290400  0.93683000  1
  O  O153  1  0.45750300  0.24290400  0.56317000  1
  O  O154  1  0.45750300  0.75709600  0.06317000  1
  O  O155  1  0.04249700  0.25709600  0.43683000  1
  O  O156  1  0.25694900  0.49409800  0.79860100  1
  O  O157  1  0.24305100  0.99409800  0.70139900  1
  O  O158  1  0.24305100  0.00590200  0.20139900  1
  O  O159  1  0.25694900  0.50590200  0.29860100  1
  O  O160  1  0.34114850  0.48260050  0.95724000  1
  O  O161  1  0.15885150  0.98260050  0.54276000  1
  O  O162  1  0.15885150  0.01739950  0.04276000  1
  O  O163  1  0.34114850  0.51739950  0.45724000  1
