# generated using pymatgen
data_Ba4Ti2PtO10
_symmetry_space_group_name_H-M   'P 1'
_cell_length_a   5.84947000
_cell_length_b   13.58682000
_cell_length_c   13.31864400
_cell_angle_alpha   90.00000000
_cell_angle_beta   90.00000000
_cell_angle_gamma   90.00000000
_symmetry_Int_Tables_number   1
_chemical_formula_structural   Ba4Ti2PtO10
_chemical_formula_sum   'Ba16 Ti8 Pt4 O40'
_cell_volume   1058.50850148
_cell_formula_units_Z   4
loop_
 _symmetry_equiv_pos_site_id
 _symmetry_equiv_pos_as_xyz
  1  'x, y, z'
loop_
 _atom_site_type_symbol
 _atom_site_label
 _atom_site_symmetry_multiplicity
 _atom_site_fract_x
 _atom_site_fract_y
 _atom_site_fract_z
 _atom_site_occupancy
  Ba  Ba0  1  0.50000000  0.52921900  0.64209200  1
  Ba  Ba1  1  0.50000000  0.76562900  0.39983900  1
  Ba  Ba2  1  0.00000000  0.76562900  0.10016100  1
  Ba  Ba3  1  0.50000000  0.97078100  0.14209200  1
  Ba  Ba4  1  0.00000000  0.52921900  0.85790800  1
  Ba  Ba5  1  0.50000000  0.73437100  0.89983900  1
  Ba  Ba6  1  0.00000000  0.97078100  0.35790800  1
  Ba  Ba7  1  0.00000000  0.73437100  0.60016100  1
  Ba  Ba8  1  0.00000000  0.02921900  0.64209200  1
  Ba  Ba9  1  0.00000000  0.26562900  0.39983900  1
  Ba  Ba10  1  0.50000000  0.26562900  0.10016100  1
  Ba  Ba11  1  0.00000000  0.47078100  0.14209200  1
  Ba  Ba12  1  0.50000000  0.02921900  0.85790800  1
  Ba  Ba13  1  0.00000000  0.23437100  0.89983900  1
  Ba  Ba14  1  0.50000000  0.47078100  0.35790800  1
  Ba  Ba15  1  0.50000000  0.23437100  0.60016100  1
  Ti  Ti16  1  0.50000000  0.86122300  0.65529300  1
  Ti  Ti17  1  0.50000000  0.63877700  0.15529300  1
  Ti  Ti18  1  0.00000000  0.63877700  0.34470700  1
  Ti  Ti19  1  0.00000000  0.86122300  0.84470700  1
  Ti  Ti20  1  0.00000000  0.36122300  0.65529300  1
  Ti  Ti21  1  0.00000000  0.13877700  0.15529300  1
  Ti  Ti22  1  0.50000000  0.13877700  0.34470700  1
  Ti  Ti23  1  0.50000000  0.36122300  0.84470700  1
  Pt  Pt24  1  0.00000000  0.50000000  0.50000000  1
  Pt  Pt25  1  0.50000000  0.50000000  0.00000000  1
  Pt  Pt26  1  0.50000000  0.00000000  0.50000000  1
  Pt  Pt27  1  0.00000000  0.00000000  0.00000000  1
  O  O28  1  0.00000000  0.96387500  0.15125700  1
  O  O29  1  0.00000000  0.77030600  0.35900800  1
  O  O30  1  0.77442650  0.89143550  0.96009100  1
  O  O31  1  0.27442650  0.89143550  0.53990900  1
  O  O32  1  0.75000000  0.62779100  0.25000000  1
  O  O33  1  0.25000000  0.62779100  0.25000000  1
  O  O34  1  0.50000000  0.72969400  0.64099200  1
  O  O35  1  0.50000000  0.96387500  0.34874300  1
  O  O36  1  0.75000000  0.87220900  0.75000000  1
  O  O37  1  0.22557350  0.89143550  0.96009100  1
  O  O38  1  0.00000000  0.72969400  0.85900800  1
  O  O39  1  0.50000000  0.53612500  0.84874300  1
  O  O40  1  0.25000000  0.87220900  0.75000000  1
  O  O41  1  0.22557350  0.60856450  0.46009100  1
  O  O42  1  0.72557350  0.60856450  0.03990900  1
  O  O43  1  0.50000000  0.77030600  0.14099200  1
  O  O44  1  0.77442650  0.60856450  0.46009100  1
  O  O45  1  0.27442650  0.60856450  0.03990900  1
  O  O46  1  0.00000000  0.53612500  0.65125700  1
  O  O47  1  0.72557350  0.89143550  0.53990900  1
  O  O48  1  0.50000000  0.46387500  0.15125700  1
  O  O49  1  0.50000000  0.27030600  0.35900800  1
  O  O50  1  0.27442650  0.39143550  0.96009100  1
  O  O51  1  0.77442650  0.39143550  0.53990900  1
  O  O52  1  0.25000000  0.12779100  0.25000000  1
  O  O53  1  0.75000000  0.12779100  0.25000000  1
  O  O54  1  0.00000000  0.22969400  0.64099200  1
  O  O55  1  0.00000000  0.46387500  0.34874300  1
  O  O56  1  0.25000000  0.37220900  0.75000000  1
  O  O57  1  0.72557350  0.39143550  0.96009100  1
  O  O58  1  0.50000000  0.22969400  0.85900800  1
  O  O59  1  0.00000000  0.03612500  0.84874300  1
  O  O60  1  0.75000000  0.37220900  0.75000000  1
  O  O61  1  0.72557350  0.10856450  0.46009100  1
  O  O62  1  0.22557350  0.10856450  0.03990900  1
  O  O63  1  0.00000000  0.27030600  0.14099200  1
  O  O64  1  0.27442650  0.10856450  0.46009100  1
  O  O65  1  0.77442650  0.10856450  0.03990900  1
  O  O66  1  0.50000000  0.03612500  0.65125700  1
  O  O67  1  0.22557350  0.39143550  0.53990900  1
