# generated using pymatgen
data_Li8Bi2PdO10
_symmetry_space_group_name_H-M   'P 1'
_cell_length_a   9.82087200
_cell_length_b   4.28346400
_cell_length_c   11.27159047
_cell_angle_alpha   90.00000000
_cell_angle_beta   105.81233867
_cell_angle_gamma   90.00000000
_symmetry_Int_Tables_number   1
_chemical_formula_structural   Li8Bi2PdO10
_chemical_formula_sum   'Li16 Bi4 Pd2 O20'
_cell_volume   456.22320520
_cell_formula_units_Z   2
loop_
 _symmetry_equiv_pos_site_id
 _symmetry_equiv_pos_as_xyz
  1  'x, y, z'
loop_
 _atom_site_type_symbol
 _atom_site_label
 _atom_site_symmetry_multiplicity
 _atom_site_fract_x
 _atom_site_fract_y
 _atom_site_fract_z
 _atom_site_occupancy
  Li  Li0  1  0.12005000  0.50000000  0.46159900  1
  Li  Li1  1  0.25292900  0.00000000  0.90592800  1
  Li  Li2  1  0.08609200  0.00000000  0.61489200  1
  Li  Li3  1  0.91390800  0.00000000  0.38510800  1
  Li  Li4  1  0.74707100  0.00000000  0.09407200  1
  Li  Li5  1  0.87995000  0.50000000  0.53840100  1
  Li  Li6  1  0.05216000  0.50000000  0.80521400  1
  Li  Li7  1  0.94784000  0.50000000  0.19478600  1
  Li  Li8  1  0.62005000  0.00000000  0.46159900  1
  Li  Li9  1  0.75292900  0.50000000  0.90592800  1
  Li  Li10  1  0.58609200  0.50000000  0.61489200  1
  Li  Li11  1  0.41390800  0.50000000  0.38510800  1
  Li  Li12  1  0.24707100  0.50000000  0.09407200  1
  Li  Li13  1  0.37995000  0.00000000  0.53840100  1
  Li  Li14  1  0.55216000  0.00000000  0.80521400  1
  Li  Li15  1  0.44784000  0.00000000  0.19478600  1
  Bi  Bi16  1  0.68145400  0.50000000  0.28004800  1
  Bi  Bi17  1  0.31854600  0.50000000  0.71995200  1
  Bi  Bi18  1  0.18145400  0.00000000  0.28004800  1
  Bi  Bi19  1  0.81854600  0.00000000  0.71995200  1
  Pd  Pd20  1  0.00000000  0.00000000  0.00000000  1
  Pd  Pd21  1  0.50000000  0.50000000  0.00000000  1
  O  O22  1  0.96166300  0.00000000  0.16705800  1
  O  O23  1  0.67383000  0.00000000  0.25824300  1
  O  O24  1  0.32617000  0.00000000  0.74175700  1
  O  O25  1  0.89971200  0.50000000  0.35872100  1
  O  O26  1  0.10028800  0.50000000  0.64127900  1
  O  O27  1  0.71069900  0.50000000  0.09149200  1
  O  O28  1  0.03833700  0.00000000  0.83294200  1
  O  O29  1  0.12791700  0.00000000  0.44579200  1
  O  O30  1  0.87208300  0.00000000  0.55420800  1
  O  O31  1  0.28930100  0.50000000  0.90850800  1
  O  O32  1  0.46166300  0.50000000  0.16705800  1
  O  O33  1  0.17383000  0.50000000  0.25824300  1
  O  O34  1  0.82617000  0.50000000  0.74175700  1
  O  O35  1  0.39971200  0.00000000  0.35872100  1
  O  O36  1  0.60028800  0.00000000  0.64127900  1
  O  O37  1  0.21069900  0.00000000  0.09149200  1
  O  O38  1  0.53833700  0.50000000  0.83294200  1
  O  O39  1  0.62791700  0.50000000  0.44579200  1
  O  O40  1  0.37208300  0.50000000  0.55420800  1
  O  O41  1  0.78930100  0.00000000  0.90850800  1
