# generated using pymatgen
data_Er2TiO5
_symmetry_space_group_name_H-M   'P 1'
_cell_length_a   12.87989200
_cell_length_b   7.24361800
_cell_length_c   17.68892712
_cell_angle_alpha   90.00000000
_cell_angle_beta   90.52836233
_cell_angle_gamma   90.00000000
_symmetry_Int_Tables_number   1
_chemical_formula_structural   Er2TiO5
_chemical_formula_sum   'Er32 Ti16 O80'
_cell_volume   1650.25397304
_cell_formula_units_Z   16
loop_
 _symmetry_equiv_pos_site_id
 _symmetry_equiv_pos_as_xyz
  1  'x, y, z'
loop_
 _atom_site_type_symbol
 _atom_site_label
 _atom_site_symmetry_multiplicity
 _atom_site_fract_x
 _atom_site_fract_y
 _atom_site_fract_z
 _atom_site_occupancy
  Er  Er0  1  0.84194000  0.50000000  0.82161200  1
  Er  Er1  1  0.51548200  0.00000000  0.00223100  1
  Er  Er2  1  0.82655200  0.00000000  0.84842700  1
  Er  Er3  1  0.58263100  0.75581800  0.83344100  1
  Er  Er4  1  0.51609700  0.50000000  0.48560900  1
  Er  Er5  1  0.98247300  0.00000000  0.00897400  1
  Er  Er6  1  0.58263100  0.24418200  0.83344100  1
  Er  Er7  1  0.99673100  0.50000000  0.49395000  1
  Er  Er8  1  0.76033500  0.25946000  0.49455100  1
  Er  Er9  1  0.68584300  0.00000000  0.67357700  1
  Er  Er10  1  0.68179600  0.50000000  0.65901400  1
  Er  Er11  1  0.76033500  0.74054000  0.49455100  1
  Er  Er12  1  0.67253300  0.50000000  0.15478900  1
  Er  Er13  1  0.93644650  0.74606150  0.17802700  1
  Er  Er14  1  0.84888000  0.50000000  0.32757200  1
  Er  Er15  1  0.93644650  0.25393850  0.17802700  1
  Er  Er16  1  0.34194000  0.00000000  0.82161200  1
  Er  Er17  1  0.01548200  0.50000000  0.00223100  1
  Er  Er18  1  0.32655200  0.50000000  0.84842700  1
  Er  Er19  1  0.08263100  0.25581800  0.83344100  1
  Er  Er20  1  0.01609700  0.00000000  0.48560900  1
  Er  Er21  1  0.48247300  0.50000000  0.00897400  1
  Er  Er22  1  0.08263100  0.74418200  0.83344100  1
  Er  Er23  1  0.49673100  0.00000000  0.49395000  1
  Er  Er24  1  0.26033500  0.75946000  0.49455100  1
  Er  Er25  1  0.18584300  0.50000000  0.67357700  1
  Er  Er26  1  0.18179600  0.00000000  0.65901400  1
  Er  Er27  1  0.26033500  0.24054000  0.49455100  1
  Er  Er28  1  0.17253300  0.00000000  0.15478900  1
  Er  Er29  1  0.43644650  0.24606150  0.17802700  1
  Er  Er30  1  0.34888000  0.00000000  0.32757200  1
  Er  Er31  1  0.43644650  0.75393850  0.17802700  1
  Ti  Ti32  1  0.76235450  0.73782150  0.00045400  1
  Ti  Ti33  1  0.76235450  0.26217850  0.00045400  1
  Ti  Ti34  1  0.91987200  0.75289800  0.66617400  1
  Ti  Ti35  1  0.83734100  0.00000000  0.32733300  1
  Ti  Ti36  1  0.91987200  0.24710200  0.66617400  1
  Ti  Ti37  1  0.59420600  0.75384400  0.33685600  1
  Ti  Ti38  1  0.66618600  0.00000000  0.16294200  1
  Ti  Ti39  1  0.59420600  0.24615600  0.33685600  1
  Ti  Ti40  1  0.26235450  0.23782150  0.00045400  1
  Ti  Ti41  1  0.26235450  0.76217850  0.00045400  1
  Ti  Ti42  1  0.41987200  0.25289800  0.66617400  1
  Ti  Ti43  1  0.33734100  0.50000000  0.32733300  1
  Ti  Ti44  1  0.41987200  0.74710200  0.66617400  1
  Ti  Ti45  1  0.09420600  0.25384400  0.33685600  1
  Ti  Ti46  1  0.16618600  0.50000000  0.16294200  1
  Ti  Ti47  1  0.09420600  0.74615600  0.33685600  1
  O  O48  1  0.80990100  0.00000000  0.97593700  1
  O  O49  1  0.91722600  0.21854500  0.79043300  1
  O  O50  1  0.91722600  0.78145500  0.79043300  1
  O  O51  1  0.57229050  0.72234950  0.95746300  1
  O  O52  1  0.56093600  0.22644500  0.68258600  1
  O  O53  1  0.99371900  0.50000000  0.87805700  1
  O  O54  1  0.86217500  0.50000000  0.69027900  1
  O  O55  1  0.59591700  0.21682300  0.45306800  1
  O  O56  1  0.66102200  0.50000000  0.78435200  1
  O  O57  1  0.57229050  0.27765050  0.95746300  1
  O  O58  1  0.56093600  0.77355500  0.68258600  1
  O  O59  1  0.76628550  0.28546850  0.89612200  1
  O  O60  1  0.67876700  0.00000000  0.79485800  1
  O  O61  1  0.59591700  0.78317700  0.45306800  1
  O  O62  1  0.75182500  0.23425600  0.61844400  1
  O  O63  1  0.73858450  0.76932950  0.34687400  1
  O  O64  1  0.66742500  0.50000000  0.53541800  1
  O  O65  1  0.69187500  0.81694100  0.09293700  1
  O  O66  1  0.58348200  0.50000000  0.36299100  1
  O  O67  1  0.88146000  0.00000000  0.67616600  1
  O  O68  1  0.75182500  0.76574400  0.61844400  1
  O  O69  1  0.76628550  0.71453150  0.89612200  1
  O  O70  1  0.84367900  0.00000000  0.44087900  1
  O  O71  1  0.73858450  0.23067050  0.34687400  1
  O  O72  1  0.93883750  0.75195450  0.55690800  1
  O  O73  1  0.69187500  0.18305900  0.09293700  1
  O  O74  1  0.82831400  0.50000000  0.20551600  1
  O  O75  1  0.92841150  0.79678450  0.30628200  1
  O  O76  1  0.84298300  0.50000000  0.44973100  1
  O  O77  1  0.79930200  0.00000000  0.21738100  1
  O  O78  1  0.89484300  0.28718800  0.04369500  1
  O  O79  1  0.52622500  0.00000000  0.34233800  1
  O  O80  1  0.93883750  0.24804550  0.55690800  1
  O  O81  1  0.51871800  0.00000000  0.13733200  1
  O  O82  1  0.92841150  0.20321550  0.30628200  1
  O  O83  1  0.89484300  0.71281200  0.04369500  1
  O  O84  1  0.60686750  0.74858950  0.22740400  1
  O  O85  1  0.50311100  0.50000000  0.12839400  1
  O  O86  1  0.71914700  0.50000000  0.03414000  1
  O  O87  1  0.60686750  0.25141050  0.22740400  1
  O  O88  1  0.30990100  0.50000000  0.97593700  1
  O  O89  1  0.41722600  0.71854500  0.79043300  1
  O  O90  1  0.41722600  0.28145500  0.79043300  1
  O  O91  1  0.07229050  0.22234950  0.95746300  1
  O  O92  1  0.06093600  0.72644500  0.68258600  1
  O  O93  1  0.49371900  0.00000000  0.87805700  1
  O  O94  1  0.36217500  0.00000000  0.69027900  1
  O  O95  1  0.09591700  0.71682300  0.45306800  1
  O  O96  1  0.16102200  0.00000000  0.78435200  1
  O  O97  1  0.07229050  0.77765050  0.95746300  1
  O  O98  1  0.06093600  0.27355500  0.68258600  1
  O  O99  1  0.26628550  0.78546850  0.89612200  1
  O  O100  1  0.17876700  0.50000000  0.79485800  1
  O  O101  1  0.09591700  0.28317700  0.45306800  1
  O  O102  1  0.25182500  0.73425600  0.61844400  1
  O  O103  1  0.23858450  0.26932950  0.34687400  1
  O  O104  1  0.16742500  0.00000000  0.53541800  1
  O  O105  1  0.19187500  0.31694100  0.09293700  1
  O  O106  1  0.08348200  0.00000000  0.36299100  1
  O  O107  1  0.38146000  0.50000000  0.67616600  1
  O  O108  1  0.25182500  0.26574400  0.61844400  1
  O  O109  1  0.26628550  0.21453150  0.89612200  1
  O  O110  1  0.34367900  0.50000000  0.44087900  1
  O  O111  1  0.23858450  0.73067050  0.34687400  1
  O  O112  1  0.43883750  0.25195450  0.55690800  1
  O  O113  1  0.19187500  0.68305900  0.09293700  1
  O  O114  1  0.32831400  0.00000000  0.20551600  1
  O  O115  1  0.42841150  0.29678450  0.30628200  1
  O  O116  1  0.34298300  0.00000000  0.44973100  1
  O  O117  1  0.29930200  0.50000000  0.21738100  1
  O  O118  1  0.39484300  0.78718800  0.04369500  1
  O  O119  1  0.02622500  0.50000000  0.34233800  1
  O  O120  1  0.43883750  0.74804550  0.55690800  1
  O  O121  1  0.01871800  0.50000000  0.13733200  1
  O  O122  1  0.42841150  0.70321550  0.30628200  1
  O  O123  1  0.39484300  0.21281200  0.04369500  1
  O  O124  1  0.10686750  0.24858950  0.22740400  1
  O  O125  1  0.00311100  0.00000000  0.12839400  1
  O  O126  1  0.21914700  0.00000000  0.03414000  1
  O  O127  1  0.10686750  0.75141050  0.22740400  1
