# generated using pymatgen
data_ZnS
_symmetry_space_group_name_H-M   'P 1'
_cell_length_a   3.84852786
_cell_length_b   3.84852786
_cell_length_c   37.75840699
_cell_angle_alpha   90.00000000
_cell_angle_beta   90.00000000
_cell_angle_gamma   120.00000000
_symmetry_Int_Tables_number   1
_chemical_formula_structural   ZnS
_chemical_formula_sum   'Zn12 S12'
_cell_volume   484.32129585
_cell_formula_units_Z   12
loop_
 _symmetry_equiv_pos_site_id
 _symmetry_equiv_pos_as_xyz
  1  'x, y, z'
loop_
 _atom_site_type_symbol
 _atom_site_label
 _atom_site_symmetry_multiplicity
 _atom_site_fract_x
 _atom_site_fract_y
 _atom_site_fract_z
 _atom_site_occupancy
  Zn  Zn0  1  0.33333333  0.66666667  0.08332267  1
  Zn  Zn1  1  0.00000000  0.00000000  0.00003300  1
  Zn  Zn2  1  0.33333333  0.66666667  0.25003967  1
  Zn  Zn3  1  0.66666667  0.33333333  0.16665533  1
  Zn  Zn4  1  0.00000000  0.00000000  0.41665600  1
  Zn  Zn5  1  0.66666667  0.33333333  0.33336633  1
  Zn  Zn6  1  0.00000000  0.00000000  0.58337300  1
  Zn  Zn7  1  0.33333333  0.66666667  0.49998867  1
  Zn  Zn8  1  0.66666667  0.33333333  0.74998933  1
  Zn  Zn9  1  0.33333333  0.66666667  0.66669967  1
  Zn  Zn10  1  0.66666667  0.33333333  0.91670633  1
  Zn  Zn11  1  0.00000000  0.00000000  0.83332200  1
  S  S12  1  0.33333333  0.66666667  0.31258067  1
  S  S13  1  0.66666667  0.33333333  0.22917533  1
  S  S14  1  0.33333333  0.66666667  0.14578767  1
  S  S15  1  0.00000000  0.00000000  0.06250600  1
  S  S16  1  0.00000000  0.00000000  0.64591400  1
  S  S17  1  0.33333333  0.66666667  0.56250867  1
  S  S18  1  0.00000000  0.00000000  0.47912100  1
  S  S19  1  0.66666667  0.33333333  0.39583933  1
  S  S20  1  0.66666667  0.33333333  0.97924733  1
  S  S21  1  0.00000000  0.00000000  0.89584200  1
  S  S22  1  0.66666667  0.33333333  0.81245433  1
  S  S23  1  0.33333333  0.66666667  0.72917267  1
