# generated using pymatgen
data_K2NaS2ClO6
_symmetry_space_group_name_H-M   'P 1'
_cell_length_a   12.32220600
_cell_length_b   12.32220600
_cell_length_c   5.67074700
_cell_angle_alpha   90.00000000
_cell_angle_beta   90.00000000
_cell_angle_gamma   90.00000000
_symmetry_Int_Tables_number   1
_chemical_formula_structural   K2NaS2ClO6
_chemical_formula_sum   'K8 Na4 S8 Cl4 O24'
_cell_volume   861.02785527
_cell_formula_units_Z   4
loop_
 _symmetry_equiv_pos_site_id
 _symmetry_equiv_pos_as_xyz
  1  'x, y, z'
loop_
 _atom_site_type_symbol
 _atom_site_label
 _atom_site_symmetry_multiplicity
 _atom_site_fract_x
 _atom_site_fract_y
 _atom_site_fract_z
 _atom_site_occupancy
  K  K0  1  0.25015100  0.05537400  0.48260700  1
  K  K1  1  0.44462600  0.75015100  0.48260700  1
  K  K2  1  0.24984900  0.44462600  0.51739300  1
  K  K3  1  0.74984900  0.94462600  0.48260700  1
  K  K4  1  0.55537400  0.24984900  0.48260700  1
  K  K5  1  0.94462600  0.25015100  0.51739300  1
  K  K6  1  0.75015100  0.55537400  0.51739300  1
  K  K7  1  0.05537400  0.74984900  0.51739300  1
  Na  Na8  1  0.00000000  0.50000000  0.94722400  1
  Na  Na9  1  0.00000000  0.00000000  0.00000000  1
  Na  Na10  1  0.50000000  0.00000000  0.05277600  1
  Na  Na11  1  0.50000000  0.50000000  0.00000000  1
  S  S12  1  0.83771700  0.75912200  0.02449000  1
  S  S13  1  0.25912200  0.66228300  0.02449000  1
  S  S14  1  0.24087800  0.83771700  0.97551000  1
  S  S15  1  0.33771700  0.25912200  0.97551000  1
  S  S16  1  0.66228300  0.74087800  0.97551000  1
  S  S17  1  0.16228300  0.24087800  0.02449000  1
  S  S18  1  0.74087800  0.33771700  0.02449000  1
  S  S19  1  0.75912200  0.16228300  0.97551000  1
  Cl  Cl20  1  0.00000000  0.50000000  0.43848200  1
  Cl  Cl21  1  0.00000000  0.00000000  0.50000000  1
  Cl  Cl22  1  0.50000000  0.00000000  0.56151800  1
  Cl  Cl23  1  0.50000000  0.50000000  0.50000000  1
  O  O24  1  0.86044700  0.86751200  0.92818800  1
  O  O25  1  0.86751200  0.13955300  0.07181200  1
  O  O26  1  0.83001500  0.38704600  0.88856400  1
  O  O27  1  0.64719600  0.74945900  0.71893000  1
  O  O28  1  0.38704600  0.16998500  0.11143600  1
  O  O29  1  0.66998500  0.11295400  0.11143600  1
  O  O30  1  0.36751200  0.63955300  0.92818800  1
  O  O31  1  0.25054100  0.64719600  0.28107000  1
  O  O32  1  0.75054100  0.14719600  0.71893000  1
  O  O33  1  0.14719600  0.24945900  0.28107000  1
  O  O34  1  0.36044700  0.36751200  0.07181200  1
  O  O35  1  0.11295400  0.33001500  0.88856400  1
  O  O36  1  0.63955300  0.63248800  0.07181200  1
  O  O37  1  0.13955300  0.13248800  0.92818800  1
  O  O38  1  0.74945900  0.35280400  0.28107000  1
  O  O39  1  0.63248800  0.36044700  0.92818800  1
  O  O40  1  0.13248800  0.86044700  0.07181200  1
  O  O41  1  0.85280400  0.75054100  0.28107000  1
  O  O42  1  0.24945900  0.85280400  0.71893000  1
  O  O43  1  0.16998500  0.61295400  0.88856400  1
  O  O44  1  0.33001500  0.88704600  0.11143600  1
  O  O45  1  0.35280400  0.25054100  0.71893000  1
  O  O46  1  0.88704600  0.66998500  0.88856400  1
  O  O47  1  0.61295400  0.83001500  0.11143600  1
