# generated using pymatgen
data_YSiNO2
_symmetry_space_group_name_H-M   'P 1'
_cell_length_a   7.05468000
_cell_length_b   12.30028400
_cell_length_c   9.20397000
_cell_angle_alpha   90.00000000
_cell_angle_beta   90.00000000
_cell_angle_gamma   90.00000000
_symmetry_Int_Tables_number   1
_chemical_formula_structural   YSiNO2
_chemical_formula_sum   'Y12 Si12 N12 O24'
_cell_volume   798.67051630
_cell_formula_units_Z   12
loop_
 _symmetry_equiv_pos_site_id
 _symmetry_equiv_pos_as_xyz
  1  'x, y, z'
loop_
 _atom_site_type_symbol
 _atom_site_label
 _atom_site_symmetry_multiplicity
 _atom_site_fract_x
 _atom_site_fract_y
 _atom_site_fract_z
 _atom_site_occupancy
  Y  Y0  1  0.00000000  0.17499500  0.50000000  1
  Y  Y1  1  0.50000000  0.32500500  0.00000000  1
  Y  Y2  1  0.00000000  0.17499500  0.00000000  1
  Y  Y3  1  0.50000000  0.32500500  0.50000000  1
  Y  Y4  1  0.50000000  0.00000000  0.50000000  1
  Y  Y5  1  0.50000000  0.00000000  0.00000000  1
  Y  Y6  1  0.50000000  0.67499500  0.50000000  1
  Y  Y7  1  0.00000000  0.82500500  0.00000000  1
  Y  Y8  1  0.50000000  0.67499500  0.00000000  1
  Y  Y9  1  0.00000000  0.82500500  0.50000000  1
  Y  Y10  1  0.00000000  0.50000000  0.50000000  1
  Y  Y11  1  0.00000000  0.50000000  0.00000000  1
  Si  Si12  1  0.71288250  0.12222950  0.25000000  1
  Si  Si13  1  0.28711750  0.12222950  0.75000000  1
  Si  Si14  1  0.08357600  0.00000000  0.25000000  1
  Si  Si15  1  0.78711750  0.37777050  0.75000000  1
  Si  Si16  1  0.91642400  0.00000000  0.75000000  1
  Si  Si17  1  0.21288250  0.37777050  0.25000000  1
  Si  Si18  1  0.21288250  0.62222950  0.25000000  1
  Si  Si19  1  0.78711750  0.62222950  0.75000000  1
  Si  Si20  1  0.58357600  0.50000000  0.25000000  1
  Si  Si21  1  0.28711750  0.87777050  0.75000000  1
  Si  Si22  1  0.41642400  0.50000000  0.75000000  1
  Si  Si23  1  0.71288250  0.87777050  0.25000000  1
  N  N24  1  0.40186100  0.00000000  0.75000000  1
  N  N25  1  0.04475850  0.11863350  0.75000000  1
  N  N26  1  0.54475850  0.38136650  0.75000000  1
  N  N27  1  0.95524150  0.11863350  0.25000000  1
  N  N28  1  0.59813900  0.00000000  0.25000000  1
  N  N29  1  0.45524150  0.38136650  0.25000000  1
  N  N30  1  0.90186100  0.50000000  0.75000000  1
  N  N31  1  0.54475850  0.61863350  0.75000000  1
  N  N32  1  0.04475850  0.88136650  0.75000000  1
  N  N33  1  0.45524150  0.61863350  0.25000000  1
  N  N34  1  0.09813900  0.50000000  0.25000000  1
  N  N35  1  0.95524150  0.88136650  0.25000000  1
  O  O36  1  0.65424150  0.17989950  0.09428800  1
  O  O37  1  0.34575850  0.17989950  0.90571200  1
  O  O38  1  0.34575850  0.17989950  0.59428800  1
  O  O39  1  0.15424150  0.32010050  0.09428800  1
  O  O40  1  0.19661200  0.00000000  0.40857600  1
  O  O41  1  0.84575850  0.32010050  0.90571200  1
  O  O42  1  0.84575850  0.32010050  0.59428800  1
  O  O43  1  0.80338800  0.00000000  0.59142400  1
  O  O44  1  0.80338800  0.00000000  0.90857600  1
  O  O45  1  0.19661200  0.00000000  0.09142400  1
  O  O46  1  0.15424150  0.32010050  0.40571200  1
  O  O47  1  0.65424150  0.17989950  0.40571200  1
  O  O48  1  0.15424150  0.67989950  0.09428800  1
  O  O49  1  0.84575850  0.67989950  0.90571200  1
  O  O50  1  0.84575850  0.67989950  0.59428800  1
  O  O51  1  0.65424150  0.82010050  0.09428800  1
  O  O52  1  0.69661200  0.50000000  0.40857600  1
  O  O53  1  0.34575850  0.82010050  0.90571200  1
  O  O54  1  0.34575850  0.82010050  0.59428800  1
  O  O55  1  0.30338800  0.50000000  0.59142400  1
  O  O56  1  0.30338800  0.50000000  0.90857600  1
  O  O57  1  0.69661200  0.50000000  0.09142400  1
  O  O58  1  0.65424150  0.82010050  0.40571200  1
  O  O59  1  0.15424150  0.67989950  0.40571200  1
