# generated using pymatgen
data_Cd2AsO4F
_symmetry_space_group_name_H-M   'P 1'
_cell_length_a   14.54409600
_cell_length_b   6.98953800
_cell_length_c   10.96584273
_cell_angle_alpha   90.00000000
_cell_angle_beta   120.60671935
_cell_angle_gamma   90.00000000
_symmetry_Int_Tables_number   1
_chemical_formula_structural   Cd2AsO4F
_chemical_formula_sum   'Cd16 As8 O32 F8'
_cell_volume   959.44503437
_cell_formula_units_Z   8
loop_
 _symmetry_equiv_pos_site_id
 _symmetry_equiv_pos_as_xyz
  1  'x, y, z'
loop_
 _atom_site_type_symbol
 _atom_site_label
 _atom_site_symmetry_multiplicity
 _atom_site_fract_x
 _atom_site_fract_y
 _atom_site_fract_z
 _atom_site_occupancy
  Cd  Cd0  1  0.94745350  0.26027750  0.00950400  1
  Cd  Cd1  1  0.05254650  0.26027750  0.49049600  1
  Cd  Cd2  1  0.05254650  0.73972250  0.99049600  1
  Cd  Cd3  1  0.94745350  0.73972250  0.50950400  1
  Cd  Cd4  1  0.15359250  0.89510150  0.34852600  1
  Cd  Cd5  1  0.84640750  0.89510150  0.15147400  1
  Cd  Cd6  1  0.84640750  0.10489850  0.65147400  1
  Cd  Cd7  1  0.15359250  0.10489850  0.84852600  1
  Cd  Cd8  1  0.44745350  0.76027750  0.00950400  1
  Cd  Cd9  1  0.55254650  0.76027750  0.49049600  1
  Cd  Cd10  1  0.55254650  0.23972250  0.99049600  1
  Cd  Cd11  1  0.44745350  0.23972250  0.50950400  1
  Cd  Cd12  1  0.65359250  0.39510150  0.34852600  1
  Cd  Cd13  1  0.34640750  0.39510150  0.15147400  1
  Cd  Cd14  1  0.34640750  0.60489850  0.65147400  1
  Cd  Cd15  1  0.65359250  0.60489850  0.84852600  1
  As  As16  1  0.82286700  0.40617400  0.19311500  1
  As  As17  1  0.67713300  0.90617400  0.30688500  1
  As  As18  1  0.17713300  0.59382600  0.80688500  1
  As  As19  1  0.32286700  0.09382600  0.69311500  1
  As  As20  1  0.32286700  0.90617400  0.19311500  1
  As  As21  1  0.17713300  0.40617400  0.30688500  1
  As  As22  1  0.67713300  0.09382600  0.80688500  1
  As  As23  1  0.82286700  0.59382600  0.69311500  1
  O  O24  1  0.19356450  0.58824250  0.42205400  1
  O  O25  1  0.80643550  0.58824250  0.07794600  1
  O  O26  1  0.80643550  0.41175750  0.57794600  1
  O  O27  1  0.19356450  0.41175750  0.92205400  1
  O  O28  1  0.29531900  0.65064500  0.81478100  1
  O  O29  1  0.20468100  0.15064500  0.68521900  1
  O  O30  1  0.70468100  0.34935500  0.18521900  1
  O  O31  1  0.79531900  0.84935500  0.31478100  1
  O  O32  1  0.08224200  0.53618400  0.63558500  1
  O  O33  1  0.41775800  0.03618400  0.86441500  1
  O  O34  1  0.91775800  0.46381600  0.36441500  1
  O  O35  1  0.58224200  0.96381600  0.13558500  1
  O  O36  1  0.13054750  0.78773750  0.85744800  1
  O  O37  1  0.86945250  0.78773750  0.64255200  1
  O  O38  1  0.86945250  0.21226250  0.14255200  1
  O  O39  1  0.13054750  0.21226250  0.35744800  1
  O  O40  1  0.69356450  0.08824250  0.42205400  1
  O  O41  1  0.30643550  0.08824250  0.07794600  1
  O  O42  1  0.30643550  0.91175750  0.57794600  1
  O  O43  1  0.69356450  0.91175750  0.92205400  1
  O  O44  1  0.79531900  0.15064500  0.81478100  1
  O  O45  1  0.70468100  0.65064500  0.68521900  1
  O  O46  1  0.20468100  0.84935500  0.18521900  1
  O  O47  1  0.29531900  0.34935500  0.31478100  1
  O  O48  1  0.58224200  0.03618400  0.63558500  1
  O  O49  1  0.91775800  0.53618400  0.86441500  1
  O  O50  1  0.41775800  0.96381600  0.36441500  1
  O  O51  1  0.08224200  0.46381600  0.13558500  1
  O  O52  1  0.63054750  0.28773750  0.85744800  1
  O  O53  1  0.36945250  0.28773750  0.64255200  1
  O  O54  1  0.36945250  0.71226250  0.14255200  1
  O  O55  1  0.63054750  0.71226250  0.35744800  1
  F  F56  1  0.98827800  0.08801100  0.61060600  1
  F  F57  1  0.01172200  0.08801100  0.88939400  1
  F  F58  1  0.01172200  0.91198900  0.38939400  1
  F  F59  1  0.98827800  0.91198900  0.11060600  1
  F  F60  1  0.48827800  0.58801100  0.61060600  1
  F  F61  1  0.51172200  0.58801100  0.88939400  1
  F  F62  1  0.51172200  0.41198900  0.38939400  1
  F  F63  1  0.48827800  0.41198900  0.11060600  1
