# generated using pymatgen
data_Gd(PO3)3
_symmetry_space_group_name_H-M   'P 1'
_cell_length_a   8.54396200
_cell_length_b   11.16634800
_cell_length_c   7.28627500
_cell_angle_alpha   90.00000000
_cell_angle_beta   90.00000000
_cell_angle_gamma   90.00000000
_symmetry_Int_Tables_number   1
_chemical_formula_structural   Gd(PO3)3
_chemical_formula_sum   'Gd4 P12 O36'
_cell_volume   695.14599523
_cell_formula_units_Z   4
loop_
 _symmetry_equiv_pos_site_id
 _symmetry_equiv_pos_as_xyz
  1  'x, y, z'
loop_
 _atom_site_type_symbol
 _atom_site_label
 _atom_site_symmetry_multiplicity
 _atom_site_fract_x
 _atom_site_fract_y
 _atom_site_fract_z
 _atom_site_occupancy
  Gd  Gd0  1  0.12592100  0.00000000  0.50000000  1
  Gd  Gd1  1  0.87407900  0.00000000  0.00000000  1
  Gd  Gd2  1  0.62592100  0.50000000  0.50000000  1
  Gd  Gd3  1  0.37407900  0.50000000  0.00000000  1
  P  P4  1  0.25043000  0.00000000  0.00000000  1
  P  P5  1  0.48850750  0.17683650  0.45631800  1
  P  P6  1  0.51149250  0.82316350  0.95631800  1
  P  P7  1  0.48850750  0.82316350  0.54368200  1
  P  P8  1  0.51149250  0.17683650  0.04368200  1
  P  P9  1  0.74957000  0.00000000  0.50000000  1
  P  P10  1  0.75043000  0.50000000  0.00000000  1
  P  P11  1  0.98850750  0.67683650  0.45631800  1
  P  P12  1  0.01149250  0.32316350  0.95631800  1
  P  P13  1  0.98850750  0.32316350  0.54368200  1
  P  P14  1  0.01149250  0.67683650  0.04368200  1
  P  P15  1  0.24957000  0.50000000  0.50000000  1
  O  O16  1  0.50000000  0.12721000  0.25000000  1
  O  O17  1  0.63798200  0.10984900  0.54665800  1
  O  O18  1  0.34169700  0.87284500  0.46208300  1
  O  O19  1  0.50000000  0.87279000  0.75000000  1
  O  O20  1  0.51916800  0.69201700  0.53337100  1
  O  O21  1  0.84786400  0.98019400  0.67066700  1
  O  O22  1  0.36201800  0.89015100  0.04665800  1
  O  O23  1  0.63798200  0.89015100  0.45334200  1
  O  O24  1  0.65830300  0.87284500  0.03791700  1
  O  O25  1  0.15213600  0.01980600  0.17066700  1
  O  O26  1  0.34169700  0.12715500  0.53791700  1
  O  O27  1  0.48083200  0.30798300  0.03337100  1
  O  O28  1  0.36201800  0.10984900  0.95334200  1
  O  O29  1  0.48083200  0.69201700  0.96662900  1
  O  O30  1  0.15213600  0.98019400  0.82933300  1
  O  O31  1  0.65830300  0.12715500  0.96208300  1
  O  O32  1  0.51916800  0.30798300  0.46662900  1
  O  O33  1  0.84786400  0.01980600  0.32933300  1
  O  O34  1  0.00000000  0.62721000  0.25000000  1
  O  O35  1  0.13798200  0.60984900  0.54665800  1
  O  O36  1  0.84169700  0.37284500  0.46208300  1
  O  O37  1  0.00000000  0.37279000  0.75000000  1
  O  O38  1  0.01916800  0.19201700  0.53337100  1
  O  O39  1  0.34786400  0.48019400  0.67066700  1
  O  O40  1  0.86201800  0.39015100  0.04665800  1
  O  O41  1  0.13798200  0.39015100  0.45334200  1
  O  O42  1  0.15830300  0.37284500  0.03791700  1
  O  O43  1  0.65213600  0.51980600  0.17066700  1
  O  O44  1  0.84169700  0.62715500  0.53791700  1
  O  O45  1  0.98083200  0.80798300  0.03337100  1
  O  O46  1  0.86201800  0.60984900  0.95334200  1
  O  O47  1  0.98083200  0.19201700  0.96662900  1
  O  O48  1  0.65213600  0.48019400  0.82933300  1
  O  O49  1  0.15830300  0.62715500  0.96208300  1
  O  O50  1  0.01916800  0.80798300  0.46662900  1
  O  O51  1  0.34786400  0.51980600  0.32933300  1
