# generated using pymatgen
data_K5NaS4(ClO6)2
_symmetry_space_group_name_H-M   'P 1'
_cell_length_a   8.74199200
_cell_length_b   8.74199200
_cell_length_c   11.77411500
_cell_angle_alpha   90.00000000
_cell_angle_beta   90.00000000
_cell_angle_gamma   90.00000000
_symmetry_Int_Tables_number   1
_chemical_formula_structural   K5NaS4(ClO6)2
_chemical_formula_sum   'K10 Na2 S8 Cl4 O24'
_cell_volume   899.80641026
_cell_formula_units_Z   2
loop_
 _symmetry_equiv_pos_site_id
 _symmetry_equiv_pos_as_xyz
  1  'x, y, z'
loop_
 _atom_site_type_symbol
 _atom_site_label
 _atom_site_symmetry_multiplicity
 _atom_site_fract_x
 _atom_site_fract_y
 _atom_site_fract_z
 _atom_site_occupancy
  K  K0  1  0.00000000  0.00000000  0.50000000  1
  K  K1  1  0.50000000  0.50000000  0.00000000  1
  K  K2  1  0.81158100  0.68841900  0.25000000  1
  K  K3  1  0.18841900  0.31158100  0.25000000  1
  K  K4  1  0.68841900  0.18841900  0.75000000  1
  K  K5  1  0.31158100  0.81158100  0.75000000  1
  K  K6  1  0.68841900  0.18841900  0.25000000  1
  K  K7  1  0.31158100  0.81158100  0.25000000  1
  K  K8  1  0.18841900  0.31158100  0.75000000  1
  K  K9  1  0.81158100  0.68841900  0.75000000  1
  Na  Na10  1  0.50000000  0.50000000  0.50000000  1
  Na  Na11  1  0.00000000  0.00000000  0.00000000  1
  S  S12  1  0.57458300  0.90026400  0.50000000  1
  S  S13  1  0.42541700  0.09973600  0.50000000  1
  S  S14  1  0.92541700  0.40026400  0.00000000  1
  S  S15  1  0.07458300  0.59973600  0.00000000  1
  S  S16  1  0.90026400  0.42541700  0.50000000  1
  S  S17  1  0.09973600  0.57458300  0.50000000  1
  S  S18  1  0.40026400  0.07458300  0.00000000  1
  S  S19  1  0.59973600  0.92541700  0.00000000  1
  Cl  Cl20  1  0.50000000  0.50000000  0.26404000  1
  Cl  Cl21  1  0.00000000  0.00000000  0.76404000  1
  Cl  Cl22  1  0.50000000  0.50000000  0.73596000  1
  Cl  Cl23  1  0.00000000  0.00000000  0.23596000  1
  O  O24  1  0.77147800  0.53313500  0.50000000  1
  O  O25  1  0.22852200  0.46686500  0.50000000  1
  O  O26  1  0.72852200  0.03313500  0.00000000  1
  O  O27  1  0.27147800  0.96686500  0.00000000  1
  O  O28  1  0.53313500  0.22852200  0.50000000  1
  O  O29  1  0.46686500  0.77147800  0.50000000  1
  O  O30  1  0.03313500  0.27147800  0.00000000  1
  O  O31  1  0.96686500  0.72852200  0.00000000  1
  O  O32  1  0.08451700  0.66579400  0.39534100  1
  O  O33  1  0.91548300  0.33420600  0.39534100  1
  O  O34  1  0.41548300  0.16579400  0.89534100  1
  O  O35  1  0.58451700  0.83420600  0.89534100  1
  O  O36  1  0.66579400  0.91548300  0.39534100  1
  O  O37  1  0.33420600  0.08451700  0.39534100  1
  O  O38  1  0.16579400  0.58451700  0.89534100  1
  O  O39  1  0.83420600  0.41548300  0.89534100  1
  O  O40  1  0.91548300  0.33420600  0.60465900  1
  O  O41  1  0.08451700  0.66579400  0.60465900  1
  O  O42  1  0.58451700  0.83420600  0.10465900  1
  O  O43  1  0.41548300  0.16579400  0.10465900  1
  O  O44  1  0.33420600  0.08451700  0.60465900  1
  O  O45  1  0.66579400  0.91548300  0.60465900  1
  O  O46  1  0.83420600  0.41548300  0.10465900  1
  O  O47  1  0.16579400  0.58451700  0.10465900  1
