# generated using pymatgen
data_SiO2
_symmetry_space_group_name_H-M   'P 1'
_cell_length_a   10.50939200
_cell_length_b   15.28115800
_cell_length_c   9.00393474
_cell_angle_alpha   90.00000000
_cell_angle_beta   105.53089456
_cell_angle_gamma   90.00000000
_symmetry_Int_Tables_number   1
_chemical_formula_structural   SiO2
_chemical_formula_sum   'Si24 O48'
_cell_volume   1393.19434032
_cell_formula_units_Z   24
loop_
 _symmetry_equiv_pos_site_id
 _symmetry_equiv_pos_as_xyz
  1  'x, y, z'
loop_
 _atom_site_type_symbol
 _atom_site_label
 _atom_site_symmetry_multiplicity
 _atom_site_fract_x
 _atom_site_fract_y
 _atom_site_fract_z
 _atom_site_occupancy
  Si  Si0  1  0.64808250  0.24385350  0.10541700  1
  Si  Si1  1  0.59900700  0.60141400  0.31046300  1
  Si  Si2  1  0.40099300  0.39858600  0.68953700  1
  Si  Si3  1  0.35191750  0.75614650  0.89458300  1
  Si  Si4  1  0.40099300  0.60141400  0.68953700  1
  Si  Si5  1  0.80394600  0.89847800  0.32942600  1
  Si  Si6  1  0.64808250  0.75614650  0.10541700  1
  Si  Si7  1  0.80394600  0.10152200  0.32942600  1
  Si  Si8  1  0.35191750  0.24385350  0.89458300  1
  Si  Si9  1  0.19605400  0.10152200  0.67057400  1
  Si  Si10  1  0.59900700  0.39858600  0.31046300  1
  Si  Si11  1  0.19605400  0.89847800  0.67057400  1
  Si  Si12  1  0.14808250  0.74385350  0.10541700  1
  Si  Si13  1  0.09900700  0.10141400  0.31046300  1
  Si  Si14  1  0.90099300  0.89858600  0.68953700  1
  Si  Si15  1  0.85191750  0.25614650  0.89458300  1
  Si  Si16  1  0.90099300  0.10141400  0.68953700  1
  Si  Si17  1  0.30394600  0.39847800  0.32942600  1
  Si  Si18  1  0.14808250  0.25614650  0.10541700  1
  Si  Si19  1  0.30394600  0.60152200  0.32942600  1
  Si  Si20  1  0.85191750  0.74385350  0.89458300  1
  Si  Si21  1  0.69605400  0.60152200  0.67057400  1
  Si  Si22  1  0.09900700  0.89858600  0.31046300  1
  Si  Si23  1  0.69605400  0.39847800  0.67057400  1
  O  O24  1  0.55802500  0.62047800  0.71501100  1
  O  O25  1  0.75000000  0.25000000  0.00000000  1
  O  O26  1  0.50000000  0.22461000  0.00000000  1
  O  O27  1  0.87786100  0.00000000  0.73170700  1
  O  O28  1  0.65423600  0.66370200  0.19670800  1
  O  O29  1  0.44197500  0.37952200  0.28498900  1
  O  O30  1  0.68921300  0.16404500  0.22818600  1
  O  O31  1  0.55802500  0.37952200  0.71501100  1
  O  O32  1  0.23978700  0.00000000  0.70807200  1
  O  O33  1  0.82151600  0.87815100  0.51137200  1
  O  O34  1  0.31078700  0.16404500  0.77181400  1
  O  O35  1  0.17848400  0.12184900  0.48862800  1
  O  O36  1  0.68921300  0.83595500  0.22818600  1
  O  O37  1  0.34576400  0.33629800  0.80329200  1
  O  O38  1  0.12213900  0.00000000  0.26829300  1
  O  O39  1  0.31078700  0.83595500  0.77181400  1
  O  O40  1  0.50000000  0.77539000  0.00000000  1
  O  O41  1  0.44197500  0.62047800  0.28498900  1
  O  O42  1  0.75000000  0.75000000  0.00000000  1
  O  O43  1  0.17848400  0.87815100  0.48862800  1
  O  O44  1  0.34576400  0.66370200  0.80329200  1
  O  O45  1  0.76021300  0.00000000  0.29192800  1
  O  O46  1  0.82151600  0.12184900  0.51137200  1
  O  O47  1  0.65423600  0.33629800  0.19670800  1
  O  O48  1  0.05802500  0.12047800  0.71501100  1
  O  O49  1  0.25000000  0.75000000  0.00000000  1
  O  O50  1  0.00000000  0.72461000  0.00000000  1
  O  O51  1  0.37786100  0.50000000  0.73170700  1
  O  O52  1  0.15423600  0.16370200  0.19670800  1
  O  O53  1  0.94197500  0.87952200  0.28498900  1
  O  O54  1  0.18921300  0.66404500  0.22818600  1
  O  O55  1  0.05802500  0.87952200  0.71501100  1
  O  O56  1  0.73978700  0.50000000  0.70807200  1
  O  O57  1  0.32151600  0.37815100  0.51137200  1
  O  O58  1  0.81078700  0.66404500  0.77181400  1
  O  O59  1  0.67848400  0.62184900  0.48862800  1
  O  O60  1  0.18921300  0.33595500  0.22818600  1
  O  O61  1  0.84576400  0.83629800  0.80329200  1
  O  O62  1  0.62213900  0.50000000  0.26829300  1
  O  O63  1  0.81078700  0.33595500  0.77181400  1
  O  O64  1  0.00000000  0.27539000  0.00000000  1
  O  O65  1  0.94197500  0.12047800  0.28498900  1
  O  O66  1  0.25000000  0.25000000  0.00000000  1
  O  O67  1  0.67848400  0.37815100  0.48862800  1
  O  O68  1  0.84576400  0.16370200  0.80329200  1
  O  O69  1  0.26021300  0.50000000  0.29192800  1
  O  O70  1  0.32151600  0.62184900  0.51137200  1
  O  O71  1  0.15423600  0.83629800  0.19670800  1
