# generated using pymatgen
data_Ba2Zr6BCl17
_symmetry_space_group_name_H-M   'P 1'
_cell_length_a   11.81804400
_cell_length_b   11.81804400
_cell_length_c   10.00502000
_cell_angle_alpha   90.00000000
_cell_angle_beta   90.00000000
_cell_angle_gamma   90.00000000
_symmetry_Int_Tables_number   1
_chemical_formula_structural   Ba2Zr6BCl17
_chemical_formula_sum   'Ba4 Zr12 B2 Cl34'
_cell_volume   1397.36276400
_cell_formula_units_Z   2
loop_
 _symmetry_equiv_pos_site_id
 _symmetry_equiv_pos_as_xyz
  1  'x, y, z'
loop_
 _atom_site_type_symbol
 _atom_site_label
 _atom_site_symmetry_multiplicity
 _atom_site_fract_x
 _atom_site_fract_y
 _atom_site_fract_z
 _atom_site_occupancy
  Ba  Ba0  1  0.00000000  0.50000000  0.25000000  1
  Ba  Ba1  1  0.50000000  0.00000000  0.25000000  1
  Ba  Ba2  1  0.50000000  0.00000000  0.75000000  1
  Ba  Ba3  1  0.00000000  0.50000000  0.75000000  1
  Zr  Zr4  1  0.00000000  0.00000000  0.23340600  1
  Zr  Zr5  1  0.00000000  0.00000000  0.76659400  1
  Zr  Zr6  1  0.18356550  0.06729650  0.00000000  1
  Zr  Zr7  1  0.43270350  0.68356550  0.50000000  1
  Zr  Zr8  1  0.31643450  0.43270350  0.50000000  1
  Zr  Zr9  1  0.06729650  0.81643450  0.00000000  1
  Zr  Zr10  1  0.50000000  0.50000000  0.73340600  1
  Zr  Zr11  1  0.50000000  0.50000000  0.26659400  1
  Zr  Zr12  1  0.68356550  0.56729650  0.50000000  1
  Zr  Zr13  1  0.93270350  0.18356550  0.00000000  1
  Zr  Zr14  1  0.81643450  0.93270350  0.00000000  1
  Zr  Zr15  1  0.56729650  0.31643450  0.50000000  1
  B  B16  1  0.00000000  0.00000000  0.00000000  1
  B  B17  1  0.50000000  0.50000000  0.50000000  1
  Cl  Cl18  1  0.37122500  0.22183400  0.50000000  1
  Cl  Cl19  1  0.77816600  0.37122500  0.50000000  1
  Cl  Cl20  1  0.13068100  0.59506000  0.00000000  1
  Cl  Cl21  1  0.29501350  0.42485450  0.24556750  1
  Cl  Cl22  1  0.36931900  0.90494000  0.50000000  1
  Cl  Cl23  1  0.20498650  0.07514550  0.25443250  1
  Cl  Cl24  1  0.57514550  0.29501350  0.24556750  1
  Cl  Cl25  1  0.40494000  0.13068100  0.00000000  1
  Cl  Cl26  1  0.09506000  0.36931900  0.50000000  1
  Cl  Cl27  1  0.12877500  0.27816600  0.00000000  1
  Cl  Cl28  1  0.57514550  0.29501350  0.75443250  1
  Cl  Cl29  1  0.20498650  0.07514550  0.74556750  1
  Cl  Cl30  1  0.72183400  0.12877500  0.00000000  1
  Cl  Cl31  1  0.00000000  0.00000000  0.50000000  1
  Cl  Cl32  1  0.92485450  0.20498650  0.25443250  1
  Cl  Cl33  1  0.29501350  0.42485450  0.75443250  1
  Cl  Cl34  1  0.92485450  0.20498650  0.74556750  1
  Cl  Cl35  1  0.87122500  0.72183400  0.00000000  1
  Cl  Cl36  1  0.27816600  0.87122500  0.00000000  1
  Cl  Cl37  1  0.63068100  0.09506000  0.50000000  1
  Cl  Cl38  1  0.79501350  0.92485450  0.74556750  1
  Cl  Cl39  1  0.86931900  0.40494000  0.00000000  1
  Cl  Cl40  1  0.70498650  0.57514550  0.75443250  1
  Cl  Cl41  1  0.07514550  0.79501350  0.74556750  1
  Cl  Cl42  1  0.90494000  0.63068100  0.50000000  1
  Cl  Cl43  1  0.59506000  0.86931900  0.00000000  1
  Cl  Cl44  1  0.62877500  0.77816600  0.50000000  1
  Cl  Cl45  1  0.07514550  0.79501350  0.25443250  1
  Cl  Cl46  1  0.70498650  0.57514550  0.24556750  1
  Cl  Cl47  1  0.22183400  0.62877500  0.50000000  1
  Cl  Cl48  1  0.50000000  0.50000000  0.00000000  1
  Cl  Cl49  1  0.42485450  0.70498650  0.75443250  1
  Cl  Cl50  1  0.79501350  0.92485450  0.25443250  1
  Cl  Cl51  1  0.42485450  0.70498650  0.24556750  1
