# generated using pymatgen
data_Li2ZnSn3O8
_symmetry_space_group_name_H-M   'P 1'
_cell_length_a   10.66681200
_cell_length_b   18.49398000
_cell_length_c   10.05516100
_cell_angle_alpha   90.00000000
_cell_angle_beta   90.00000000
_cell_angle_gamma   90.00000000
_symmetry_Int_Tables_number   1
_chemical_formula_structural   Li2ZnSn3O8
_chemical_formula_sum   'Li24 Zn12 Sn36 O96'
_cell_volume   1983.59978811
_cell_formula_units_Z   12
loop_
 _symmetry_equiv_pos_site_id
 _symmetry_equiv_pos_as_xyz
  1  'x, y, z'
loop_
 _atom_site_type_symbol
 _atom_site_label
 _atom_site_symmetry_multiplicity
 _atom_site_fract_x
 _atom_site_fract_y
 _atom_site_fract_z
 _atom_site_occupancy
  Li  Li0  1  0.48391100  0.18097200  0.72007000  1
  Li  Li1  1  0.41612750  0.24985950  0.49160400  1
  Li  Li2  1  0.01608900  0.31902800  0.22007000  1
  Li  Li3  1  0.91612750  0.25014050  0.49160400  1
  Li  Li4  1  0.83400700  0.00000000  0.98969000  1
  Li  Li5  1  0.51608900  0.18097200  0.22007000  1
  Li  Li6  1  0.08387250  0.25014050  0.99160400  1
  Li  Li7  1  0.58387250  0.24985950  0.99160400  1
  Li  Li8  1  0.02165800  0.00000000  0.71613600  1
  Li  Li9  1  0.98391100  0.31902800  0.72007000  1
  Li  Li10  1  0.97834200  0.00000000  0.21613600  1
  Li  Li11  1  0.16599300  0.00000000  0.48969000  1
  Li  Li12  1  0.98391100  0.68097200  0.72007000  1
  Li  Li13  1  0.91612750  0.74985950  0.49160400  1
  Li  Li14  1  0.51608900  0.81902800  0.22007000  1
  Li  Li15  1  0.41612750  0.75014050  0.49160400  1
  Li  Li16  1  0.33400700  0.50000000  0.98969000  1
  Li  Li17  1  0.01608900  0.68097200  0.22007000  1
  Li  Li18  1  0.58387250  0.75014050  0.99160400  1
  Li  Li19  1  0.08387250  0.74985950  0.99160400  1
  Li  Li20  1  0.52165800  0.50000000  0.71613600  1
  Li  Li21  1  0.48391100  0.81902800  0.72007000  1
  Li  Li22  1  0.47834200  0.50000000  0.21613600  1
  Li  Li23  1  0.66599300  0.50000000  0.48969000  1
  Zn  Zn24  1  0.16652500  0.16687500  0.30527700  1
  Zn  Zn25  1  0.83347500  0.16687500  0.80527700  1
  Zn  Zn26  1  0.33337300  0.00000000  0.80915400  1
  Zn  Zn27  1  0.66662700  0.00000000  0.30915400  1
  Zn  Zn28  1  0.33347500  0.33312500  0.80527700  1
  Zn  Zn29  1  0.66652500  0.33312500  0.30527700  1
  Zn  Zn30  1  0.66652500  0.66687500  0.30527700  1
  Zn  Zn31  1  0.33347500  0.66687500  0.80527700  1
  Zn  Zn32  1  0.83337300  0.50000000  0.80915400  1
  Zn  Zn33  1  0.16662700  0.50000000  0.30915400  1
  Zn  Zn34  1  0.83347500  0.83312500  0.80527700  1
  Zn  Zn35  1  0.16652500  0.83312500  0.30527700  1
  Sn  Sn36  1  0.66637300  0.17233400  0.49784100  1
  Sn  Sn37  1  0.42817100  0.41272000  0.49640700  1
  Sn  Sn38  1  0.40520900  0.08636100  0.49632600  1
  Sn  Sn39  1  0.92817100  0.08728000  0.49640700  1
  Sn  Sn40  1  0.90520900  0.41363900  0.49632600  1
  Sn  Sn41  1  0.16637300  0.32766600  0.49784100  1
  Sn  Sn42  1  0.59479100  0.08636100  0.99632600  1
  Sn  Sn43  1  0.66465400  0.33152200  0.71699700  1
  Sn  Sn44  1  0.32927600  0.00000000  0.21583200  1
  Sn  Sn45  1  0.83362700  0.32766600  0.99784100  1
  Sn  Sn46  1  0.57182900  0.41272000  0.99640700  1
  Sn  Sn47  1  0.16465400  0.16847800  0.71699700  1
  Sn  Sn48  1  0.83534600  0.16847800  0.21699700  1
  Sn  Sn49  1  0.33534600  0.33152200  0.21699700  1
  Sn  Sn50  1  0.33362700  0.17233400  0.99784100  1
  Sn  Sn51  1  0.67072400  0.00000000  0.71583200  1
  Sn  Sn52  1  0.09479100  0.41363900  0.99632600  1
  Sn  Sn53  1  0.07182900  0.08728000  0.99640700  1
  Sn  Sn54  1  0.16637300  0.67233400  0.49784100  1
  Sn  Sn55  1  0.92817100  0.91272000  0.49640700  1
  Sn  Sn56  1  0.90520900  0.58636100  0.49632600  1
  Sn  Sn57  1  0.42817100  0.58728000  0.49640700  1
  Sn  Sn58  1  0.40520900  0.91363900  0.49632600  1
  Sn  Sn59  1  0.66637300  0.82766600  0.49784100  1
  Sn  Sn60  1  0.09479100  0.58636100  0.99632600  1
  Sn  Sn61  1  0.16465400  0.83152200  0.71699700  1
  Sn  Sn62  1  0.82927600  0.50000000  0.21583200  1
  Sn  Sn63  1  0.33362700  0.82766600  0.99784100  1
  Sn  Sn64  1  0.07182900  0.91272000  0.99640700  1
  Sn  Sn65  1  0.66465400  0.66847800  0.71699700  1
  Sn  Sn66  1  0.33534600  0.66847800  0.21699700  1
  Sn  Sn67  1  0.83534600  0.83152200  0.21699700  1
  Sn  Sn68  1  0.83362700  0.67233400  0.99784100  1
  Sn  Sn69  1  0.17072400  0.50000000  0.71583200  1
  Sn  Sn70  1  0.59479100  0.91363900  0.99632600  1
  Sn  Sn71  1  0.57182900  0.58728000  0.99640700  1
  O  O72  1  0.16770750  0.33544950  0.11630000  1
  O  O73  1  0.49949350  0.16522850  0.89940500  1
  O  O74  1  0.08329400  0.08373500  0.61552300  1
  O  O75  1  0.83229250  0.33544950  0.61630000  1
  O  O76  1  0.15798500  0.00000000  0.11235100  1
  O  O77  1  0.33680400  0.00000000  0.60696000  1
  O  O78  1  0.66319600  0.00000000  0.10696000  1
  O  O79  1  0.08308250  0.25219150  0.61721400  1
  O  O80  1  0.25912500  0.40942800  0.37060600  1
  O  O81  1  0.48215800  0.00000000  0.36763200  1
  O  O82  1  0.16811500  0.16502600  0.10343000  1
  O  O83  1  0.99949350  0.33477150  0.89940500  1
  O  O84  1  0.58308250  0.24780850  0.61721400  1
  O  O85  1  0.74087500  0.40942800  0.87060600  1
  O  O86  1  0.41670600  0.41626500  0.11552300  1
  O  O87  1  0.66811500  0.33497400  0.10343000  1
  O  O88  1  0.50050650  0.16522850  0.39940500  1
  O  O89  1  0.00050650  0.33477150  0.39940500  1
  O  O90  1  0.75071850  0.25963150  0.85841500  1
  O  O91  1  0.25071850  0.24036850  0.85841500  1
  O  O92  1  0.01429200  0.16495500  0.85962400  1
  O  O93  1  0.58329400  0.41626500  0.61552300  1
  O  O94  1  0.51784200  0.00000000  0.86763200  1
  O  O95  1  0.48570800  0.33504500  0.35962400  1
  O  O96  1  0.26172500  0.07712700  0.35627600  1
  O  O97  1  0.75912500  0.09057200  0.37060600  1
  O  O98  1  0.33188500  0.33497400  0.60343000  1
  O  O99  1  0.41993800  0.08446900  0.10985800  1
  O  O100  1  0.83188500  0.16502600  0.60343000  1
  O  O101  1  0.66770750  0.16455050  0.11630000  1
  O  O102  1  0.23827500  0.42287300  0.85627600  1
  O  O103  1  0.33229250  0.16455050  0.61630000  1
  O  O104  1  0.00230500  0.00000000  0.89789500  1
  O  O105  1  0.91670600  0.08373500  0.11552300  1
  O  O106  1  0.99769500  0.00000000  0.39789500  1
  O  O107  1  0.84201500  0.00000000  0.61235100  1
  O  O108  1  0.51429200  0.33504500  0.85962400  1
  O  O109  1  0.24087500  0.09057200  0.87060600  1
  O  O110  1  0.73827500  0.07712700  0.85627600  1
  O  O111  1  0.76172500  0.42287300  0.35627600  1
  O  O112  1  0.91691750  0.25219150  0.11721400  1
  O  O113  1  0.74928150  0.24036850  0.35841500  1
  O  O114  1  0.58006200  0.08446900  0.60985800  1
  O  O115  1  0.24928150  0.25963150  0.35841500  1
  O  O116  1  0.41691750  0.24780850  0.11721400  1
  O  O117  1  0.98570800  0.16495500  0.35962400  1
  O  O118  1  0.91993800  0.41553100  0.10985800  1
  O  O119  1  0.08006200  0.41553100  0.60985800  1
  O  O120  1  0.66770750  0.83544950  0.11630000  1
  O  O121  1  0.99949350  0.66522850  0.89940500  1
  O  O122  1  0.58329400  0.58373500  0.61552300  1
  O  O123  1  0.33229250  0.83544950  0.61630000  1
  O  O124  1  0.65798500  0.50000000  0.11235100  1
  O  O125  1  0.83680400  0.50000000  0.60696000  1
  O  O126  1  0.16319600  0.50000000  0.10696000  1
  O  O127  1  0.58308250  0.75219150  0.61721400  1
  O  O128  1  0.75912500  0.90942800  0.37060600  1
  O  O129  1  0.98215800  0.50000000  0.36763200  1
  O  O130  1  0.66811500  0.66502600  0.10343000  1
  O  O131  1  0.49949350  0.83477150  0.89940500  1
  O  O132  1  0.08308250  0.74780850  0.61721400  1
  O  O133  1  0.24087500  0.90942800  0.87060600  1
  O  O134  1  0.91670600  0.91626500  0.11552300  1
  O  O135  1  0.16811500  0.83497400  0.10343000  1
  O  O136  1  0.00050650  0.66522850  0.39940500  1
  O  O137  1  0.50050650  0.83477150  0.39940500  1
  O  O138  1  0.25071850  0.75963150  0.85841500  1
  O  O139  1  0.75071850  0.74036850  0.85841500  1
  O  O140  1  0.51429200  0.66495500  0.85962400  1
  O  O141  1  0.08329400  0.91626500  0.61552300  1
  O  O142  1  0.01784200  0.50000000  0.86763200  1
  O  O143  1  0.98570800  0.83504500  0.35962400  1
  O  O144  1  0.76172500  0.57712700  0.35627600  1
  O  O145  1  0.25912500  0.59057200  0.37060600  1
  O  O146  1  0.83188500  0.83497400  0.60343000  1
  O  O147  1  0.91993800  0.58446900  0.10985800  1
  O  O148  1  0.33188500  0.66502600  0.60343000  1
  O  O149  1  0.16770750  0.66455050  0.11630000  1
  O  O150  1  0.73827500  0.92287300  0.85627600  1
  O  O151  1  0.83229250  0.66455050  0.61630000  1
  O  O152  1  0.50230500  0.50000000  0.89789500  1
  O  O153  1  0.41670600  0.58373500  0.11552300  1
  O  O154  1  0.49769500  0.50000000  0.39789500  1
  O  O155  1  0.34201500  0.50000000  0.61235100  1
  O  O156  1  0.01429200  0.83504500  0.85962400  1
  O  O157  1  0.74087500  0.59057200  0.87060600  1
  O  O158  1  0.23827500  0.57712700  0.85627600  1
  O  O159  1  0.26172500  0.92287300  0.35627600  1
  O  O160  1  0.41691750  0.75219150  0.11721400  1
  O  O161  1  0.24928150  0.74036850  0.35841500  1
  O  O162  1  0.08006200  0.58446900  0.60985800  1
  O  O163  1  0.74928150  0.75963150  0.35841500  1
  O  O164  1  0.91691750  0.74780850  0.11721400  1
  O  O165  1  0.48570800  0.66495500  0.35962400  1
  O  O166  1  0.41993800  0.91553100  0.10985800  1
  O  O167  1  0.58006200  0.91553100  0.60985800  1
