# generated using pymatgen
data_K2B2Se7
_symmetry_space_group_name_H-M   'P 1'
_cell_length_a   15.91290800
_cell_length_b   7.30333400
_cell_length_c   12.56695019
_cell_angle_alpha   90.00000000
_cell_angle_beta   121.71621115
_cell_angle_gamma   90.00000000
_symmetry_Int_Tables_number   1
_chemical_formula_structural   K2B2Se7
_chemical_formula_sum   'K8 B8 Se28'
_cell_volume   1242.38970737
_cell_formula_units_Z   4
loop_
 _symmetry_equiv_pos_site_id
 _symmetry_equiv_pos_as_xyz
  1  'x, y, z'
loop_
 _atom_site_type_symbol
 _atom_site_label
 _atom_site_symmetry_multiplicity
 _atom_site_fract_x
 _atom_site_fract_y
 _atom_site_fract_z
 _atom_site_occupancy
  K  K0  1  0.10440850  0.22234950  0.02368300  1
  K  K1  1  0.39559150  0.72234950  0.47631700  1
  K  K2  1  0.89559150  0.77765050  0.97631700  1
  K  K3  1  0.60440850  0.27765050  0.52368300  1
  K  K4  1  0.60440850  0.72234950  0.02368300  1
  K  K5  1  0.89559150  0.22234950  0.47631700  1
  K  K6  1  0.39559150  0.27765050  0.97631700  1
  K  K7  1  0.10440850  0.77765050  0.52368300  1
  B  B8  1  0.38364050  0.77340050  0.15119900  1
  B  B9  1  0.61635950  0.77340050  0.34880100  1
  B  B10  1  0.61635950  0.22659950  0.84880100  1
  B  B11  1  0.38364050  0.22659950  0.65119900  1
  B  B12  1  0.88364050  0.27340050  0.15119900  1
  B  B13  1  0.11635950  0.27340050  0.34880100  1
  B  B14  1  0.11635950  0.72659950  0.84880100  1
  B  B15  1  0.88364050  0.72659950  0.65119900  1
  Se  Se16  1  0.50000000  0.95600300  0.25000000  1
  Se  Se17  1  0.50000000  0.04399700  0.75000000  1
  Se  Se18  1  0.12936100  0.69689600  0.01917400  1
  Se  Se19  1  0.37063900  0.19689600  0.48082600  1
  Se  Se20  1  0.87063900  0.30310400  0.98082600  1
  Se  Se21  1  0.62936100  0.80310400  0.51917400  1
  Se  Se22  1  0.27107450  0.87853450  0.16734800  1
  Se  Se23  1  0.22892550  0.37853450  0.33265200  1
  Se  Se24  1  0.72892550  0.12146550  0.83265200  1
  Se  Se25  1  0.77107450  0.62146550  0.66734800  1
  Se  Se26  1  0.41725450  0.51540750  0.22879800  1
  Se  Se27  1  0.58274550  0.51540750  0.27120200  1
  Se  Se28  1  0.58274550  0.48459250  0.77120200  1
  Se  Se29  1  0.41725450  0.48459250  0.72879800  1
  Se  Se30  1  0.00000000  0.45600300  0.25000000  1
  Se  Se31  1  0.00000000  0.54399700  0.75000000  1
  Se  Se32  1  0.62936100  0.19689600  0.01917400  1
  Se  Se33  1  0.87063900  0.69689600  0.48082600  1
  Se  Se34  1  0.37063900  0.80310400  0.98082600  1
  Se  Se35  1  0.12936100  0.30310400  0.51917400  1
  Se  Se36  1  0.77107450  0.37853450  0.16734800  1
  Se  Se37  1  0.72892550  0.87853450  0.33265200  1
  Se  Se38  1  0.22892550  0.62146550  0.83265200  1
  Se  Se39  1  0.27107450  0.12146550  0.66734800  1
  Se  Se40  1  0.91725450  0.01540750  0.22879800  1
  Se  Se41  1  0.08274550  0.01540750  0.27120200  1
  Se  Se42  1  0.08274550  0.98459250  0.77120200  1
  Se  Se43  1  0.91725450  0.98459250  0.72879800  1
