# generated using pymatgen
data_Na8Nb2Cu4S21
_symmetry_space_group_name_H-M   'P 1'
_cell_length_a   6.82454000
_cell_length_b   7.86123500
_cell_length_c   30.12153500
_cell_angle_alpha   90.00000000
_cell_angle_beta   90.00000000
_cell_angle_gamma   90.00000000
_symmetry_Int_Tables_number   1
_chemical_formula_structural   Na8Nb2Cu4S21
_chemical_formula_sum   'Na16 Nb4 Cu8 S42'
_cell_volume   1615.99965043
_cell_formula_units_Z   2
loop_
 _symmetry_equiv_pos_site_id
 _symmetry_equiv_pos_as_xyz
  1  'x, y, z'
loop_
 _atom_site_type_symbol
 _atom_site_label
 _atom_site_symmetry_multiplicity
 _atom_site_fract_x
 _atom_site_fract_y
 _atom_site_fract_z
 _atom_site_occupancy
  Na  Na0  1  0.44249800  0.23931400  0.75906400  1
  Na  Na1  1  0.85738400  0.24834800  0.85276900  1
  Na  Na2  1  0.83650600  0.23501700  0.14239100  1
  Na  Na3  1  0.24028300  0.00000000  0.50000000  1
  Na  Na4  1  0.14261600  0.74834800  0.64723100  1
  Na  Na5  1  0.16349400  0.26498300  0.64239100  1
  Na  Na6  1  0.55750200  0.26068600  0.25906400  1
  Na  Na7  1  0.16349400  0.73501700  0.35760900  1
  Na  Na8  1  0.14261600  0.25165200  0.35276900  1
  Na  Na9  1  0.75971700  0.50000000  0.00000000  1
  Na  Na10  1  0.54002700  0.50000000  0.50000000  1
  Na  Na11  1  0.83650600  0.76498300  0.85760900  1
  Na  Na12  1  0.55750200  0.73931400  0.74093600  1
  Na  Na13  1  0.45997300  0.00000000  0.00000000  1
  Na  Na14  1  0.44249800  0.76068600  0.24093600  1
  Na  Na15  1  0.85738400  0.75165200  0.14723100  1
  Nb  Nb16  1  0.46001100  0.50057400  0.10726100  1
  Nb  Nb17  1  0.46001100  0.49942600  0.89273900  1
  Nb  Nb18  1  0.53998900  0.99942600  0.60726100  1
  Nb  Nb19  1  0.53998900  0.00057400  0.39273900  1
  Cu  Cu20  1  0.22567800  0.75134200  0.06893700  1
  Cu  Cu21  1  0.22376100  0.25174500  0.06731100  1
  Cu  Cu22  1  0.77432200  0.74865800  0.56893700  1
  Cu  Cu23  1  0.22567800  0.24865800  0.93106300  1
  Cu  Cu24  1  0.77432200  0.25134200  0.43106300  1
  Cu  Cu25  1  0.22376100  0.74825500  0.93268900  1
  Cu  Cu26  1  0.77623900  0.75174500  0.43268900  1
  Cu  Cu27  1  0.77623900  0.24825500  0.56731100  1
  S  S28  1  0.41394300  0.99622000  0.32179200  1
  S  S29  1  0.19569800  0.84854900  0.79157100  1
  S  S30  1  0.00473000  0.01229800  0.24761100  1
  S  S31  1  0.07856000  0.21912000  0.99925000  1
  S  S32  1  0.68634900  0.49152200  0.33917500  1
  S  S33  1  0.88141700  0.99980200  0.39595400  1
  S  S34  1  0.92144000  0.28088000  0.49925000  1
  S  S35  1  0.43770800  0.23374100  0.56738100  1
  S  S36  1  0.87617900  0.49945200  0.60620800  1
  S  S37  1  0.19569800  0.15145100  0.20842900  1
  S  S38  1  0.56542700  0.25985700  0.92987400  1
  S  S39  1  0.25392800  0.49958000  0.71093500  1
  S  S40  1  0.92144000  0.71912000  0.50075000  1
  S  S41  1  0.43457300  0.75985700  0.57012600  1
  S  S42  1  0.58605700  0.49622000  0.17820800  1
  S  S43  1  0.09402600  0.50000000  0.50000000  1
  S  S44  1  0.31365100  0.00847800  0.83917500  1
  S  S45  1  0.41394300  0.00378000  0.67820800  1
  S  S46  1  0.90597400  0.00000000  0.00000000  1
  S  S47  1  0.07856000  0.78088000  0.00075000  1
  S  S48  1  0.11858300  0.49980200  0.10404600  1
  S  S49  1  0.43457300  0.24014300  0.42987400  1
  S  S50  1  0.74607200  0.99958000  0.78906500  1
  S  S51  1  0.12382100  0.00054800  0.10620800  1
  S  S52  1  0.11858300  0.50019800  0.89595400  1
  S  S53  1  0.99527000  0.48770200  0.74761100  1
  S  S54  1  0.87617900  0.50054800  0.39379200  1
  S  S55  1  0.80430200  0.34854900  0.70842900  1
  S  S56  1  0.99527000  0.51229800  0.25238900  1
  S  S57  1  0.56542700  0.74014300  0.07012600  1
  S  S58  1  0.80430200  0.65145100  0.29157100  1
  S  S59  1  0.68634900  0.50847800  0.66082500  1
  S  S60  1  0.43770800  0.76625900  0.43261900  1
  S  S61  1  0.25392800  0.50042000  0.28906500  1
  S  S62  1  0.00473000  0.98770200  0.75238900  1
  S  S63  1  0.88141700  0.00019800  0.60404600  1
  S  S64  1  0.56229200  0.26625900  0.06738100  1
  S  S65  1  0.12382100  0.99945200  0.89379200  1
  S  S66  1  0.58605700  0.50378000  0.82179200  1
  S  S67  1  0.56229200  0.73374100  0.93261900  1
  S  S68  1  0.31365100  0.99152200  0.16082500  1
  S  S69  1  0.74607200  0.00042000  0.21093500  1
