# generated using pymatgen
data_Cs2CoSiO4
_symmetry_space_group_name_H-M   'P 1'
_cell_length_a   5.88829900
_cell_length_b   12.83920600
_cell_length_c   8.23289100
_cell_angle_alpha   90.00000000
_cell_angle_beta   90.00000000
_cell_angle_gamma   90.00000000
_symmetry_Int_Tables_number   1
_chemical_formula_structural   Cs2CoSiO4
_chemical_formula_sum   'Cs8 Co4 Si4 O16'
_cell_volume   622.41548300
_cell_formula_units_Z   4
loop_
 _symmetry_equiv_pos_site_id
 _symmetry_equiv_pos_as_xyz
  1  'x, y, z'
loop_
 _atom_site_type_symbol
 _atom_site_label
 _atom_site_symmetry_multiplicity
 _atom_site_fract_x
 _atom_site_fract_y
 _atom_site_fract_z
 _atom_site_occupancy
  Cs  Cs0  1  0.50000000  0.42340875  0.27340900  1
  Cs  Cs1  1  0.00000000  0.07659125  0.77340900  1
  Cs  Cs2  1  0.00000000  0.40559325  0.91702650  1
  Cs  Cs3  1  0.50000000  0.09440675  0.41702650  1
  Cs  Cs4  1  0.00000000  0.92340875  0.27340900  1
  Cs  Cs5  1  0.50000000  0.57659125  0.77340900  1
  Cs  Cs6  1  0.50000000  0.90559325  0.91702650  1
  Cs  Cs7  1  0.00000000  0.59440675  0.41702650  1
  Co  Co8  1  0.00000000  0.20696750  0.19405200  1
  Co  Co9  1  0.50000000  0.29303250  0.69405200  1
  Co  Co10  1  0.50000000  0.70696750  0.19405200  1
  Co  Co11  1  0.00000000  0.79303250  0.69405200  1
  Si  Si12  1  0.00000000  0.30138900  0.47887950  1
  Si  Si13  1  0.50000000  0.19861100  0.97887950  1
  Si  Si14  1  0.50000000  0.80138900  0.47887950  1
  Si  Si15  1  0.00000000  0.69861100  0.97887950  1
  O  O16  1  0.00000000  0.35344350  0.29277600  1
  O  O17  1  0.50000000  0.14655650  0.79277600  1
  O  O18  1  0.00000000  0.17392225  0.43757950  1
  O  O19  1  0.50000000  0.32607775  0.93757950  1
  O  O20  1  0.22809525  0.33912375  0.57989700  1
  O  O21  1  0.27190475  0.16087625  0.07989700  1
  O  O22  1  0.77190475  0.33912375  0.57989700  1
  O  O23  1  0.72809525  0.16087625  0.07989700  1
  O  O24  1  0.50000000  0.85344350  0.29277600  1
  O  O25  1  0.00000000  0.64655650  0.79277600  1
  O  O26  1  0.50000000  0.67392225  0.43757950  1
  O  O27  1  0.00000000  0.82607775  0.93757950  1
  O  O28  1  0.72809525  0.83912375  0.57989700  1
  O  O29  1  0.77190475  0.66087625  0.07989700  1
  O  O30  1  0.27190475  0.83912375  0.57989700  1
  O  O31  1  0.22809525  0.66087625  0.07989700  1
