# generated using pymatgen
data_Li3Sn2(PO4)3
_symmetry_space_group_name_H-M   'P 1'
_cell_length_a   8.67482218
_cell_length_b   8.67482218
_cell_length_c   26.57511666
_cell_angle_alpha   90.00000000
_cell_angle_beta   90.00000000
_cell_angle_gamma   120.00000000
_symmetry_Int_Tables_number   1
_chemical_formula_structural   Li3Sn2(PO4)3
_chemical_formula_sum   'Li18 Sn12 P18 O72'
_cell_volume   1731.91659414
_cell_formula_units_Z   6
loop_
 _symmetry_equiv_pos_site_id
 _symmetry_equiv_pos_as_xyz
  1  'x, y, z'
loop_
 _atom_site_type_symbol
 _atom_site_label
 _atom_site_symmetry_multiplicity
 _atom_site_fract_x
 _atom_site_fract_y
 _atom_site_fract_z
 _atom_site_occupancy
  Li  Li0  1  0.01005733  0.29233567  0.04714767  1
  Li  Li1  1  0.95900233  0.61561167  0.28618567  1
  Li  Li2  1  0.28227833  0.98994267  0.04714767  1
  Li  Li3  1  0.65660933  0.04099767  0.28618567  1
  Li  Li4  1  0.38438833  0.34339067  0.28618567  1
  Li  Li5  1  0.70766433  0.71772167  0.04714767  1
  Li  Li6  1  0.67672400  0.62566900  0.38048100  1
  Li  Li7  1  0.62566900  0.94894500  0.61951900  1
  Li  Li8  1  0.94894500  0.32327600  0.38048100  1
  Li  Li9  1  0.32327600  0.37433100  0.61951900  1
  Li  Li10  1  0.05105500  0.67672400  0.61951900  1
  Li  Li11  1  0.37433100  0.05105500  0.38048100  1
  Li  Li12  1  0.34339067  0.95900233  0.71381433  1
  Li  Li13  1  0.29233567  0.28227833  0.95285233  1
  Li  Li14  1  0.61561167  0.65660933  0.71381433  1
  Li  Li15  1  0.98994267  0.70766433  0.95285233  1
  Li  Li16  1  0.71772167  0.01005733  0.95285233  1
  Li  Li17  1  0.04099767  0.38438833  0.71381433  1
  Sn  Sn18  1  0.33333333  0.66666667  0.00918967  1
  Sn  Sn19  1  0.00000000  0.00000000  0.16297000  1
  Sn  Sn20  1  0.66666667  0.33333333  0.17036333  1
  Sn  Sn21  1  0.33333333  0.66666667  0.32414367  1
  Sn  Sn22  1  0.00000000  0.00000000  0.34252300  1
  Sn  Sn23  1  0.66666667  0.33333333  0.49630333  1
  Sn  Sn24  1  0.33333333  0.66666667  0.50369667  1
  Sn  Sn25  1  0.00000000  0.00000000  0.65747700  1
  Sn  Sn26  1  0.66666667  0.33333333  0.67585633  1
  Sn  Sn27  1  0.33333333  0.66666667  0.82963667  1
  Sn  Sn28  1  0.00000000  0.00000000  0.83703000  1
  Sn  Sn29  1  0.66666667  0.33333333  0.99081033  1
  P  P30  1  0.01857267  0.30727533  0.25994333  1
  P  P31  1  0.37796400  0.35190600  0.07339000  1
  P  P32  1  0.64809400  0.02605800  0.07339000  1
  P  P33  1  0.28870267  0.98142733  0.25994333  1
  P  P34  1  0.69272467  0.71129733  0.25994333  1
  P  P35  1  0.97394200  0.62203600  0.07339000  1
  P  P36  1  0.68523933  0.64060867  0.59327667  1
  P  P37  1  0.04463067  0.68523933  0.40672333  1
  P  P38  1  0.31476067  0.35939133  0.40672333  1
  P  P39  1  0.95536933  0.31476067  0.59327667  1
  P  P40  1  0.35939133  0.04463067  0.59327667  1
  P  P41  1  0.64060867  0.95536933  0.40672333  1
  P  P42  1  0.35190600  0.97394200  0.92661000  1
  P  P43  1  0.71129733  0.01857267  0.74005667  1
  P  P44  1  0.98142733  0.69272467  0.74005667  1
  P  P45  1  0.62203600  0.64809400  0.92661000  1
  P  P46  1  0.02605800  0.37796400  0.92661000  1
  P  P47  1  0.30727533  0.28870267  0.74005667  1
  O  O48  1  0.91129733  0.40076967  0.25771467  1
  O  O49  1  0.85021000  0.76571200  0.30085100  1
  O  O50  1  0.63047900  0.10611100  0.12240000  1
  O  O51  1  0.06743633  0.82280567  0.07561867  1
  O  O52  1  0.44611300  0.54625700  0.05194300  1
  O  O53  1  0.77277767  0.80896533  0.21093333  1
  O  O54  1  0.56652267  0.77944633  0.28139033  1
  O  O55  1  0.75536933  0.93256367  0.07561867  1
  O  O56  1  0.43237867  0.24883533  0.03248233  1
  O  O57  1  0.17719433  0.24463067  0.07561867  1
  O  O58  1  0.91550200  0.14979000  0.30085100  1
  O  O59  1  0.59923033  0.51052767  0.25771467  1
  O  O60  1  0.21292367  0.43347733  0.28139033  1
  O  O61  1  0.23428800  0.08449800  0.30085100  1
  O  O62  1  0.89388900  0.52436800  0.12240000  1
  O  O63  1  0.22055367  0.78707633  0.28139033  1
  O  O64  1  0.10014400  0.55388700  0.05194300  1
  O  O65  1  0.81645667  0.56762133  0.03248233  1
  O  O66  1  0.75116467  0.18354333  0.03248233  1
  O  O67  1  0.47563200  0.36952100  0.12240000  1
  O  O68  1  0.19103467  0.96381233  0.21093333  1
  O  O69  1  0.45374300  0.89985600  0.05194300  1
  O  O70  1  0.48947233  0.08870267  0.25771467  1
  O  O71  1  0.03618767  0.22722233  0.21093333  1
  O  O72  1  0.57796400  0.73410300  0.59104800  1
  O  O73  1  0.51687667  0.09904533  0.63418433  1
  O  O74  1  0.29714567  0.43944433  0.45573333  1
  O  O75  1  0.73410300  0.15613900  0.40895200  1
  O  O76  1  0.11277967  0.87959033  0.38527633  1
  O  O77  1  0.43944433  0.14229867  0.54426667  1
  O  O78  1  0.23318933  0.11277967  0.61472367  1
  O  O79  1  0.42203600  0.26589700  0.40895200  1
  O  O80  1  0.09904533  0.58216867  0.36581567  1
  O  O81  1  0.84386100  0.57796400  0.40895200  1
  O  O82  1  0.58216867  0.48312333  0.63418433  1
  O  O83  1  0.26589700  0.84386100  0.59104800  1
  O  O84  1  0.87959033  0.76681067  0.61472367  1
  O  O85  1  0.90095467  0.41783133  0.63418433  1
  O  O86  1  0.56055567  0.85770133  0.45573333  1
  O  O87  1  0.88722033  0.12040967  0.61472367  1
  O  O88  1  0.76681067  0.88722033  0.38527633  1
  O  O89  1  0.48312333  0.90095467  0.36581567  1
  O  O90  1  0.41783133  0.51687667  0.36581567  1
  O  O91  1  0.14229867  0.70285433  0.45573333  1
  O  O92  1  0.85770133  0.29714567  0.54426667  1
  O  O93  1  0.12040967  0.23318933  0.38527633  1
  O  O94  1  0.15613900  0.42203600  0.59104800  1
  O  O95  1  0.70285433  0.56055567  0.54426667  1
  O  O96  1  0.24463067  0.06743633  0.92438133  1
  O  O97  1  0.18354333  0.43237867  0.96751767  1
  O  O98  1  0.96381233  0.77277767  0.78906667  1
  O  O99  1  0.40076967  0.48947233  0.74228533  1
  O  O100  1  0.77944633  0.21292367  0.71860967  1
  O  O101  1  0.10611100  0.47563200  0.87760000  1
  O  O102  1  0.89985600  0.44611300  0.94805700  1
  O  O103  1  0.08870267  0.59923033  0.74228533  1
  O  O104  1  0.76571200  0.91550200  0.69914900  1
  O  O105  1  0.51052767  0.91129733  0.74228533  1
  O  O106  1  0.24883533  0.81645667  0.96751767  1
  O  O107  1  0.93256367  0.17719433  0.92438133  1
  O  O108  1  0.54625700  0.10014400  0.94805700  1
  O  O109  1  0.56762133  0.75116467  0.96751767  1
  O  O110  1  0.22722233  0.19103467  0.78906667  1
  O  O111  1  0.55388700  0.45374300  0.94805700  1
  O  O112  1  0.43347733  0.22055367  0.71860967  1
  O  O113  1  0.14979000  0.23428800  0.69914900  1
  O  O114  1  0.08449800  0.85021000  0.69914900  1
  O  O115  1  0.80896533  0.03618767  0.78906667  1
  O  O116  1  0.52436800  0.63047900  0.87760000  1
  O  O117  1  0.78707633  0.56652267  0.71860967  1
  O  O118  1  0.82280567  0.75536933  0.92438133  1
  O  O119  1  0.36952100  0.89388900  0.87760000  1
