# generated using pymatgen
data_BaCrF6
_symmetry_space_group_name_H-M   'P 1'
_cell_length_a   7.50890831
_cell_length_b   7.50890831
_cell_length_c   7.27212100
_cell_angle_alpha   90.00000000
_cell_angle_beta   90.00000000
_cell_angle_gamma   120.00000000
_symmetry_Int_Tables_number   1
_chemical_formula_structural   BaCrF6
_chemical_formula_sum   'Ba3 Cr3 F18'
_cell_volume   355.09563279
_cell_formula_units_Z   3
loop_
 _symmetry_equiv_pos_site_id
 _symmetry_equiv_pos_as_xyz
  1  'x, y, z'
loop_
 _atom_site_type_symbol
 _atom_site_label
 _atom_site_symmetry_multiplicity
 _atom_site_fract_x
 _atom_site_fract_y
 _atom_site_fract_z
 _atom_site_occupancy
  Ba  Ba0  1  0.00000000  0.00000000  0.50000000  1
  Ba  Ba1  1  0.66666667  0.33333333  0.83333333  1
  Ba  Ba2  1  0.33333333  0.66666667  0.16666667  1
  Cr  Cr3  1  0.00000000  0.00000000  0.00000000  1
  Cr  Cr4  1  0.66666667  0.33333333  0.33333333  1
  Cr  Cr5  1  0.33333333  0.66666667  0.66666667  1
  F  F6  1  0.21808167  0.78191833  0.51329933  1
  F  F7  1  0.21808167  0.43616333  0.51329933  1
  F  F8  1  0.78191833  0.56383667  0.48670067  1
  F  F9  1  0.78191833  0.21808167  0.48670067  1
  F  F10  1  0.43616333  0.21808167  0.48670067  1
  F  F11  1  0.56383667  0.78191833  0.51329933  1
  F  F12  1  0.88474833  0.11525167  0.84663267  1
  F  F13  1  0.88474833  0.76949667  0.84663267  1
  F  F14  1  0.44858500  0.89717000  0.82003400  1
  F  F15  1  0.44858500  0.55141500  0.82003400  1
  F  F16  1  0.10283000  0.55141500  0.82003400  1
  F  F17  1  0.23050333  0.11525167  0.84663267  1
  F  F18  1  0.55141500  0.44858500  0.17996600  1
  F  F19  1  0.55141500  0.10283000  0.17996600  1
  F  F20  1  0.11525167  0.23050333  0.15336733  1
  F  F21  1  0.11525167  0.88474833  0.15336733  1
  F  F22  1  0.76949667  0.88474833  0.15336733  1
  F  F23  1  0.89717000  0.44858500  0.17996600  1
