# generated using pymatgen
data_Li3CaMnN3
_symmetry_space_group_name_H-M   'P 1'
_cell_length_a   5.75288144
_cell_length_b   5.75288144
_cell_length_c   18.62395243
_cell_angle_alpha   90.00000000
_cell_angle_beta   90.00000000
_cell_angle_gamma   120.00000000
_symmetry_Int_Tables_number   1
_chemical_formula_structural   Li3CaMnN3
_chemical_formula_sum   'Li18 Ca6 Mn6 N18'
_cell_volume   533.79356441
_cell_formula_units_Z   6
loop_
 _symmetry_equiv_pos_site_id
 _symmetry_equiv_pos_as_xyz
  1  'x, y, z'
loop_
 _atom_site_type_symbol
 _atom_site_label
 _atom_site_symmetry_multiplicity
 _atom_site_fract_x
 _atom_site_fract_y
 _atom_site_fract_z
 _atom_site_occupancy
  Li  Li0  1  0.69021867  0.72573533  0.20445533  1
  Li  Li1  1  0.03551667  0.30978133  0.20445533  1
  Li  Li2  1  0.39240200  0.36885000  0.12887800  1
  Li  Li3  1  0.97644800  0.60759800  0.12887800  1
  Li  Li4  1  0.63115000  0.02355200  0.12887800  1
  Li  Li5  1  0.27426467  0.96448333  0.20445533  1
  Li  Li6  1  0.35688533  0.05906867  0.53778867  1
  Li  Li7  1  0.70218333  0.64311467  0.53778867  1
  Li  Li8  1  0.05906867  0.70218333  0.46221133  1
  Li  Li9  1  0.64311467  0.94093133  0.46221133  1
  Li  Li10  1  0.29781667  0.35688533  0.46221133  1
  Li  Li11  1  0.94093133  0.29781667  0.53778867  1
  Li  Li12  1  0.02355200  0.39240200  0.87112200  1
  Li  Li13  1  0.36885000  0.97644800  0.87112200  1
  Li  Li14  1  0.72573533  0.03551667  0.79554467  1
  Li  Li15  1  0.30978133  0.27426467  0.79554467  1
  Li  Li16  1  0.96448333  0.69021867  0.79554467  1
  Li  Li17  1  0.60759800  0.63115000  0.87112200  1
  Ca  Ca18  1  0.33333333  0.66666667  0.00406867  1
  Ca  Ca19  1  0.33333333  0.66666667  0.32926467  1
  Ca  Ca20  1  0.00000000  0.00000000  0.33740200  1
  Ca  Ca21  1  0.00000000  0.00000000  0.66259800  1
  Ca  Ca22  1  0.66666667  0.33333333  0.67073533  1
  Ca  Ca23  1  0.66666667  0.33333333  0.99593133  1
  Mn  Mn24  1  0.66666667  0.33333333  0.26829833  1
  Mn  Mn25  1  0.00000000  0.00000000  0.06503500  1
  Mn  Mn26  1  0.33333333  0.66666667  0.60163167  1
  Mn  Mn27  1  0.66666667  0.33333333  0.39836833  1
  Mn  Mn28  1  0.00000000  0.00000000  0.93496500  1
  Mn  Mn29  1  0.33333333  0.66666667  0.73170167  1
  N  N30  1  0.66123267  0.03103733  0.24701533  1
  N  N31  1  0.96896267  0.63019533  0.24701533  1
  N  N32  1  0.00543400  0.30229600  0.08631800  1
  N  N33  1  0.29686200  0.99456600  0.08631800  1
  N  N34  1  0.69770400  0.70313800  0.08631800  1
  N  N35  1  0.36980467  0.33876733  0.24701533  1
  N  N36  1  0.32789933  0.36437067  0.58034867  1
  N  N37  1  0.63562933  0.96352867  0.58034867  1
  N  N38  1  0.67210067  0.63562933  0.41965133  1
  N  N39  1  0.96352867  0.32789933  0.41965133  1
  N  N40  1  0.36437067  0.03647133  0.41965133  1
  N  N41  1  0.03647133  0.67210067  0.58034867  1
  N  N42  1  0.99456600  0.69770400  0.91368200  1
  N  N43  1  0.30229600  0.29686200  0.91368200  1
  N  N44  1  0.33876733  0.96896267  0.75298467  1
  N  N45  1  0.63019533  0.66123267  0.75298467  1
  N  N46  1  0.03103733  0.36980467  0.75298467  1
  N  N47  1  0.70313800  0.00543400  0.91368200  1
