# generated using pymatgen
data_P6Pb3Xe11F58
_symmetry_space_group_name_H-M   'P 1'
_cell_length_a   13.28786400
_cell_length_b   11.78033600
_cell_length_c   19.06818646
_cell_angle_alpha   90.00000000
_cell_angle_beta   104.45580356
_cell_angle_gamma   90.00000000
_symmetry_Int_Tables_number   1
_chemical_formula_structural   P6Pb3Xe11F58
_chemical_formula_sum   'P12 Pb6 Xe22 F116'
_cell_volume   2890.34931893
_cell_formula_units_Z   2
loop_
 _symmetry_equiv_pos_site_id
 _symmetry_equiv_pos_as_xyz
  1  'x, y, z'
loop_
 _atom_site_type_symbol
 _atom_site_label
 _atom_site_symmetry_multiplicity
 _atom_site_fract_x
 _atom_site_fract_y
 _atom_site_fract_z
 _atom_site_occupancy
  P  P0  1  0.82898000  0.50000000  0.06135000  1
  P  P1  1  0.35533300  0.50000000  0.69405900  1
  P  P2  1  0.64466700  0.50000000  0.30594100  1
  P  P3  1  0.20224100  0.50000000  0.30296800  1
  P  P4  1  0.79775900  0.50000000  0.69703200  1
  P  P5  1  0.17102000  0.50000000  0.93865000  1
  P  P6  1  0.32898000  0.00000000  0.06135000  1
  P  P7  1  0.85533300  0.00000000  0.69405900  1
  P  P8  1  0.14466700  0.00000000  0.30594100  1
  P  P9  1  0.70224100  0.00000000  0.30296800  1
  P  P10  1  0.29775900  0.00000000  0.69703200  1
  P  P11  1  0.67102000  0.00000000  0.93865000  1
  Pb  Pb12  1  0.37328200  0.50000000  0.14024900  1
  Pb  Pb13  1  0.62671800  0.50000000  0.85975100  1
  Pb  Pb14  1  0.00000000  0.50000000  0.50000000  1
  Pb  Pb15  1  0.87328200  0.00000000  0.14024900  1
  Pb  Pb16  1  0.12671800  0.00000000  0.85975100  1
  Pb  Pb17  1  0.50000000  0.00000000  0.50000000  1
  Xe  Xe18  1  0.89611300  0.75672700  0.89883700  1
  Xe  Xe19  1  0.75000000  0.75000000  0.50000000  1
  Xe  Xe20  1  0.92438950  0.71541350  0.29948000  1
  Xe  Xe21  1  0.07561050  0.71541350  0.70052000  1
  Xe  Xe22  1  0.10388700  0.75672700  0.10116300  1
  Xe  Xe23  1  0.89611300  0.24327300  0.89883700  1
  Xe  Xe24  1  0.00000000  0.00000000  0.50000000  1
  Xe  Xe25  1  0.07561050  0.28458650  0.70052000  1
  Xe  Xe26  1  0.92438950  0.28458650  0.29948000  1
  Xe  Xe27  1  0.10388700  0.24327300  0.10116300  1
  Xe  Xe28  1  0.25000000  0.75000000  0.50000000  1
  Xe  Xe29  1  0.39611300  0.25672700  0.89883700  1
  Xe  Xe30  1  0.25000000  0.25000000  0.50000000  1
  Xe  Xe31  1  0.42438950  0.21541350  0.29948000  1
  Xe  Xe32  1  0.57561050  0.21541350  0.70052000  1
  Xe  Xe33  1  0.60388700  0.25672700  0.10116300  1
  Xe  Xe34  1  0.39611300  0.74327300  0.89883700  1
  Xe  Xe35  1  0.50000000  0.50000000  0.50000000  1
  Xe  Xe36  1  0.57561050  0.78458650  0.70052000  1
  Xe  Xe37  1  0.42438950  0.78458650  0.29948000  1
  Xe  Xe38  1  0.60388700  0.74327300  0.10116300  1
  Xe  Xe39  1  0.75000000  0.25000000  0.50000000  1
  F  F40  1  0.75442600  0.50000000  0.28275800  1
  F  F41  1  0.06600200  0.19678400  0.79307000  1
  F  F42  1  0.76914100  0.35223900  0.87619000  1
  F  F43  1  0.02288300  0.86880900  0.92397900  1
  F  F44  1  0.97711700  0.13119100  0.07602100  1
  F  F45  1  0.76239800  0.50000000  0.12252800  1
  F  F46  1  0.93399800  0.80321600  0.20693000  1
  F  F47  1  0.71311500  0.50000000  0.99674000  1
  F  F48  1  0.91319700  0.37142800  0.39299800  1
  F  F49  1  0.24557400  0.50000000  0.71724200  1
  F  F50  1  0.89529400  0.50000000  0.65926800  1
  F  F51  1  0.86726150  0.37026250  0.53151900  1
  F  F52  1  0.46844300  0.50000000  0.67364300  1
  F  F53  1  0.14636200  0.40142500  0.24690100  1
  F  F54  1  0.08680300  0.37142800  0.60700200  1
  F  F55  1  0.26244650  0.59758350  0.35949200  1
  F  F56  1  0.76914100  0.64776100  0.87619000  1
  F  F57  1  0.53155700  0.50000000  0.32635700  1
  F  F58  1  0.93797100  0.50000000  0.12298400  1
  F  F59  1  0.85363800  0.40142500  0.75309900  1
  F  F60  1  0.17383300  0.36130600  0.94030700  1
  F  F61  1  0.30263800  0.50000000  0.26390600  1
  F  F62  1  0.85363800  0.59857500  0.75309900  1
  F  F63  1  0.13273850  0.62973750  0.46848100  1
  F  F64  1  0.64427000  0.63860700  0.30545400  1
  F  F65  1  0.70425700  0.50000000  0.39236600  1
  F  F66  1  0.06202900  0.50000000  0.87701600  1
  F  F67  1  0.29574300  0.50000000  0.60763400  1
  F  F68  1  0.64427000  0.36139300  0.30545400  1
  F  F69  1  0.23085900  0.64776100  0.12381000  1
  F  F70  1  0.73755350  0.59758350  0.64050800  1
  F  F71  1  0.91319700  0.62857200  0.39299800  1
  F  F72  1  0.26244650  0.40241650  0.35949200  1
  F  F73  1  0.06600200  0.80321600  0.79307000  1
  F  F74  1  0.28688500  0.50000000  0.00326000  1
  F  F75  1  0.82616700  0.63869400  0.05969300  1
  F  F76  1  0.00000000  0.17588400  0.50000000  1
  F  F77  1  0.02288300  0.13119100  0.92397900  1
  F  F78  1  0.14636200  0.59857500  0.24690100  1
  F  F79  1  0.10470600  0.50000000  0.34073200  1
  F  F80  1  0.86726150  0.62973750  0.53151900  1
  F  F81  1  0.11092800  0.50000000  0.00331700  1
  F  F82  1  0.58122800  0.50000000  0.21797700  1
  F  F83  1  0.35573000  0.36139300  0.69454600  1
  F  F84  1  0.23085900  0.35223900  0.12381000  1
  F  F85  1  0.73755350  0.40241650  0.64050800  1
  F  F86  1  0.17383300  0.63869400  0.94030700  1
  F  F87  1  0.23760200  0.50000000  0.87747200  1
  F  F88  1  0.93399800  0.19678400  0.20693000  1
  F  F89  1  0.13273850  0.37026250  0.46848100  1
  F  F90  1  0.08680300  0.62857200  0.60700200  1
  F  F91  1  0.41877200  0.50000000  0.78202300  1
  F  F92  1  0.88907200  0.50000000  0.99668300  1
  F  F93  1  0.97711700  0.86880900  0.07602100  1
  F  F94  1  0.35573000  0.63860700  0.69454600  1
  F  F95  1  0.00000000  0.82411600  0.50000000  1
  F  F96  1  0.69736200  0.50000000  0.73609400  1
  F  F97  1  0.82616700  0.36130600  0.05969300  1
  F  F98  1  0.25442600  0.00000000  0.28275800  1
  F  F99  1  0.56600200  0.69678400  0.79307000  1
  F  F100  1  0.26914100  0.85223900  0.87619000  1
  F  F101  1  0.52288300  0.36880900  0.92397900  1
  F  F102  1  0.47711700  0.63119100  0.07602100  1
  F  F103  1  0.26239800  0.00000000  0.12252800  1
  F  F104  1  0.43399800  0.30321600  0.20693000  1
  F  F105  1  0.21311500  0.00000000  0.99674000  1
  F  F106  1  0.41319700  0.87142800  0.39299800  1
  F  F107  1  0.74557400  0.00000000  0.71724200  1
  F  F108  1  0.39529400  0.00000000  0.65926800  1
  F  F109  1  0.36726150  0.87026250  0.53151900  1
  F  F110  1  0.96844300  0.00000000  0.67364300  1
  F  F111  1  0.64636200  0.90142500  0.24690100  1
  F  F112  1  0.58680300  0.87142800  0.60700200  1
  F  F113  1  0.76244650  0.09758350  0.35949200  1
  F  F114  1  0.26914100  0.14776100  0.87619000  1
  F  F115  1  0.03155700  0.00000000  0.32635700  1
  F  F116  1  0.43797100  0.00000000  0.12298400  1
  F  F117  1  0.35363800  0.90142500  0.75309900  1
  F  F118  1  0.67383300  0.86130600  0.94030700  1
  F  F119  1  0.80263800  0.00000000  0.26390600  1
  F  F120  1  0.35363800  0.09857500  0.75309900  1
  F  F121  1  0.63273850  0.12973750  0.46848100  1
  F  F122  1  0.14427000  0.13860700  0.30545400  1
  F  F123  1  0.20425700  0.00000000  0.39236600  1
  F  F124  1  0.56202900  0.00000000  0.87701600  1
  F  F125  1  0.79574300  0.00000000  0.60763400  1
  F  F126  1  0.14427000  0.86139300  0.30545400  1
  F  F127  1  0.73085900  0.14776100  0.12381000  1
  F  F128  1  0.23755350  0.09758350  0.64050800  1
  F  F129  1  0.41319700  0.12857200  0.39299800  1
  F  F130  1  0.76244650  0.90241650  0.35949200  1
  F  F131  1  0.56600200  0.30321600  0.79307000  1
  F  F132  1  0.78688500  0.00000000  0.00326000  1
  F  F133  1  0.32616700  0.13869400  0.05969300  1
  F  F134  1  0.50000000  0.67588400  0.50000000  1
  F  F135  1  0.52288300  0.63119100  0.92397900  1
  F  F136  1  0.64636200  0.09857500  0.24690100  1
  F  F137  1  0.60470600  0.00000000  0.34073200  1
  F  F138  1  0.36726150  0.12973750  0.53151900  1
  F  F139  1  0.61092800  0.00000000  0.00331700  1
  F  F140  1  0.08122800  0.00000000  0.21797700  1
  F  F141  1  0.85573000  0.86139300  0.69454600  1
  F  F142  1  0.73085900  0.85223900  0.12381000  1
  F  F143  1  0.23755350  0.90241650  0.64050800  1
  F  F144  1  0.67383300  0.13869400  0.94030700  1
  F  F145  1  0.73760200  0.00000000  0.87747200  1
  F  F146  1  0.43399800  0.69678400  0.20693000  1
  F  F147  1  0.63273850  0.87026250  0.46848100  1
  F  F148  1  0.58680300  0.12857200  0.60700200  1
  F  F149  1  0.91877200  0.00000000  0.78202300  1
  F  F150  1  0.38907200  0.00000000  0.99668300  1
  F  F151  1  0.47711700  0.36880900  0.07602100  1
  F  F152  1  0.85573000  0.13860700  0.69454600  1
  F  F153  1  0.50000000  0.32411600  0.50000000  1
  F  F154  1  0.19736200  0.00000000  0.73609400  1
  F  F155  1  0.32616700  0.86130600  0.05969300  1
