# generated using pymatgen
data_K3In2As3
_symmetry_space_group_name_H-M   'P 1'
_cell_length_a   6.90032400
_cell_length_b   20.08405200
_cell_length_c   15.09912100
_cell_angle_alpha   90.00000000
_cell_angle_beta   90.00000000
_cell_angle_gamma   90.00000000
_symmetry_Int_Tables_number   1
_chemical_formula_structural   K3In2As3
_chemical_formula_sum   'K24 In16 As24'
_cell_volume   2092.53381959
_cell_formula_units_Z   8
loop_
 _symmetry_equiv_pos_site_id
 _symmetry_equiv_pos_as_xyz
  1  'x, y, z'
loop_
 _atom_site_type_symbol
 _atom_site_label
 _atom_site_symmetry_multiplicity
 _atom_site_fract_x
 _atom_site_fract_y
 _atom_site_fract_z
 _atom_site_occupancy
  K  K0  1  0.22790250  0.15813750  0.67585900  1
  K  K1  1  0.27209750  0.15813750  0.17585900  1
  K  K2  1  0.77209750  0.15813750  0.32414100  1
  K  K3  1  0.72790250  0.15813750  0.82414100  1
  K  K4  1  0.34885700  0.00000000  0.86241200  1
  K  K5  1  0.22790250  0.34186250  0.82414100  1
  K  K6  1  0.65114300  0.00000000  0.13758800  1
  K  K7  1  0.72790250  0.34186250  0.67585900  1
  K  K8  1  0.84885700  0.00000000  0.63758800  1
  K  K9  1  0.77209750  0.34186250  0.17585900  1
  K  K10  1  0.15114300  0.00000000  0.36241200  1
  K  K11  1  0.27209750  0.34186250  0.32414100  1
  K  K12  1  0.72790250  0.65813750  0.67585900  1
  K  K13  1  0.77209750  0.65813750  0.17585900  1
  K  K14  1  0.27209750  0.65813750  0.32414100  1
  K  K15  1  0.22790250  0.65813750  0.82414100  1
  K  K16  1  0.84885700  0.50000000  0.86241200  1
  K  K17  1  0.72790250  0.84186250  0.82414100  1
  K  K18  1  0.15114300  0.50000000  0.13758800  1
  K  K19  1  0.22790250  0.84186250  0.67585900  1
  K  K20  1  0.34885700  0.50000000  0.63758800  1
  K  K21  1  0.27209750  0.84186250  0.17585900  1
  K  K22  1  0.65114300  0.50000000  0.36241200  1
  K  K23  1  0.77209750  0.84186250  0.32414100  1
  In  In24  1  0.50000000  0.26130000  0.50000000  1
  In  In25  1  0.50000000  0.23870000  0.00000000  1
  In  In26  1  0.00000000  0.26130000  0.00000000  1
  In  In27  1  0.00000000  0.08346500  0.00000000  1
  In  In28  1  0.00000000  0.23870000  0.50000000  1
  In  In29  1  0.50000000  0.41653500  0.00000000  1
  In  In30  1  0.50000000  0.08346500  0.50000000  1
  In  In31  1  0.00000000  0.41653500  0.50000000  1
  In  In32  1  0.00000000  0.76130000  0.50000000  1
  In  In33  1  0.00000000  0.73870000  0.00000000  1
  In  In34  1  0.50000000  0.76130000  0.00000000  1
  In  In35  1  0.50000000  0.58346500  0.00000000  1
  In  In36  1  0.50000000  0.73870000  0.50000000  1
  In  In37  1  0.00000000  0.91653500  0.00000000  1
  In  In38  1  0.00000000  0.58346500  0.50000000  1
  In  In39  1  0.50000000  0.91653500  0.50000000  1
  As  As40  1  0.77496250  0.17447850  0.09779500  1
  As  As41  1  0.33811700  0.00000000  0.61852100  1
  As  As42  1  0.27496250  0.32552150  0.09779500  1
  As  As43  1  0.22503750  0.17447850  0.90220500  1
  As  As44  1  0.72503750  0.32552150  0.90220500  1
  As  As45  1  0.22503750  0.32552150  0.59779500  1
  As  As46  1  0.27496250  0.17447850  0.40220500  1
  As  As47  1  0.83811700  0.00000000  0.88147900  1
  As  As48  1  0.72503750  0.17447850  0.59779500  1
  As  As49  1  0.16188300  0.00000000  0.11852100  1
  As  As50  1  0.66188300  0.00000000  0.38147900  1
  As  As51  1  0.77496250  0.32552150  0.40220500  1
  As  As52  1  0.27496250  0.67447850  0.09779500  1
  As  As53  1  0.83811700  0.50000000  0.61852100  1
  As  As54  1  0.77496250  0.82552150  0.09779500  1
  As  As55  1  0.72503750  0.67447850  0.90220500  1
  As  As56  1  0.22503750  0.82552150  0.90220500  1
  As  As57  1  0.72503750  0.82552150  0.59779500  1
  As  As58  1  0.77496250  0.67447850  0.40220500  1
  As  As59  1  0.33811700  0.50000000  0.88147900  1
  As  As60  1  0.22503750  0.67447850  0.59779500  1
  As  As61  1  0.66188300  0.50000000  0.11852100  1
  As  As62  1  0.16188300  0.50000000  0.38147900  1
  As  As63  1  0.27496250  0.82552150  0.40220500  1
