# generated using pymatgen
data_Ag15P4S16Cl3
_symmetry_space_group_name_H-M   'P 1'
_cell_length_a   15.06517200
_cell_length_b   15.06517200
_cell_length_c   15.06517200
_cell_angle_alpha   90.00000000
_cell_angle_beta   90.00000000
_cell_angle_gamma   90.00000000
_symmetry_Int_Tables_number   1
_chemical_formula_structural   Ag15P4S16Cl3
_chemical_formula_sum   'Ag60 P16 S64 Cl12'
_cell_volume   3419.18250934
_cell_formula_units_Z   4
loop_
 _symmetry_equiv_pos_site_id
 _symmetry_equiv_pos_as_xyz
  1  'x, y, z'
loop_
 _atom_site_type_symbol
 _atom_site_label
 _atom_site_symmetry_multiplicity
 _atom_site_fract_x
 _atom_site_fract_y
 _atom_site_fract_z
 _atom_site_occupancy
  Ag  Ag0  1  0.21667000  0.41034900  0.37130400  1
  Ag  Ag1  1  0.75000000  0.12500000  0.00000000  1
  Ag  Ag2  1  0.58965100  0.87130400  0.28333000  1
  Ag  Ag3  1  0.12869600  0.78333000  0.91034900  1
  Ag  Ag4  1  0.37869600  0.16034900  0.03333000  1
  Ag  Ag5  1  0.03333000  0.62130400  0.33965100  1
  Ag  Ag6  1  0.28333000  0.58965100  0.87130400  1
  Ag  Ag7  1  0.16034900  0.96667000  0.12130400  1
  Ag  Ag8  1  0.91034900  0.12869600  0.78333000  1
  Ag  Ag9  1  0.12869600  0.21667000  0.58965100  1
  Ag  Ag10  1  0.03333000  0.37869600  0.16034900  1
  Ag  Ag11  1  0.12500000  0.00000000  0.75000000  1
  Ag  Ag12  1  0.41034900  0.37130400  0.21667000  1
  Ag  Ag13  1  0.46667000  0.37869600  0.83965100  1
  Ag  Ag14  1  0.78333000  0.91034900  0.12869600  1
  Ag  Ag15  1  0.12130400  0.16034900  0.96667000  1
  Ag  Ag16  1  0.33965100  0.03333000  0.62130400  1
  Ag  Ag17  1  0.62130400  0.33965100  0.03333000  1
  Ag  Ag18  1  0.00000000  0.75000000  0.12500000  1
  Ag  Ag19  1  0.25000000  0.37500000  0.00000000  1
  Ag  Ag20  1  0.83965100  0.46667000  0.37869600  1
  Ag  Ag21  1  0.58965100  0.12869600  0.21667000  1
  Ag  Ag22  1  0.87130400  0.28333000  0.58965100  1
  Ag  Ag23  1  0.96667000  0.12130400  0.16034900  1
  Ag  Ag24  1  0.37130400  0.21667000  0.41034900  1
  Ag  Ag25  1  0.21667000  0.58965100  0.12869600  1
  Ag  Ag26  1  0.00000000  0.25000000  0.37500000  1
  Ag  Ag27  1  0.16034900  0.03333000  0.37869600  1
  Ag  Ag28  1  0.37869600  0.83965100  0.46667000  1
  Ag  Ag29  1  0.37500000  0.00000000  0.25000000  1
  Ag  Ag30  1  0.71667000  0.91034900  0.87130400  1
  Ag  Ag31  1  0.25000000  0.62500000  0.50000000  1
  Ag  Ag32  1  0.08965100  0.37130400  0.78333000  1
  Ag  Ag33  1  0.62869600  0.28333000  0.41034900  1
  Ag  Ag34  1  0.87869600  0.66034900  0.53333000  1
  Ag  Ag35  1  0.53333000  0.12130400  0.83965100  1
  Ag  Ag36  1  0.78333000  0.08965100  0.37130400  1
  Ag  Ag37  1  0.66034900  0.46667000  0.62130400  1
  Ag  Ag38  1  0.41034900  0.62869600  0.28333000  1
  Ag  Ag39  1  0.62869600  0.71667000  0.08965100  1
  Ag  Ag40  1  0.53333000  0.87869600  0.66034900  1
  Ag  Ag41  1  0.62500000  0.50000000  0.25000000  1
  Ag  Ag42  1  0.91034900  0.87130400  0.71667000  1
  Ag  Ag43  1  0.96667000  0.87869600  0.33965100  1
  Ag  Ag44  1  0.28333000  0.41034900  0.62869600  1
  Ag  Ag45  1  0.62130400  0.66034900  0.46667000  1
  Ag  Ag46  1  0.83965100  0.53333000  0.12130400  1
  Ag  Ag47  1  0.12130400  0.83965100  0.53333000  1
  Ag  Ag48  1  0.50000000  0.25000000  0.62500000  1
  Ag  Ag49  1  0.75000000  0.87500000  0.50000000  1
  Ag  Ag50  1  0.33965100  0.96667000  0.87869600  1
  Ag  Ag51  1  0.08965100  0.62869600  0.71667000  1
  Ag  Ag52  1  0.37130400  0.78333000  0.08965100  1
  Ag  Ag53  1  0.46667000  0.62130400  0.66034900  1
  Ag  Ag54  1  0.87130400  0.71667000  0.91034900  1
  Ag  Ag55  1  0.71667000  0.08965100  0.62869600  1
  Ag  Ag56  1  0.50000000  0.75000000  0.87500000  1
  Ag  Ag57  1  0.66034900  0.53333000  0.87869600  1
  Ag  Ag58  1  0.87869600  0.33965100  0.96667000  1
  Ag  Ag59  1  0.87500000  0.50000000  0.75000000  1
  P  P60  1  0.19986500  0.19986500  0.19986500  1
  P  P61  1  0.80013500  0.30013500  0.19986500  1
  P  P62  1  0.94986500  0.05013500  0.55013500  1
  P  P63  1  0.19986500  0.80013500  0.30013500  1
  P  P64  1  0.55013500  0.94986500  0.05013500  1
  P  P65  1  0.30013500  0.19986500  0.80013500  1
  P  P66  1  0.44986500  0.44986500  0.44986500  1
  P  P67  1  0.05013500  0.55013500  0.94986500  1
  P  P68  1  0.69986500  0.69986500  0.69986500  1
  P  P69  1  0.30013500  0.80013500  0.69986500  1
  P  P70  1  0.44986500  0.55013500  0.05013500  1
  P  P71  1  0.69986500  0.30013500  0.80013500  1
  P  P72  1  0.05013500  0.44986500  0.55013500  1
  P  P73  1  0.80013500  0.69986500  0.30013500  1
  P  P74  1  0.94986500  0.94986500  0.94986500  1
  P  P75  1  0.55013500  0.05013500  0.44986500  1
  S  S76  1  0.35359300  0.72811400  0.59398500  1
  S  S77  1  0.59398500  0.35359300  0.72811400  1
  S  S78  1  0.97151900  0.47151900  0.02848100  1
  S  S79  1  0.10359300  0.65601500  0.02188600  1
  S  S80  1  0.15601500  0.47811400  0.89640700  1
  S  S81  1  0.22151900  0.72151900  0.77848100  1
  S  S82  1  0.02848100  0.02848100  0.02848100  1
  S  S83  1  0.90601500  0.35359300  0.27188600  1
  S  S84  1  0.77848100  0.22151900  0.72151900  1
  S  S85  1  0.09398500  0.14640700  0.27188600  1
  S  S86  1  0.22811400  0.90601500  0.64640700  1
  S  S87  1  0.47811400  0.10359300  0.34398500  1
  S  S88  1  0.72151900  0.77848100  0.22151900  1
  S  S89  1  0.02188600  0.10359300  0.65601500  1
  S  S90  1  0.14640700  0.27188600  0.09398500  1
  S  S91  1  0.10359300  0.34398500  0.47811400  1
  S  S92  1  0.72811400  0.59398500  0.35359300  1
  S  S93  1  0.39640700  0.34398500  0.52188600  1
  S  S94  1  0.34398500  0.52188600  0.39640700  1
  S  S95  1  0.65601500  0.02188600  0.10359300  1
  S  S96  1  0.47151900  0.02848100  0.97151900  1
  S  S97  1  0.02848100  0.97151900  0.47151900  1
  S  S98  1  0.89640700  0.15601500  0.47811400  1
  S  S99  1  0.34398500  0.47811400  0.10359300  1
  S  S100  1  0.27188600  0.09398500  0.14640700  1
  S  S101  1  0.27848100  0.27848100  0.27848100  1
  S  S102  1  0.27188600  0.90601500  0.35359300  1
  S  S103  1  0.47811400  0.89640700  0.15601500  1
  S  S104  1  0.35359300  0.27188600  0.90601500  1
  S  S105  1  0.90601500  0.64640700  0.22811400  1
  S  S106  1  0.52188600  0.39640700  0.34398500  1
  S  S107  1  0.64640700  0.22811400  0.90601500  1
  S  S108  1  0.85359300  0.22811400  0.09398500  1
  S  S109  1  0.09398500  0.85359300  0.22811400  1
  S  S110  1  0.47151900  0.97151900  0.52848100  1
  S  S111  1  0.60359300  0.15601500  0.52188600  1
  S  S112  1  0.65601500  0.97811400  0.39640700  1
  S  S113  1  0.72151900  0.22151900  0.27848100  1
  S  S114  1  0.52848100  0.52848100  0.52848100  1
  S  S115  1  0.40601500  0.85359300  0.77188600  1
  S  S116  1  0.27848100  0.72151900  0.22151900  1
  S  S117  1  0.59398500  0.64640700  0.77188600  1
  S  S118  1  0.72811400  0.40601500  0.14640700  1
  S  S119  1  0.97811400  0.60359300  0.84398500  1
  S  S120  1  0.22151900  0.27848100  0.72151900  1
  S  S121  1  0.52188600  0.60359300  0.15601500  1
  S  S122  1  0.64640700  0.77188600  0.59398500  1
  S  S123  1  0.60359300  0.84398500  0.97811400  1
  S  S124  1  0.22811400  0.09398500  0.85359300  1
  S  S125  1  0.89640700  0.84398500  0.02188600  1
  S  S126  1  0.84398500  0.02188600  0.89640700  1
  S  S127  1  0.15601500  0.52188600  0.60359300  1
  S  S128  1  0.97151900  0.52848100  0.47151900  1
  S  S129  1  0.52848100  0.47151900  0.97151900  1
  S  S130  1  0.39640700  0.65601500  0.97811400  1
  S  S131  1  0.84398500  0.97811400  0.60359300  1
  S  S132  1  0.77188600  0.59398500  0.64640700  1
  S  S133  1  0.77848100  0.77848100  0.77848100  1
  S  S134  1  0.77188600  0.40601500  0.85359300  1
  S  S135  1  0.97811400  0.39640700  0.65601500  1
  S  S136  1  0.85359300  0.77188600  0.40601500  1
  S  S137  1  0.40601500  0.14640700  0.72811400  1
  S  S138  1  0.02188600  0.89640700  0.84398500  1
  S  S139  1  0.14640700  0.72811400  0.40601500  1
  Cl  Cl140  1  0.50000000  0.75000000  0.37500000  1
  Cl  Cl141  1  0.25000000  0.12500000  0.50000000  1
  Cl  Cl142  1  0.12500000  0.50000000  0.25000000  1
  Cl  Cl143  1  0.37500000  0.50000000  0.75000000  1
  Cl  Cl144  1  0.50000000  0.25000000  0.12500000  1
  Cl  Cl145  1  0.75000000  0.37500000  0.50000000  1
  Cl  Cl146  1  0.00000000  0.25000000  0.87500000  1
  Cl  Cl147  1  0.75000000  0.62500000  0.00000000  1
  Cl  Cl148  1  0.62500000  0.00000000  0.75000000  1
  Cl  Cl149  1  0.87500000  0.00000000  0.25000000  1
  Cl  Cl150  1  0.00000000  0.75000000  0.62500000  1
  Cl  Cl151  1  0.25000000  0.87500000  0.00000000  1
