# generated using pymatgen
data_Pr3SiSe2N3
_symmetry_space_group_name_H-M   'P 1'
_cell_length_a   19.13900163
_cell_length_b   19.13900163
_cell_length_c   10.49741584
_cell_angle_alpha   90.00000000
_cell_angle_beta   90.00000000
_cell_angle_gamma   120.00000000
_symmetry_Int_Tables_number   1
_chemical_formula_structural   Pr3SiSe2N3
_chemical_formula_sum   'Pr54 Si18 Se36 N54'
_cell_volume   3330.05642216
_cell_formula_units_Z   18
loop_
 _symmetry_equiv_pos_site_id
 _symmetry_equiv_pos_as_xyz
  1  'x, y, z'
loop_
 _atom_site_type_symbol
 _atom_site_label
 _atom_site_symmetry_multiplicity
 _atom_site_fract_x
 _atom_site_fract_y
 _atom_site_fract_z
 _atom_site_occupancy
  Pr  Pr0  1  0.51936200  0.31950100  0.44907500  1
  Pr  Pr1  1  0.22942767  0.14209433  0.48502333  1
  Pr  Pr2  1  0.14730467  0.01383233  0.88425833  1
  Pr  Pr3  1  0.42066667  0.89609433  0.18164333  1
  Pr  Pr4  1  0.41366700  0.31230300  0.14319800  1
  Pr  Pr5  1  0.43723900  0.19123900  0.84831000  1
  Pr  Pr6  1  0.13347233  0.14730467  0.11574167  1
  Pr  Pr7  1  0.53319433  0.18602867  0.21759167  1
  Pr  Pr8  1  0.43469733  0.08033367  0.52346867  1
  Pr  Pr9  1  0.52457233  0.42066667  0.81835667  1
  Pr  Pr10  1  0.23196933  0.25299967  0.80986467  1
  Pr  Pr11  1  0.34716567  0.53319433  0.78240833  1
  Pr  Pr12  1  0.35436367  0.43469733  0.47653133  1
  Pr  Pr13  1  0.14209433  0.91266667  0.51497667  1
  Pr  Pr14  1  0.25299967  0.02103033  0.19013533  1
  Pr  Pr15  1  0.31950100  0.80013900  0.55092500  1
  Pr  Pr16  1  0.31230300  0.89863600  0.85680200  1
  Pr  Pr17  1  0.24600000  0.43723900  0.15169000  1
  Pr  Pr18  1  0.18602867  0.65283433  0.78240833  1
  Pr  Pr19  1  0.89609433  0.47542767  0.81835667  1
  Pr  Pr20  1  0.81397133  0.34716567  0.21759167  1
  Pr  Pr21  1  0.08733333  0.22942767  0.51497667  1
  Pr  Pr22  1  0.08033367  0.64563633  0.47653133  1
  Pr  Pr23  1  0.10390567  0.52457233  0.18164333  1
  Pr  Pr24  1  0.80013900  0.48063800  0.44907500  1
  Pr  Pr25  1  0.19986100  0.51936200  0.55092500  1
  Pr  Pr26  1  0.10136400  0.41366700  0.85680200  1
  Pr  Pr27  1  0.19123900  0.75400000  0.15169000  1
  Pr  Pr28  1  0.89863600  0.58633300  0.14319800  1
  Pr  Pr29  1  0.01383233  0.86652767  0.11574167  1
  Pr  Pr30  1  0.02103033  0.76803067  0.80986467  1
  Pr  Pr31  1  0.80876100  0.24600000  0.84831000  1
  Pr  Pr32  1  0.91966633  0.35436367  0.52346867  1
  Pr  Pr33  1  0.98616767  0.13347233  0.88425833  1
  Pr  Pr34  1  0.97896967  0.23196933  0.19013533  1
  Pr  Pr35  1  0.91266667  0.77057233  0.48502333  1
  Pr  Pr36  1  0.85269533  0.98616767  0.11574167  1
  Pr  Pr37  1  0.56276100  0.80876100  0.15169000  1
  Pr  Pr38  1  0.48063800  0.68049900  0.55092500  1
  Pr  Pr39  1  0.75400000  0.56276100  0.84831000  1
  Pr  Pr40  1  0.74700033  0.97896967  0.80986467  1
  Pr  Pr41  1  0.77057233  0.85790567  0.51497667  1
  Pr  Pr42  1  0.46680567  0.81397133  0.78240833  1
  Pr  Pr43  1  0.86652767  0.85269533  0.88425833  1
  Pr  Pr44  1  0.76803067  0.74700033  0.19013533  1
  Pr  Pr45  1  0.85790567  0.08733333  0.48502333  1
  Pr  Pr46  1  0.56530267  0.91966633  0.47653133  1
  Pr  Pr47  1  0.68049900  0.19986100  0.44907500  1
  Pr  Pr48  1  0.68769700  0.10136400  0.14319800  1
  Pr  Pr49  1  0.47542767  0.57933333  0.18164333  1
  Pr  Pr50  1  0.58633300  0.68769700  0.85680200  1
  Pr  Pr51  1  0.65283433  0.46680567  0.21759167  1
  Pr  Pr52  1  0.64563633  0.56530267  0.52346867  1
  Pr  Pr53  1  0.57933333  0.10390567  0.81835667  1
  Si  Si54  1  0.09356900  0.00762400  0.29716300  1
  Si  Si55  1  0.08594500  0.09356900  0.70283700  1
  Si  Si56  1  0.58072167  0.23976433  0.63049633  1
  Si  Si57  1  0.34095733  0.58072167  0.36950367  1
  Si  Si58  1  0.32570933  0.75261167  0.96382967  1
  Si  Si59  1  0.57309767  0.32570933  0.03617033  1
  Si  Si60  1  0.76023567  0.34095733  0.63049633  1
  Si  Si61  1  0.75261167  0.42690233  0.03617033  1
  Si  Si62  1  0.24738833  0.57309767  0.96382967  1
  Si  Si63  1  0.00762400  0.91405500  0.70283700  1
  Si  Si64  1  0.99237600  0.08594500  0.29716300  1
  Si  Si65  1  0.23976433  0.65904267  0.36950367  1
  Si  Si66  1  0.42690233  0.67429067  0.96382967  1
  Si  Si67  1  0.41927833  0.76023567  0.36950367  1
  Si  Si68  1  0.91405500  0.90643100  0.29716300  1
  Si  Si69  1  0.67429067  0.24738833  0.03617033  1
  Si  Si70  1  0.65904267  0.41927833  0.63049633  1
  Si  Si71  1  0.90643100  0.99237600  0.70283700  1
  Se  Se72  1  0.20904400  0.37548800  0.66822600  1
  Se  Se73  1  0.29117867  0.16688933  0.00155933  1
  Se  Se74  1  0.42008867  0.04639033  0.02066533  1
  Se  Se75  1  0.28694300  0.04036500  0.68733200  1
  Se  Se76  1  0.37369833  0.42008867  0.97933467  1
  Se  Se77  1  0.37972367  0.29296833  0.64600133  1
  Se  Se78  1  0.16688933  0.87571067  0.99844067  1
  Se  Se79  1  0.37548800  0.16644400  0.33177400  1
  Se  Se80  1  0.45762267  0.95784533  0.66510733  1
  Se  Se81  1  0.29296833  0.91324467  0.35399867  1
  Se  Se82  1  0.24657800  0.28694300  0.31266800  1
  Se  Se83  1  0.49977733  0.45762267  0.33489267  1
  Se  Se84  1  0.87571067  0.70882133  0.00155933  1
  Se  Se85  1  0.95784533  0.50022267  0.33489267  1
  Se  Se86  1  0.08675533  0.37972367  0.35399867  1
  Se  Se87  1  0.95360967  0.37369833  0.02066533  1
  Se  Se88  1  0.04036500  0.75342200  0.31266800  1
  Se  Se89  1  0.04639033  0.62630167  0.97933467  1
  Se  Se90  1  0.83355600  0.20904400  0.33177400  1
  Se  Se91  1  0.04215467  0.49977733  0.66510733  1
  Se  Se92  1  0.12428933  0.29117867  0.99844067  1
  Se  Se93  1  0.95963500  0.24657800  0.68733200  1
  Se  Se94  1  0.91324467  0.62027633  0.64600133  1
  Se  Se95  1  0.16644400  0.79095600  0.66822600  1
  Se  Se96  1  0.54237733  0.04215467  0.33489267  1
  Se  Se97  1  0.62451200  0.83355600  0.66822600  1
  Se  Se98  1  0.75342200  0.71305700  0.68733200  1
  Se  Se99  1  0.62027633  0.70703167  0.35399867  1
  Se  Se100  1  0.70703167  0.08675533  0.64600133  1
  Se  Se101  1  0.71305700  0.95963500  0.31266800  1
  Se  Se102  1  0.50022267  0.54237733  0.66510733  1
  Se  Se103  1  0.70882133  0.83311067  0.99844067  1
  Se  Se104  1  0.79095600  0.62451200  0.33177400  1
  Se  Se105  1  0.62630167  0.57991133  0.02066533  1
  Se  Se106  1  0.57991133  0.95360967  0.97933467  1
  Se  Se107  1  0.83311067  0.12428933  0.00155933  1
  N  N108  1  0.16089433  0.17938867  0.62820067  1
  N  N109  1  0.10928033  0.11901567  0.86848667  1
  N  N110  1  0.08492133  0.09229167  0.33064667  1
  N  N111  1  0.55738633  0.21431767  0.46484667  1
  N  N112  1  0.11901567  0.00973533  0.13151333  1
  N  N113  1  0.58174533  0.24104167  0.00268667  1
  N  N114  1  0.32359800  0.77594700  0.79818000  1
  N  N115  1  0.34306867  0.55738633  0.53515333  1
  N  N116  1  0.34070367  0.58174533  0.99731333  1
  N  N117  1  0.54765100  0.32359800  0.20182000  1
  N  N118  1  0.32596300  0.75158800  0.33602000  1
  N  N119  1  0.31483900  0.82756100  0.03846600  1
  N  N120  1  0.35182767  0.50577233  0.29486733  1
  N  N121  1  0.09229167  0.00737033  0.66935333  1
  N  N122  1  0.50577233  0.15394467  0.70513267  1
  N  N123  1  0.57437500  0.32596300  0.66398000  1
  N  N124  1  0.17938867  0.01849433  0.37179933  1
  N  N125  1  0.48727800  0.31483900  0.96153400  1
  N  N126  1  0.82756100  0.51272200  0.96153400  1
  N  N127  1  0.77594700  0.45234900  0.20182000  1
  N  N128  1  0.75158800  0.42562500  0.66398000  1
  N  N129  1  0.22405300  0.54765100  0.79818000  1
  N  N130  1  0.78568233  0.34306867  0.46484667  1
  N  N131  1  0.24841200  0.57437500  0.33602000  1
  N  N132  1  0.99026467  0.10928033  0.13151333  1
  N  N133  1  0.00973533  0.89071967  0.86848667  1
  N  N134  1  0.00737033  0.91507867  0.33064667  1
  N  N135  1  0.21431767  0.65693133  0.53515333  1
  N  N136  1  0.99262967  0.08492133  0.66935333  1
  N  N137  1  0.98150567  0.16089433  0.37179933  1
  N  N138  1  0.01849433  0.83910567  0.62820067  1
  N  N139  1  0.75895833  0.34070367  0.00268667  1
  N  N140  1  0.17243900  0.48727800  0.03846600  1
  N  N141  1  0.24104167  0.65929633  0.99731333  1
  N  N142  1  0.84605533  0.35182767  0.70513267  1
  N  N143  1  0.15394467  0.64817233  0.29486733  1
  N  N144  1  0.49422767  0.84605533  0.29486733  1
  N  N145  1  0.44261367  0.78568233  0.53515333  1
  N  N146  1  0.41825467  0.75895833  0.99731333  1
  N  N147  1  0.89071967  0.88098433  0.13151333  1
  N  N148  1  0.45234900  0.67640200  0.79818000  1
  N  N149  1  0.91507867  0.90770833  0.66935333  1
  N  N150  1  0.65693133  0.44261367  0.46484667  1
  N  N151  1  0.67640200  0.22405300  0.20182000  1
  N  N152  1  0.67403700  0.24841200  0.66398000  1
  N  N153  1  0.88098433  0.99026467  0.86848667  1
  N  N154  1  0.65929633  0.41825467  0.00268667  1
  N  N155  1  0.64817233  0.49422767  0.70513267  1
  N  N156  1  0.68516100  0.17243900  0.96153400  1
  N  N157  1  0.42562500  0.67403700  0.33602000  1
  N  N158  1  0.83910567  0.82061133  0.37179933  1
  N  N159  1  0.90770833  0.99262967  0.33064667  1
  N  N160  1  0.51272200  0.68516100  0.03846600  1
  N  N161  1  0.82061133  0.98150567  0.62820067  1
