# generated using pymatgen
data_BaHf(PO4)2
_symmetry_space_group_name_H-M   'P 1'
_cell_length_a   8.68649200
_cell_length_b   5.34664200
_cell_length_c   7.95615949
_cell_angle_alpha   90.00000000
_cell_angle_beta   93.59470091
_cell_angle_gamma   90.00000000
_symmetry_Int_Tables_number   1
_chemical_formula_structural   BaHf(PO4)2
_chemical_formula_sum   'Ba2 Hf2 P4 O16'
_cell_volume   368.78539034
_cell_formula_units_Z   2
loop_
 _symmetry_equiv_pos_site_id
 _symmetry_equiv_pos_as_xyz
  1  'x, y, z'
loop_
 _atom_site_type_symbol
 _atom_site_label
 _atom_site_symmetry_multiplicity
 _atom_site_fract_x
 _atom_site_fract_y
 _atom_site_fract_z
 _atom_site_occupancy
  Ba  Ba0  1  0.00000000  0.00000000  0.50000000  1
  Ba  Ba1  1  0.50000000  0.50000000  0.50000000  1
  Hf  Hf2  1  0.00000000  0.00000000  0.00000000  1
  Hf  Hf3  1  0.50000000  0.50000000  0.00000000  1
  P  P4  1  0.63774500  0.00000000  0.77967000  1
  P  P5  1  0.36225500  0.00000000  0.22033000  1
  P  P6  1  0.13774500  0.50000000  0.77967000  1
  P  P7  1  0.86225500  0.50000000  0.22033000  1
  O  O8  1  0.46166600  0.23673100  0.18669600  1
  O  O9  1  0.77663600  0.00000000  0.91045900  1
  O  O10  1  0.68207600  0.00000000  0.59742400  1
  O  O11  1  0.31792400  0.00000000  0.40257600  1
  O  O12  1  0.22336400  0.00000000  0.08954100  1
  O  O13  1  0.46166600  0.76326900  0.18669600  1
  O  O14  1  0.53833400  0.23673100  0.81330400  1
  O  O15  1  0.53833400  0.76326900  0.81330400  1
  O  O16  1  0.96166600  0.73673100  0.18669600  1
  O  O17  1  0.27663600  0.50000000  0.91045900  1
  O  O18  1  0.18207600  0.50000000  0.59742400  1
  O  O19  1  0.81792400  0.50000000  0.40257600  1
  O  O20  1  0.72336400  0.50000000  0.08954100  1
  O  O21  1  0.96166600  0.26326900  0.18669600  1
  O  O22  1  0.03833400  0.73673100  0.81330400  1
  O  O23  1  0.03833400  0.26326900  0.81330400  1
