# generated using pymatgen
data_CaH8(NO5)2
_symmetry_space_group_name_H-M   'P 1'
_cell_length_a   6.31041500
_cell_length_b   9.30410300
_cell_length_c   15.05329644
_cell_angle_alpha   90.00000000
_cell_angle_beta   107.01843699
_cell_angle_gamma   90.00000000
_symmetry_Int_Tables_number   1
_chemical_formula_structural   CaH8(NO5)2
_chemical_formula_sum   'Ca4 H32 N8 O40'
_cell_volume   845.11850276
_cell_formula_units_Z   4
loop_
 _symmetry_equiv_pos_site_id
 _symmetry_equiv_pos_as_xyz
  1  'x, y, z'
loop_
 _atom_site_type_symbol
 _atom_site_label
 _atom_site_symmetry_multiplicity
 _atom_site_fract_x
 _atom_site_fract_y
 _atom_site_fract_z
 _atom_site_occupancy
  Ca  Ca0  1  0.81601500  0.09490600  0.86485900  1
  Ca  Ca1  1  0.81601500  0.40509400  0.36485900  1
  Ca  Ca2  1  0.18398500  0.90509400  0.13514100  1
  Ca  Ca3  1  0.18398500  0.59490600  0.63514100  1
  H  H4  1  0.24307600  0.21297500  0.38804200  1
  H  H5  1  0.53309500  0.13331800  0.34969200  1
  H  H6  1  0.91727300  0.87205800  0.56896300  1
  H  H7  1  0.90475400  0.88639500  0.26521500  1
  H  H8  1  0.09524600  0.38639500  0.23478500  1
  H  H9  1  0.58766000  0.91662900  0.97965000  1
  H  H10  1  0.35992400  0.82300100  0.54643700  1
  H  H11  1  0.53587800  0.11592000  0.12510800  1
  H  H12  1  0.08272700  0.12794200  0.43103700  1
  H  H13  1  0.46412200  0.61592000  0.37489200  1
  H  H14  1  0.08272700  0.37205800  0.93103700  1
  H  H15  1  0.96557700  0.05015100  0.26339700  1
  H  H16  1  0.64007600  0.17699900  0.45356300  1
  H  H17  1  0.24307600  0.28702500  0.88804200  1
  H  H18  1  0.46690500  0.63331800  0.15030800  1
  H  H19  1  0.53587800  0.38408000  0.62510800  1
  H  H20  1  0.75692400  0.71297500  0.11195800  1
  H  H21  1  0.91727300  0.62794200  0.06896300  1
  H  H22  1  0.75692400  0.78702500  0.61195800  1
  H  H23  1  0.58766000  0.58337100  0.47965000  1
  H  H24  1  0.90475400  0.61360500  0.76521500  1
  H  H25  1  0.35992400  0.67699900  0.04643700  1
  H  H26  1  0.46690500  0.86668200  0.65030800  1
  H  H27  1  0.03442300  0.94984900  0.73660300  1
  H  H28  1  0.03442300  0.55015100  0.23660300  1
  H  H29  1  0.41234000  0.41662900  0.52035000  1
  H  H30  1  0.41234000  0.08337100  0.02035000  1
  H  H31  1  0.96557700  0.44984900  0.76339700  1
  H  H32  1  0.46412200  0.88408000  0.87489200  1
  H  H33  1  0.64007600  0.32300100  0.95356300  1
  H  H34  1  0.53309500  0.36668200  0.84969200  1
  H  H35  1  0.09524600  0.11360500  0.73478500  1
  N  N36  1  0.54623500  0.12516800  0.66436500  1
  N  N37  1  0.45376500  0.62516800  0.83563500  1
  N  N38  1  0.45376500  0.87483200  0.33563500  1
  N  N39  1  0.99843200  0.76470700  0.91139200  1
  N  N40  1  0.99843200  0.73529300  0.41139200  1
  N  N41  1  0.00156800  0.23529300  0.08860800  1
  N  N42  1  0.54623500  0.37483200  0.16436500  1
  N  N43  1  0.00156800  0.26470700  0.58860800  1
  O  O44  1  0.07912800  0.85301000  0.44666900  1
  O  O45  1  0.05906200  0.03763900  0.77399900  1
  O  O46  1  0.45061300  0.11912500  0.57973600  1
  O  O47  1  0.55383000  0.54268700  0.41742100  1
  O  O48  1  0.87279700  0.77290000  0.82927000  1
  O  O49  1  0.44257200  0.78253500  0.60724300  1
  O  O50  1  0.92087200  0.14699000  0.55333100  1
  O  O51  1  0.08451500  0.30083400  0.88348800  1
  O  O52  1  0.65007200  0.26289300  0.20300400  1
  O  O53  1  0.94093800  0.96236100  0.22600100  1
  O  O54  1  0.44257200  0.71746500  0.10724300  1
  O  O55  1  0.55383000  0.95731300  0.91742100  1
  O  O56  1  0.95739700  0.38105400  0.54053200  1
  O  O57  1  0.07912800  0.64699000  0.94666900  1
  O  O58  1  0.45061300  0.38087500  0.07973600  1
  O  O59  1  0.44617000  0.45731300  0.58257900  1
  O  O60  1  0.54611700  0.48317400  0.21777600  1
  O  O61  1  0.65007200  0.23710700  0.70300400  1
  O  O62  1  0.95739700  0.11894600  0.04053200  1
  O  O63  1  0.92087200  0.35301000  0.05333100  1
  O  O64  1  0.05906200  0.46236100  0.27399900  1
  O  O65  1  0.54938700  0.88087500  0.42026400  1
  O  O66  1  0.34992800  0.73710700  0.79699600  1
  O  O67  1  0.94093800  0.53763900  0.72600100  1
  O  O68  1  0.91548500  0.80083400  0.61651200  1
  O  O69  1  0.54938700  0.61912500  0.92026400  1
  O  O70  1  0.08451500  0.19916600  0.38348800  1
  O  O71  1  0.04260300  0.61894600  0.45946800  1
  O  O72  1  0.87279700  0.72710000  0.32927000  1
  O  O73  1  0.55742800  0.21746500  0.39275700  1
  O  O74  1  0.44617000  0.04268700  0.08257900  1
  O  O75  1  0.45388300  0.98317400  0.28222400  1
  O  O76  1  0.54611700  0.01682600  0.71777600  1
  O  O77  1  0.55742800  0.28253500  0.89275700  1
  O  O78  1  0.12720300  0.27290000  0.67073000  1
  O  O79  1  0.45388300  0.51682600  0.78222400  1
  O  O80  1  0.34992800  0.76289300  0.29699600  1
  O  O81  1  0.12720300  0.22710000  0.17073000  1
  O  O82  1  0.04260300  0.88105400  0.95946800  1
  O  O83  1  0.91548500  0.69916600  0.11651200  1
