# generated using pymatgen
data_K3Ti3(PO4)5
_symmetry_space_group_name_H-M   'P 1'
_cell_length_a   6.36779800
_cell_length_b   14.87759400
_cell_length_c   18.34234000
_cell_angle_alpha   90.00000000
_cell_angle_beta   90.00000000
_cell_angle_gamma   90.00000000
_symmetry_Int_Tables_number   1
_chemical_formula_structural   K3Ti3(PO4)5
_chemical_formula_sum   'K12 Ti12 P20 O80'
_cell_volume   1737.70768003
_cell_formula_units_Z   4
loop_
 _symmetry_equiv_pos_site_id
 _symmetry_equiv_pos_as_xyz
  1  'x, y, z'
loop_
 _atom_site_type_symbol
 _atom_site_label
 _atom_site_symmetry_multiplicity
 _atom_site_fract_x
 _atom_site_fract_y
 _atom_site_fract_z
 _atom_site_occupancy
  K  K0  1  0.34269700  0.74726600  0.17805600  1
  K  K1  1  0.62142900  0.51998900  0.84720000  1
  K  K2  1  0.65730300  0.24726600  0.82194400  1
  K  K3  1  0.36217300  0.46872200  0.14576800  1
  K  K4  1  0.63782700  0.46872200  0.64576800  1
  K  K5  1  0.37857100  0.51998900  0.34720000  1
  K  K6  1  0.63782700  0.96872200  0.85423200  1
  K  K7  1  0.62142900  0.01998900  0.65280000  1
  K  K8  1  0.37857100  0.01998900  0.15280000  1
  K  K9  1  0.65730300  0.74726600  0.67805600  1
  K  K10  1  0.36217300  0.96872200  0.35423200  1
  K  K11  1  0.34269700  0.24726600  0.32194400  1
  Ti  Ti12  1  0.75398000  0.85499600  0.05314700  1
  Ti  Ti13  1  0.75040200  0.25017400  0.14847400  1
  Ti  Ti14  1  0.24893100  0.11698300  0.95753800  1
  Ti  Ti15  1  0.24602000  0.35499600  0.94685300  1
  Ti  Ti16  1  0.24959800  0.75017400  0.85152600  1
  Ti  Ti17  1  0.24959800  0.25017400  0.64847400  1
  Ti  Ti18  1  0.75106900  0.11698300  0.45753800  1
  Ti  Ti19  1  0.24893100  0.61698300  0.54246200  1
  Ti  Ti20  1  0.75398000  0.35499600  0.44685300  1
  Ti  Ti21  1  0.75106900  0.61698300  0.04246200  1
  Ti  Ti22  1  0.75040200  0.75017400  0.35152600  1
  Ti  Ti23  1  0.24602000  0.85499600  0.55314700  1
  P  P24  1  0.13585400  0.09807400  0.77991100  1
  P  P25  1  0.25336500  0.08925500  0.51259200  1
  P  P26  1  0.25474100  0.88454900  0.00575200  1
  P  P27  1  0.25474100  0.38454900  0.49424800  1
  P  P28  1  0.86634700  0.40784700  0.27224900  1
  P  P29  1  0.86634700  0.90784700  0.22775100  1
  P  P30  1  0.86414600  0.59807400  0.22008900  1
  P  P31  1  0.74757600  0.24521500  0.60406000  1
  P  P32  1  0.74663500  0.08925500  0.01259200  1
  P  P33  1  0.13365300  0.90784700  0.72775100  1
  P  P34  1  0.74525900  0.38454900  0.99424800  1
  P  P35  1  0.13365300  0.40784700  0.77224900  1
  P  P36  1  0.74757600  0.74521500  0.89594000  1
  P  P37  1  0.74525900  0.88454900  0.50575200  1
  P  P38  1  0.86414600  0.09807400  0.27991100  1
  P  P39  1  0.13585400  0.59807400  0.72008900  1
  P  P40  1  0.25242400  0.74521500  0.39594000  1
  P  P41  1  0.25336500  0.58925500  0.98740800  1
  P  P42  1  0.74663500  0.58925500  0.48740800  1
  P  P43  1  0.25242400  0.24521500  0.10406000  1
  O  O44  1  0.24872900  0.67637000  0.75973300  1
  O  O45  1  0.26232400  0.98457200  0.98690400  1
  O  O46  1  0.05303200  0.11245300  0.46893200  1
  O  O47  1  0.24856100  0.07975900  0.85346400  1
  O  O48  1  0.25074700  0.73400900  0.57011400  1
  O  O49  1  0.24856100  0.57975900  0.64653600  1
  O  O50  1  0.94403200  0.86135300  0.55013100  1
  O  O51  1  0.73683500  0.32662500  0.06418500  1
  O  O52  1  0.04937500  0.74684000  0.34971600  1
  O  O53  1  0.24872900  0.17637000  0.74026700  1
  O  O54  1  0.75127100  0.67637000  0.25973300  1
  O  O55  1  0.94696800  0.11245300  0.96893200  1
  O  O56  1  0.89805400  0.40198600  0.77284900  1
  O  O57  1  0.74991100  0.87782800  0.15815900  1
  O  O58  1  0.56273600  0.11318200  0.96028300  1
  O  O59  1  0.24656700  0.36275100  0.70711800  1
  O  O60  1  0.73659300  0.15532300  0.56254800  1
  O  O61  1  0.73683500  0.82662500  0.43581500  1
  O  O62  1  0.44006800  0.86001400  0.05677200  1
  O  O63  1  0.56277700  0.25100300  0.65894400  1
  O  O64  1  0.90033300  0.10253300  0.78387100  1
  O  O65  1  0.75127100  0.17637000  0.24026700  1
  O  O66  1  0.95062500  0.74684000  0.84971600  1
  O  O67  1  0.75343300  0.36275100  0.20711800  1
  O  O68  1  0.94696800  0.61245300  0.53106800  1
  O  O69  1  0.73909500  0.98874800  0.03101000  1
  O  O70  1  0.75143900  0.57975900  0.14653600  1
  O  O71  1  0.95062500  0.24684000  0.65028400  1
  O  O72  1  0.73909500  0.48874800  0.46899000  1
  O  O73  1  0.10194600  0.40198600  0.27284900  1
  O  O74  1  0.26316500  0.82662500  0.93581500  1
  O  O75  1  0.26641100  0.14354800  0.58494100  1
  O  O76  1  0.25613600  0.82888000  0.44593400  1
  O  O77  1  0.73358900  0.64354800  0.41505900  1
  O  O78  1  0.26340700  0.65532300  0.43745200  1
  O  O79  1  0.44006800  0.36001400  0.44322800  1
  O  O80  1  0.24656700  0.86275100  0.79288200  1
  O  O81  1  0.21116500  0.51255200  0.76951300  1
  O  O82  1  0.05596800  0.36135300  0.44986900  1
  O  O83  1  0.05596800  0.86135300  0.05013100  1
  O  O84  1  0.78883500  0.51255200  0.26951300  1
  O  O85  1  0.43722300  0.25100300  0.15894400  1
  O  O86  1  0.94403200  0.36135300  0.94986900  1
  O  O87  1  0.74386400  0.32888000  0.55406600  1
  O  O88  1  0.56277700  0.75100300  0.84105600  1
  O  O89  1  0.89805400  0.90198600  0.72715100  1
  O  O90  1  0.10194600  0.90198600  0.22715100  1
  O  O91  1  0.25074700  0.23400900  0.92988600  1
  O  O92  1  0.09966700  0.10253300  0.28387100  1
  O  O93  1  0.04937500  0.24684000  0.15028400  1
  O  O94  1  0.43726400  0.11318200  0.46028300  1
  O  O95  1  0.26232400  0.48457200  0.51309600  1
  O  O96  1  0.26340700  0.15532300  0.06254800  1
  O  O97  1  0.25008900  0.87782800  0.65815900  1
  O  O98  1  0.73767600  0.48457200  0.01309600  1
  O  O99  1  0.26090500  0.98874800  0.53101000  1
  O  O100  1  0.25008900  0.37782800  0.84184100  1
  O  O101  1  0.26090500  0.48874800  0.96899000  1
  O  O102  1  0.55993200  0.86001400  0.55677200  1
  O  O103  1  0.26641100  0.64354800  0.91505900  1
  O  O104  1  0.43726400  0.61318200  0.03971700  1
  O  O105  1  0.55993200  0.36001400  0.94322800  1
  O  O106  1  0.56273600  0.61318200  0.53971700  1
  O  O107  1  0.75343300  0.86275100  0.29288200  1
  O  O108  1  0.74386400  0.82888000  0.94593400  1
  O  O109  1  0.09966700  0.60253300  0.21612900  1
  O  O110  1  0.73767600  0.98457200  0.48690400  1
  O  O111  1  0.90033300  0.60253300  0.71612900  1
  O  O112  1  0.74991100  0.37782800  0.34184100  1
  O  O113  1  0.75143900  0.07975900  0.35346400  1
  O  O114  1  0.73659300  0.65532300  0.93745200  1
  O  O115  1  0.43722300  0.75100300  0.34105600  1
  O  O116  1  0.74925300  0.73400900  0.07011400  1
  O  O117  1  0.78883500  0.01255200  0.23048700  1
  O  O118  1  0.26316500  0.32662500  0.56418500  1
  O  O119  1  0.25613600  0.32888000  0.05406600  1
  O  O120  1  0.21116500  0.01255200  0.73048700  1
  O  O121  1  0.05303200  0.61245300  0.03106800  1
  O  O122  1  0.74925300  0.23400900  0.42988600  1
  O  O123  1  0.73358900  0.14354800  0.08494100  1
