# generated using pymatgen
data_HfI4
_symmetry_space_group_name_H-M   'P 1'
_cell_length_a   12.57873200
_cell_length_b   12.49460600
_cell_length_c   13.29377255
_cell_angle_alpha   90.00000000
_cell_angle_beta   115.04946247
_cell_angle_gamma   90.00000000
_symmetry_Int_Tables_number   1
_chemical_formula_structural   HfI4
_chemical_formula_sum   'Hf8 I32'
_cell_volume   1892.81583544
_cell_formula_units_Z   8
loop_
 _symmetry_equiv_pos_site_id
 _symmetry_equiv_pos_as_xyz
  1  'x, y, z'
loop_
 _atom_site_type_symbol
 _atom_site_label
 _atom_site_symmetry_multiplicity
 _atom_site_fract_x
 _atom_site_fract_y
 _atom_site_fract_z
 _atom_site_occupancy
  Hf  Hf0  1  0.07377800  0.86564400  0.12366000  1
  Hf  Hf1  1  0.07377800  0.13435600  0.62366000  1
  Hf  Hf2  1  0.92622200  0.13435600  0.87634000  1
  Hf  Hf3  1  0.92622200  0.86564400  0.37634000  1
  Hf  Hf4  1  0.57377800  0.36564400  0.12366000  1
  Hf  Hf5  1  0.57377800  0.63435600  0.62366000  1
  Hf  Hf6  1  0.42622200  0.63435600  0.87634000  1
  Hf  Hf7  1  0.42622200  0.36564400  0.37634000  1
  I  I8  1  0.05885800  0.89066100  0.61207500  1
  I  I9  1  0.34074000  0.61256100  0.63949300  1
  I  I10  1  0.65926000  0.61256100  0.86050700  1
  I  I11  1  0.79383850  0.62150850  0.63602700  1
  I  I12  1  0.20616150  0.62150850  0.86397300  1
  I  I13  1  0.65926000  0.38743900  0.36050700  1
  I  I14  1  0.95092400  0.34966700  0.88975800  1
  I  I15  1  0.94114200  0.89066100  0.88792500  1
  I  I16  1  0.20616150  0.37849150  0.36397300  1
  I  I17  1  0.79383850  0.37849150  0.13602700  1
  I  I18  1  0.95092400  0.65033300  0.38975800  1
  I  I19  1  0.04907600  0.34966700  0.61024200  1
  I  I20  1  0.94114200  0.10933900  0.38792500  1
  I  I21  1  0.04907600  0.65033300  0.11024200  1
  I  I22  1  0.05885800  0.10933900  0.11207500  1
  I  I23  1  0.34074000  0.38743900  0.13949300  1
  I  I24  1  0.55885800  0.39066100  0.61207500  1
  I  I25  1  0.84074000  0.11256100  0.63949300  1
  I  I26  1  0.15926000  0.11256100  0.86050700  1
  I  I27  1  0.29383850  0.12150850  0.63602700  1
  I  I28  1  0.70616150  0.12150850  0.86397300  1
  I  I29  1  0.15926000  0.88743900  0.36050700  1
  I  I30  1  0.45092400  0.84966700  0.88975800  1
  I  I31  1  0.44114200  0.39066100  0.88792500  1
  I  I32  1  0.70616150  0.87849150  0.36397300  1
  I  I33  1  0.29383850  0.87849150  0.13602700  1
  I  I34  1  0.45092400  0.15033300  0.38975800  1
  I  I35  1  0.54907600  0.84966700  0.61024200  1
  I  I36  1  0.44114200  0.60933900  0.38792500  1
  I  I37  1  0.54907600  0.15033300  0.11024200  1
  I  I38  1  0.55885800  0.60933900  0.11207500  1
  I  I39  1  0.84074000  0.88743900  0.13949300  1
