# generated using pymatgen
data_BaLa2Te5O14
_symmetry_space_group_name_H-M   'P 1'
_cell_length_a   19.42730400
_cell_length_b   6.09688800
_cell_length_c   13.42786067
_cell_angle_alpha   90.00000000
_cell_angle_beta   107.78800369
_cell_angle_gamma   90.00000000
_symmetry_Int_Tables_number   1
_chemical_formula_structural   BaLa2Te5O14
_chemical_formula_sum   'Ba4 La8 Te20 O56'
_cell_volume   1514.44231582
_cell_formula_units_Z   4
loop_
 _symmetry_equiv_pos_site_id
 _symmetry_equiv_pos_as_xyz
  1  'x, y, z'
loop_
 _atom_site_type_symbol
 _atom_site_label
 _atom_site_symmetry_multiplicity
 _atom_site_fract_x
 _atom_site_fract_y
 _atom_site_fract_z
 _atom_site_occupancy
  Ba  Ba0  1  0.75000000  0.25000000  0.00000000  1
  Ba  Ba1  1  0.75000000  0.75000000  0.50000000  1
  Ba  Ba2  1  0.25000000  0.75000000  0.00000000  1
  Ba  Ba3  1  0.25000000  0.25000000  0.50000000  1
  La  La4  1  0.67416050  0.77777350  0.16832900  1
  La  La5  1  0.82583950  0.72222650  0.83167100  1
  La  La6  1  0.82583950  0.27777350  0.33167100  1
  La  La7  1  0.67416050  0.22222650  0.66832900  1
  La  La8  1  0.17416050  0.27777350  0.16832900  1
  La  La9  1  0.32583950  0.22222650  0.83167100  1
  La  La10  1  0.32583950  0.77777350  0.33167100  1
  La  La11  1  0.17416050  0.72222650  0.66832900  1
  Te  Te12  1  0.94593900  0.24677300  0.97048600  1
  Te  Te13  1  0.64336550  0.75349450  0.83942300  1
  Te  Te14  1  0.85663450  0.25349450  0.66057700  1
  Te  Te15  1  0.55406100  0.25322700  0.02951400  1
  Te  Te16  1  0.55406100  0.74677300  0.52951400  1
  Te  Te17  1  0.94593900  0.75322700  0.47048600  1
  Te  Te18  1  0.00000000  0.21162700  0.25000000  1
  Te  Te19  1  0.00000000  0.78837300  0.75000000  1
  Te  Te20  1  0.64336550  0.24650550  0.33942300  1
  Te  Te21  1  0.85663450  0.74650550  0.16057700  1
  Te  Te22  1  0.44593900  0.74677300  0.97048600  1
  Te  Te23  1  0.14336550  0.25349450  0.83942300  1
  Te  Te24  1  0.35663450  0.75349450  0.66057700  1
  Te  Te25  1  0.05406100  0.75322700  0.02951400  1
  Te  Te26  1  0.05406100  0.24677300  0.52951400  1
  Te  Te27  1  0.44593900  0.25322700  0.47048600  1
  Te  Te28  1  0.50000000  0.71162700  0.25000000  1
  Te  Te29  1  0.50000000  0.28837300  0.75000000  1
  Te  Te30  1  0.14336550  0.74650550  0.33942300  1
  Te  Te31  1  0.35663450  0.24650550  0.16057700  1
  O  O32  1  0.93506200  0.96174400  0.91168100  1
  O  O33  1  0.93992500  0.40818800  0.29326100  1
  O  O34  1  0.70248500  0.48551600  0.31954100  1
  O  O35  1  0.56007500  0.09181200  0.70673900  1
  O  O36  1  0.78731150  0.46944250  0.67138200  1
  O  O37  1  0.93992500  0.59181200  0.79326100  1
  O  O38  1  0.91776250  0.79061150  0.59552600  1
  O  O39  1  0.85179200  0.34013500  0.89230300  1
  O  O40  1  0.91776250  0.20938850  0.09552600  1
  O  O41  1  0.79751500  0.01448400  0.68045900  1
  O  O42  1  0.64820800  0.84013500  0.60769700  1
  O  O43  1  0.66832400  0.24090000  0.48621500  1
  O  O44  1  0.71268850  0.03055750  0.32861800  1
  O  O45  1  0.79751500  0.98551600  0.18045900  1
  O  O46  1  0.58223750  0.29061150  0.90447400  1
  O  O47  1  0.70248500  0.51448400  0.81954100  1
  O  O48  1  0.56493800  0.53825600  0.08831900  1
  O  O49  1  0.58223750  0.70938850  0.40447400  1
  O  O50  1  0.78731150  0.53055750  0.17138200  1
  O  O51  1  0.93506200  0.03825600  0.41168100  1
  O  O52  1  0.56493800  0.46174400  0.58831900  1
  O  O53  1  0.56007500  0.90818800  0.20673900  1
  O  O54  1  0.83167600  0.25910000  0.51378500  1
  O  O55  1  0.71268850  0.96944250  0.82861800  1
  O  O56  1  0.85179200  0.65986500  0.39230300  1
  O  O57  1  0.64820800  0.15986500  0.10769700  1
  O  O58  1  0.66832400  0.75910000  0.98621500  1
  O  O59  1  0.83167600  0.74090000  0.01378500  1
  O  O60  1  0.43506200  0.46174400  0.91168100  1
  O  O61  1  0.43992500  0.90818800  0.29326100  1
  O  O62  1  0.20248500  0.98551600  0.31954100  1
  O  O63  1  0.06007500  0.59181200  0.70673900  1
  O  O64  1  0.28731150  0.96944250  0.67138200  1
  O  O65  1  0.43992500  0.09181200  0.79326100  1
  O  O66  1  0.41776250  0.29061150  0.59552600  1
  O  O67  1  0.35179200  0.84013500  0.89230300  1
  O  O68  1  0.41776250  0.70938850  0.09552600  1
  O  O69  1  0.29751500  0.51448400  0.68045900  1
  O  O70  1  0.14820800  0.34013500  0.60769700  1
  O  O71  1  0.16832400  0.74090000  0.48621500  1
  O  O72  1  0.21268850  0.53055750  0.32861800  1
  O  O73  1  0.29751500  0.48551600  0.18045900  1
  O  O74  1  0.08223750  0.79061150  0.90447400  1
  O  O75  1  0.20248500  0.01448400  0.81954100  1
  O  O76  1  0.06493800  0.03825600  0.08831900  1
  O  O77  1  0.08223750  0.20938850  0.40447400  1
  O  O78  1  0.28731150  0.03055750  0.17138200  1
  O  O79  1  0.43506200  0.53825600  0.41168100  1
  O  O80  1  0.06493800  0.96174400  0.58831900  1
  O  O81  1  0.06007500  0.40818800  0.20673900  1
  O  O82  1  0.33167600  0.75910000  0.51378500  1
  O  O83  1  0.21268850  0.46944250  0.82861800  1
  O  O84  1  0.35179200  0.15986500  0.39230300  1
  O  O85  1  0.14820800  0.65986500  0.10769700  1
  O  O86  1  0.16832400  0.25910000  0.98621500  1
  O  O87  1  0.33167600  0.24090000  0.01378500  1
