# generated using pymatgen
data_NaNb2PO8
_symmetry_space_group_name_H-M   'P 1'
_cell_length_a   6.85178000
_cell_length_b   5.51119100
_cell_length_c   18.24685970
_cell_angle_alpha   90.00000000
_cell_angle_beta   90.23286564
_cell_angle_gamma   90.00000000
_symmetry_Int_Tables_number   1
_chemical_formula_structural   NaNb2PO8
_chemical_formula_sum   'Na4 Nb8 P4 O32'
_cell_volume   689.02252294
_cell_formula_units_Z   4
loop_
 _symmetry_equiv_pos_site_id
 _symmetry_equiv_pos_as_xyz
  1  'x, y, z'
loop_
 _atom_site_type_symbol
 _atom_site_label
 _atom_site_symmetry_multiplicity
 _atom_site_fract_x
 _atom_site_fract_y
 _atom_site_fract_z
 _atom_site_occupancy
  Na  Na0  1  0.28816100  0.78589300  0.28415200  1
  Na  Na1  1  0.78891500  0.25028000  0.21660700  1
  Na  Na2  1  0.21108500  0.75028000  0.78339300  1
  Na  Na3  1  0.71183900  0.28589300  0.71584800  1
  Nb  Nb4  1  0.48995300  0.26624600  0.37264200  1
  Nb  Nb5  1  0.33878500  0.75225100  0.96099100  1
  Nb  Nb6  1  0.16433100  0.75646200  0.46089000  1
  Nb  Nb7  1  0.00875900  0.25910000  0.87401000  1
  Nb  Nb8  1  0.83566900  0.25646200  0.53911000  1
  Nb  Nb9  1  0.51004700  0.76624600  0.62735800  1
  Nb  Nb10  1  0.99124100  0.75910000  0.12599000  1
  Nb  Nb11  1  0.66121500  0.25225100  0.03900900  1
  P  P12  1  0.69194600  0.77902300  0.81433200  1
  P  P13  1  0.30805400  0.27902300  0.18566800  1
  P  P14  1  0.80992400  0.76665700  0.31277000  1
  P  P15  1  0.19007600  0.26665700  0.68723000  1
  O  O16  1  0.99215700  0.75351000  0.36220700  1
  O  O17  1  0.84209700  0.26408900  0.95991900  1
  O  O18  1  0.65776800  0.27819500  0.45923700  1
  O  O19  1  0.00784300  0.25351000  0.63779300  1
  O  O20  1  0.78740600  0.03386200  0.81879800  1
  O  O21  1  0.66849000  0.03026900  0.60195300  1
  O  O22  1  0.52267000  0.55297400  0.00761400  1
  O  O23  1  0.21259400  0.53386200  0.18120200  1
  O  O24  1  0.31532600  0.03476300  0.68219300  1
  O  O25  1  0.68467400  0.53476300  0.31780700  1
  O  O26  1  0.88392700  0.78502600  0.23202900  1
  O  O27  1  0.32508000  0.02145100  0.40393600  1
  O  O28  1  0.33151000  0.53026900  0.39804700  1
  O  O29  1  0.47733000  0.05297400  0.99238600  1
  O  O30  1  0.37699400  0.24316600  0.26691000  1
  O  O31  1  0.80784100  0.99255900  0.09242600  1
  O  O32  1  0.16263500  0.07369100  0.16962200  1
  O  O33  1  0.19215900  0.49255900  0.90757400  1
  O  O34  1  0.84717400  0.48702300  0.10411300  1
  O  O35  1  0.15790300  0.76408900  0.04008100  1
  O  O36  1  0.50754600  0.76503900  0.86236000  1
  O  O37  1  0.69139400  0.00060500  0.32633700  1
  O  O38  1  0.15282600  0.98702300  0.89588700  1
  O  O39  1  0.62300600  0.74316600  0.73309000  1
  O  O40  1  0.01689000  0.49686500  0.50169100  1
  O  O41  1  0.11607300  0.28502600  0.76797100  1
  O  O42  1  0.30860600  0.50060500  0.67366300  1
  O  O43  1  0.67492000  0.52145100  0.59606400  1
  O  O44  1  0.98311000  0.99686500  0.49830900  1
  O  O45  1  0.49245400  0.26503900  0.13764000  1
  O  O46  1  0.34223200  0.77819500  0.54076300  1
  O  O47  1  0.83736500  0.57369100  0.83037800  1
