# generated using pymatgen
data_SiO2
_symmetry_space_group_name_H-M   'P 1'
_cell_length_a   7.47056800
_cell_length_b   8.85296800
_cell_length_c   17.43134624
_cell_angle_alpha   90.00000000
_cell_angle_beta   114.19116662
_cell_angle_gamma   90.00000000
_symmetry_Int_Tables_number   1
_chemical_formula_structural   SiO2
_chemical_formula_sum   'Si18 O36'
_cell_volume   1051.61207888
_cell_formula_units_Z   18
loop_
 _symmetry_equiv_pos_site_id
 _symmetry_equiv_pos_as_xyz
  1  'x, y, z'
loop_
 _atom_site_type_symbol
 _atom_site_label
 _atom_site_symmetry_multiplicity
 _atom_site_fract_x
 _atom_site_fract_y
 _atom_site_fract_z
 _atom_site_occupancy
  Si  Si0  1  0.72929900  0.34572100  0.57988100  1
  Si  Si1  1  0.27070100  0.34572100  0.92011900  1
  Si  Si2  1  0.28895900  0.35135100  0.17929700  1
  Si  Si3  1  0.27070100  0.65427900  0.42011900  1
  Si  Si4  1  0.00000000  0.50370800  0.75000000  1
  Si  Si5  1  0.71104100  0.35135100  0.32070300  1
  Si  Si6  1  0.31014500  0.39640900  0.55571600  1
  Si  Si7  1  0.06466600  0.17471500  0.00925600  1
  Si  Si8  1  0.06466600  0.82528500  0.50925600  1
  Si  Si9  1  0.72929900  0.65427900  0.07988100  1
  Si  Si10  1  0.68985500  0.60359100  0.44428400  1
  Si  Si11  1  0.28895900  0.64864900  0.67929700  1
  Si  Si12  1  0.00000000  0.49629200  0.25000000  1
  Si  Si13  1  0.71104100  0.64864900  0.82070300  1
  Si  Si14  1  0.93533400  0.17471500  0.49074400  1
  Si  Si15  1  0.31014500  0.60359100  0.05571600  1
  Si  Si16  1  0.68985500  0.39640900  0.94428400  1
  Si  Si17  1  0.93533400  0.82528500  0.99074400  1
  O  O18  1  0.19484400  0.77913400  0.60749500  1
  O  O19  1  0.86845000  0.27787200  0.97064000  1
  O  O20  1  0.12692400  0.61059200  0.32501000  1
  O  O21  1  0.51370500  0.30537200  0.57656100  1
  O  O22  1  0.85945900  0.38574000  0.27584100  1
  O  O23  1  0.51370500  0.69462800  0.07656100  1
  O  O24  1  0.48629500  0.30537200  0.92343900  1
  O  O25  1  0.80515600  0.22086600  0.39250500  1
  O  O26  1  0.14054100  0.38574000  0.22415900  1
  O  O27  1  0.27446000  0.49061300  0.97780400  1
  O  O28  1  0.87307600  0.61059200  0.17499000  1
  O  O29  1  0.80735800  0.80087900  0.04651000  1
  O  O30  1  0.32280800  0.49246600  0.63723100  1
  O  O31  1  0.72554000  0.49061300  0.52219600  1
  O  O32  1  0.86845000  0.72212800  0.47064000  1
  O  O33  1  0.48629500  0.69462800  0.42343900  1
  O  O34  1  0.85945900  0.61426000  0.77584100  1
  O  O35  1  0.32280800  0.50753400  0.13723100  1
  O  O36  1  0.67719200  0.49246600  0.86276900  1
  O  O37  1  0.13155000  0.27787200  0.52936000  1
  O  O38  1  0.87307600  0.38940800  0.67499000  1
  O  O39  1  0.67719200  0.50753400  0.36276900  1
  O  O40  1  0.00000000  0.00000000  0.50000000  1
  O  O41  1  0.14054100  0.61426000  0.72415900  1
  O  O42  1  0.12692400  0.38940800  0.82501000  1
  O  O43  1  0.80515600  0.77913400  0.89250500  1
  O  O44  1  0.19484400  0.22086600  0.10749500  1
  O  O45  1  0.27446000  0.50938700  0.47780400  1
  O  O46  1  0.19264200  0.80087900  0.45349000  1
  O  O47  1  0.50000000  0.70632900  0.75000000  1
  O  O48  1  0.72554000  0.50938700  0.02219600  1
  O  O49  1  0.00000000  0.00000000  0.00000000  1
  O  O50  1  0.50000000  0.29367100  0.25000000  1
  O  O51  1  0.13155000  0.72212800  0.02936000  1
  O  O52  1  0.19264200  0.19912100  0.95349000  1
  O  O53  1  0.80735800  0.19912100  0.54651000  1
