# generated using pymatgen
data_H7NO6
_symmetry_space_group_name_H-M   'P 1'
_cell_length_a   3.66297100
_cell_length_b   9.57500800
_cell_length_c   14.61768000
_cell_angle_alpha   90.00000000
_cell_angle_beta   90.00000000
_cell_angle_gamma   90.00000000
_symmetry_Int_Tables_number   1
_chemical_formula_structural   H7NO6
_chemical_formula_sum   'H28 N4 O24'
_cell_volume   512.68554901
_cell_formula_units_Z   4
loop_
 _symmetry_equiv_pos_site_id
 _symmetry_equiv_pos_as_xyz
  1  'x, y, z'
loop_
 _atom_site_type_symbol
 _atom_site_label
 _atom_site_symmetry_multiplicity
 _atom_site_fract_x
 _atom_site_fract_y
 _atom_site_fract_z
 _atom_site_occupancy
  H  H0  1  0.24876500  0.57537200  0.69187900  1
  H  H1  1  0.74876500  0.92462800  0.30812100  1
  H  H2  1  0.75123500  0.07537200  0.80812100  1
  H  H3  1  0.25123500  0.42462800  0.19187900  1
  H  H4  1  0.93231200  0.47378100  0.66217400  1
  H  H5  1  0.43231200  0.02621900  0.33782600  1
  H  H6  1  0.06768800  0.97378100  0.83782600  1
  H  H7  1  0.56768800  0.52621900  0.16217400  1
  H  H8  1  0.33395100  0.78820900  0.37949600  1
  H  H9  1  0.83395100  0.71179100  0.62050400  1
  H  H10  1  0.66604900  0.28820900  0.12050400  1
  H  H11  1  0.16604900  0.21179100  0.87949600  1
  H  H12  1  0.06576200  0.68134700  0.32946400  1
  H  H13  1  0.56576200  0.81865300  0.67053600  1
  H  H14  1  0.93423800  0.18134700  0.17053600  1
  H  H15  1  0.43423800  0.31865300  0.82946400  1
  H  H16  1  0.31344600  0.59335200  0.44116400  1
  H  H17  1  0.81344600  0.90664800  0.55883600  1
  H  H18  1  0.68655400  0.09335200  0.05883600  1
  H  H19  1  0.18655400  0.40664800  0.94116400  1
  H  H20  1  0.36109200  0.41601400  0.45755800  1
  H  H21  1  0.86109200  0.08398600  0.54244200  1
  H  H22  1  0.63890800  0.91601400  0.04244200  1
  H  H23  1  0.13890800  0.58398600  0.95755800  1
  H  H24  1  0.27903900  0.52110600  0.54804600  1
  H  H25  1  0.77903900  0.97889400  0.45195400  1
  H  H26  1  0.72096100  0.02110600  0.95195400  1
  H  H27  1  0.22096100  0.47889400  0.04804600  1
  N  N28  1  0.18952500  0.27121000  0.33132700  1
  N  N29  1  0.68952500  0.22879000  0.66867300  1
  N  N30  1  0.81047500  0.77121000  0.16867300  1
  N  N31  1  0.31047500  0.72879000  0.83132700  1
  O  O32  1  0.06418500  0.38448900  0.30029900  1
  O  O33  1  0.56418500  0.11551100  0.69970100  1
  O  O34  1  0.93581500  0.88448900  0.19970100  1
  O  O35  1  0.43581500  0.61551100  0.80029900  1
  O  O36  1  0.18508900  0.16093200  0.28212100  1
  O  O37  1  0.68508900  0.33906800  0.71787900  1
  O  O38  1  0.81491100  0.66093200  0.21787900  1
  O  O39  1  0.31491100  0.83906800  0.78212100  1
  O  O40  1  0.32179300  0.26432800  0.41129300  1
  O  O41  1  0.82179300  0.23567200  0.58870700  1
  O  O42  1  0.67820700  0.76432800  0.08870700  1
  O  O43  1  0.17820700  0.73567200  0.91129300  1
  O  O44  1  0.08394000  0.55337200  0.63984300  1
  O  O45  1  0.58394000  0.94662800  0.36015700  1
  O  O46  1  0.91606000  0.05337200  0.86015700  1
  O  O47  1  0.41606000  0.44662800  0.13984300  1
  O  O48  1  0.40864600  0.51166400  0.48576400  1
  O  O49  1  0.90864600  0.98833600  0.51423600  1
  O  O50  1  0.59135400  0.01166400  0.01423600  1
  O  O51  1  0.09135400  0.48833600  0.98576400  1
  O  O52  1  0.17498700  0.70539600  0.38921700  1
  O  O53  1  0.67498700  0.79460400  0.61078300  1
  O  O54  1  0.82501300  0.20539600  0.11078300  1
  O  O55  1  0.32501300  0.29460400  0.88921700  1
