# generated using pymatgen
data_Ga3Bi5Cl12
_symmetry_space_group_name_H-M   'P 1'
_cell_length_a   12.07134441
_cell_length_b   12.07134441
_cell_length_c   30.97249034
_cell_angle_alpha   90.00000000
_cell_angle_beta   90.00000000
_cell_angle_gamma   120.00000000
_symmetry_Int_Tables_number   1
_chemical_formula_structural   Ga3Bi5Cl12
_chemical_formula_sum   'Ga18 Bi30 Cl72'
_cell_volume   3908.57130957
_cell_formula_units_Z   6
loop_
 _symmetry_equiv_pos_site_id
 _symmetry_equiv_pos_as_xyz
  1  'x, y, z'
loop_
 _atom_site_type_symbol
 _atom_site_label
 _atom_site_symmetry_multiplicity
 _atom_site_fract_x
 _atom_site_fract_y
 _atom_site_fract_z
 _atom_site_occupancy
  Ga  Ga0  1  0.00222933  0.52279267  0.24965967  1
  Ga  Ga1  1  0.47720733  0.47943667  0.24965967  1
  Ga  Ga2  1  0.14387400  0.33110400  0.08299300  1
  Ga  Ga3  1  0.52056333  0.99777067  0.24965967  1
  Ga  Ga4  1  0.18723000  0.85612600  0.08299300  1
  Ga  Ga5  1  0.66889600  0.81277000  0.08299300  1
  Ga  Ga6  1  0.66889600  0.85612600  0.58299300  1
  Ga  Ga7  1  0.14387400  0.81277000  0.58299300  1
  Ga  Ga8  1  0.81054067  0.66443733  0.41632633  1
  Ga  Ga9  1  0.18723000  0.33110400  0.58299300  1
  Ga  Ga10  1  0.85389667  0.18945933  0.41632633  1
  Ga  Ga11  1  0.33556267  0.14610333  0.41632633  1
  Ga  Ga12  1  0.33556267  0.18945933  0.91632633  1
  Ga  Ga13  1  0.81054067  0.14610333  0.91632633  1
  Ga  Ga14  1  0.47720733  0.99777067  0.74965967  1
  Ga  Ga15  1  0.85389667  0.66443733  0.91632633  1
  Ga  Ga16  1  0.52056333  0.52279267  0.74965967  1
  Ga  Ga17  1  0.00222933  0.47943667  0.74965967  1
  Bi  Bi18  1  0.66375333  0.17439267  0.08372367  1
  Bi  Bi19  1  0.15894067  0.00291333  0.25039033  1
  Bi  Bi20  1  0.66666667  0.33333333  0.16137833  1
  Bi  Bi21  1  0.00000000  0.00000000  0.32804500  1
  Bi  Bi22  1  0.99708667  0.15602733  0.25039033  1
  Bi  Bi23  1  0.00000000  0.00000000  0.17278400  1
  Bi  Bi24  1  0.66666667  0.33333333  0.00611733  1
  Bi  Bi25  1  0.51063933  0.33624667  0.08372367  1
  Bi  Bi26  1  0.84397267  0.84105933  0.25039033  1
  Bi  Bi27  1  0.82560733  0.48936067  0.08372367  1
  Bi  Bi28  1  0.33042000  0.50772600  0.41705700  1
  Bi  Bi29  1  0.82560733  0.33624667  0.58372367  1
  Bi  Bi30  1  0.33333333  0.66666667  0.49471167  1
  Bi  Bi31  1  0.66666667  0.33333333  0.66137833  1
  Bi  Bi32  1  0.66375333  0.48936067  0.58372367  1
  Bi  Bi33  1  0.66666667  0.33333333  0.50611733  1
  Bi  Bi34  1  0.33333333  0.66666667  0.33945067  1
  Bi  Bi35  1  0.17730600  0.66958000  0.41705700  1
  Bi  Bi36  1  0.51063933  0.17439267  0.58372367  1
  Bi  Bi37  1  0.49227400  0.82269400  0.41705700  1
  Bi  Bi38  1  0.99708667  0.84105933  0.75039033  1
  Bi  Bi39  1  0.49227400  0.66958000  0.91705700  1
  Bi  Bi40  1  0.00000000  0.00000000  0.82804500  1
  Bi  Bi41  1  0.33333333  0.66666667  0.99471167  1
  Bi  Bi42  1  0.33042000  0.82269400  0.91705700  1
  Bi  Bi43  1  0.33333333  0.66666667  0.83945067  1
  Bi  Bi44  1  0.00000000  0.00000000  0.67278400  1
  Bi  Bi45  1  0.84397267  0.00291333  0.75039033  1
  Bi  Bi46  1  0.17730600  0.50772600  0.91705700  1
  Bi  Bi47  1  0.15894067  0.15602733  0.75039033  1
  Cl  Cl48  1  0.21262667  0.04965633  0.09101133  1
  Cl  Cl49  1  0.54596000  0.82963700  0.25767800  1
  Cl  Cl50  1  0.17036300  0.71632300  0.25767800  1
  Cl  Cl51  1  0.07658467  0.75183833  0.02577433  1
  Cl  Cl52  1  0.66146900  0.91241400  0.14132500  1
  Cl  Cl53  1  0.95034367  0.16297033  0.09101133  1
  Cl  Cl54  1  0.67525367  0.92341533  0.02577433  1
  Cl  Cl55  1  0.08758600  0.74905500  0.14132500  1
  Cl  Cl56  1  0.50099467  0.61879633  0.07334633  1
  Cl  Cl57  1  0.58427833  0.57908067  0.30799167  1
  Cl  Cl58  1  0.83702967  0.78737333  0.09101133  1
  Cl  Cl59  1  0.11780167  0.49900533  0.07334633  1
  Cl  Cl60  1  0.45113500  0.28546300  0.24001300  1
  Cl  Cl61  1  0.71453700  0.16567200  0.24001300  1
  Cl  Cl62  1  0.99480233  0.41572167  0.30799167  1
  Cl  Cl63  1  0.58149500  0.59008200  0.19244100  1
  Cl  Cl64  1  0.40991800  0.99141300  0.19244100  1
  Cl  Cl65  1  0.25094500  0.33853100  0.14132500  1
  Cl  Cl66  1  0.42091933  0.00519767  0.30799167  1
  Cl  Cl67  1  0.83432800  0.54886500  0.24001300  1
  Cl  Cl68  1  0.28367700  0.45404000  0.25767800  1
  Cl  Cl69  1  0.38120367  0.88219833  0.07334633  1
  Cl  Cl70  1  0.24816167  0.32474633  0.02577433  1
  Cl  Cl71  1  0.00858700  0.41850500  0.19244100  1
  Cl  Cl72  1  0.87929333  0.38298967  0.42434467  1
  Cl  Cl73  1  0.21262667  0.16297033  0.59101133  1
  Cl  Cl74  1  0.83702967  0.04965633  0.59101133  1
  Cl  Cl75  1  0.74325133  0.08517167  0.35910767  1
  Cl  Cl76  1  0.32813567  0.24574733  0.47465833  1
  Cl  Cl77  1  0.61701033  0.49630367  0.42434467  1
  Cl  Cl78  1  0.34192033  0.25674867  0.35910767  1
  Cl  Cl79  1  0.75425267  0.08238833  0.47465833  1
  Cl  Cl80  1  0.16766133  0.95212967  0.40667967  1
  Cl  Cl81  1  0.25094500  0.91241400  0.64132500  1
  Cl  Cl82  1  0.50369633  0.12070667  0.42434467  1
  Cl  Cl83  1  0.78446833  0.83233867  0.40667967  1
  Cl  Cl84  1  0.11780167  0.61879633  0.57334633  1
  Cl  Cl85  1  0.38120367  0.49900533  0.57334633  1
  Cl  Cl86  1  0.66146900  0.74905500  0.64132500  1
  Cl  Cl87  1  0.24816167  0.92341533  0.52577433  1
  Cl  Cl88  1  0.07658467  0.32474633  0.52577433  1
  Cl  Cl89  1  0.91761167  0.67186433  0.47465833  1
  Cl  Cl90  1  0.08758600  0.33853100  0.64132500  1
  Cl  Cl91  1  0.50099467  0.88219833  0.57334633  1
  Cl  Cl92  1  0.95034367  0.78737333  0.59101133  1
  Cl  Cl93  1  0.04787033  0.21553167  0.40667967  1
  Cl  Cl94  1  0.91482833  0.65807967  0.35910767  1
  Cl  Cl95  1  0.67525367  0.75183833  0.52577433  1
  Cl  Cl96  1  0.54596000  0.71632300  0.75767800  1
  Cl  Cl97  1  0.87929333  0.49630367  0.92434467  1
  Cl  Cl98  1  0.50369633  0.38298967  0.92434467  1
  Cl  Cl99  1  0.40991800  0.41850500  0.69244100  1
  Cl  Cl100  1  0.99480233  0.57908067  0.80799167  1
  Cl  Cl101  1  0.28367700  0.82963700  0.75767800  1
  Cl  Cl102  1  0.00858700  0.59008200  0.69244100  1
  Cl  Cl103  1  0.42091933  0.41572167  0.80799167  1
  Cl  Cl104  1  0.83432800  0.28546300  0.74001300  1
  Cl  Cl105  1  0.91761167  0.24574733  0.97465833  1
  Cl  Cl106  1  0.17036300  0.45404000  0.75767800  1
  Cl  Cl107  1  0.45113500  0.16567200  0.74001300  1
  Cl  Cl108  1  0.78446833  0.95212967  0.90667967  1
  Cl  Cl109  1  0.04787033  0.83233867  0.90667967  1
  Cl  Cl110  1  0.32813567  0.08238833  0.97465833  1
  Cl  Cl111  1  0.91482833  0.25674867  0.85910767  1
  Cl  Cl112  1  0.74325133  0.65807967  0.85910767  1
  Cl  Cl113  1  0.58427833  0.00519767  0.80799167  1
  Cl  Cl114  1  0.75425267  0.67186433  0.97465833  1
  Cl  Cl115  1  0.16766133  0.21553167  0.90667967  1
  Cl  Cl116  1  0.61701033  0.12070667  0.92434467  1
  Cl  Cl117  1  0.71453700  0.54886500  0.74001300  1
  Cl  Cl118  1  0.58149500  0.99141300  0.69244100  1
  Cl  Cl119  1  0.34192033  0.08517167  0.85910767  1
