# generated using pymatgen
data_La2Ti2O7
_symmetry_space_group_name_H-M   'P 1'
_cell_length_a   7.81718000
_cell_length_b   5.59752700
_cell_length_c   13.21908340
_cell_angle_alpha   90.00000000
_cell_angle_beta   98.53196729
_cell_angle_gamma   90.00000000
_symmetry_Int_Tables_number   1
_chemical_formula_structural   La2Ti2O7
_chemical_formula_sum   'La8 Ti8 O28'
_cell_volume   572.02449625
_cell_formula_units_Z   4
loop_
 _symmetry_equiv_pos_site_id
 _symmetry_equiv_pos_as_xyz
  1  'x, y, z'
loop_
 _atom_site_type_symbol
 _atom_site_label
 _atom_site_symmetry_multiplicity
 _atom_site_fract_x
 _atom_site_fract_y
 _atom_site_fract_z
 _atom_site_occupancy
  La  La0  1  0.85278400  0.14864000  0.42066300  1
  La  La1  1  0.14721600  0.64864000  0.57933700  1
  La  La2  1  0.35100700  0.19432100  0.38940200  1
  La  La3  1  0.22719800  0.23779500  0.90430800  1
  La  La4  1  0.72044300  0.24485900  0.88355500  1
  La  La5  1  0.64899300  0.69432100  0.61059800  1
  La  La6  1  0.27955700  0.74485900  0.11644500  1
  La  La7  1  0.77280200  0.73779500  0.09569200  1
  Ti  Ti8  1  0.58269700  0.69924900  0.32545700  1
  Ti  Ti9  1  0.96813000  0.73206600  0.88075400  1
  Ti  Ti10  1  0.52725300  0.23353200  0.12096100  1
  Ti  Ti11  1  0.07572000  0.70460700  0.32180400  1
  Ti  Ti12  1  0.03187000  0.23206600  0.11924600  1
  Ti  Ti13  1  0.47274700  0.73353200  0.87903900  1
  Ti  Ti14  1  0.41730300  0.19924900  0.67454300  1
  Ti  Ti15  1  0.92428000  0.20460700  0.67819600  1
  O  O16  1  0.12241100  0.92513800  0.43016800  1
  O  O17  1  0.87758900  0.42513800  0.56983200  1
  O  O18  1  0.82624200  0.78688500  0.30516000  1
  O  O19  1  0.02838900  0.54766100  0.18522600  1
  O  O20  1  0.40370100  0.41420600  0.56097400  1
  O  O21  1  0.27287100  0.31568800  0.09136700  1
  O  O22  1  0.10713500  0.03833800  0.22702600  1
  O  O23  1  0.08559400  0.44308500  0.40732700  1
  O  O24  1  0.47321200  0.97687400  0.02130900  1
  O  O25  1  0.52678800  0.47687400  0.97869100  1
  O  O26  1  0.61733700  0.42594900  0.39577400  1
  O  O27  1  0.97161100  0.04766100  0.81477400  1
  O  O28  1  0.67222800  0.17017100  0.69183400  1
  O  O29  1  0.03723900  0.97786700  0.01914300  1
  O  O30  1  0.56298900  0.55213200  0.18357800  1
  O  O31  1  0.72712900  0.81568800  0.90863300  1
  O  O32  1  0.89286500  0.53833800  0.77297400  1
  O  O33  1  0.38266300  0.92594900  0.60422600  1
  O  O34  1  0.22310300  0.69503700  0.89193600  1
  O  O35  1  0.49338200  0.54479800  0.76983200  1
  O  O36  1  0.96276100  0.47786700  0.98085700  1
  O  O37  1  0.32777200  0.67017100  0.30816600  1
  O  O38  1  0.43701100  0.05213200  0.81642200  1
  O  O39  1  0.91440600  0.94308500  0.59267300  1
  O  O40  1  0.59629900  0.91420600  0.43902600  1
  O  O41  1  0.77689700  0.19503700  0.10806400  1
  O  O42  1  0.17375800  0.28688500  0.69484000  1
  O  O43  1  0.50661800  0.04479800  0.23016800  1
