# generated using pymatgen
data_Na2Ca3Al2F14
_symmetry_space_group_name_H-M   'P 1'
_cell_length_a   10.37256200
_cell_length_b   10.37256200
_cell_length_c   10.37256200
_cell_angle_alpha   90.00000000
_cell_angle_beta   90.00000000
_cell_angle_gamma   90.00000000
_symmetry_Int_Tables_number   1
_chemical_formula_structural   Na2Ca3Al2F14
_chemical_formula_sum   'Na8 Ca12 Al8 F56'
_cell_volume   1115.98438583
_cell_formula_units_Z   4
loop_
 _symmetry_equiv_pos_site_id
 _symmetry_equiv_pos_as_xyz
  1  'x, y, z'
loop_
 _atom_site_type_symbol
 _atom_site_label
 _atom_site_symmetry_multiplicity
 _atom_site_fract_x
 _atom_site_fract_y
 _atom_site_fract_z
 _atom_site_occupancy
  Na  Na0  1  0.33483850  0.16516150  0.83483850  1
  Na  Na1  1  0.16516150  0.83483850  0.33483850  1
  Na  Na2  1  0.83483850  0.33483850  0.16516150  1
  Na  Na3  1  0.16516150  0.16516150  0.16516150  1
  Na  Na4  1  0.83483850  0.66516150  0.33483850  1
  Na  Na5  1  0.66516150  0.33483850  0.83483850  1
  Na  Na6  1  0.33483850  0.83483850  0.66516150  1
  Na  Na7  1  0.66516150  0.66516150  0.66516150  1
  Ca  Ca8  1  0.50000000  0.75000000  0.28342100  1
  Ca  Ca9  1  0.75000000  0.28342100  0.50000000  1
  Ca  Ca10  1  0.28342100  0.50000000  0.75000000  1
  Ca  Ca11  1  0.21657900  0.50000000  0.25000000  1
  Ca  Ca12  1  0.25000000  0.21657900  0.50000000  1
  Ca  Ca13  1  0.50000000  0.25000000  0.21657900  1
  Ca  Ca14  1  0.00000000  0.25000000  0.78342100  1
  Ca  Ca15  1  0.25000000  0.78342100  0.00000000  1
  Ca  Ca16  1  0.78342100  0.00000000  0.25000000  1
  Ca  Ca17  1  0.71657900  0.00000000  0.75000000  1
  Ca  Ca18  1  0.75000000  0.71657900  0.00000000  1
  Ca  Ca19  1  0.00000000  0.75000000  0.71657900  1
  Al  Al20  1  0.49820400  0.00179600  0.99820400  1
  Al  Al21  1  0.99820400  0.49820400  0.00179600  1
  Al  Al22  1  0.00179600  0.99820400  0.49820400  1
  Al  Al23  1  0.00179600  0.00179600  0.00179600  1
  Al  Al24  1  0.99820400  0.50179600  0.49820400  1
  Al  Al25  1  0.49820400  0.99820400  0.50179600  1
  Al  Al26  1  0.50179600  0.49820400  0.99820400  1
  Al  Al27  1  0.50179600  0.50179600  0.50179600  1
  F  F28  1  0.28880650  0.28880650  0.28880650  1
  F  F29  1  0.05644200  0.61181800  0.37008900  1
  F  F30  1  0.11181800  0.12991100  0.94355800  1
  F  F31  1  0.11438550  0.43669850  0.88682650  1
  F  F32  1  0.87008900  0.44355800  0.38818200  1
  F  F33  1  0.11317350  0.38561450  0.43669850  1
  F  F34  1  0.94355800  0.11181800  0.12991100  1
  F  F35  1  0.38818200  0.87008900  0.44355800  1
  F  F36  1  0.38682650  0.38561450  0.56330150  1
  F  F37  1  0.88682650  0.11438550  0.43669850  1
  F  F38  1  0.21119350  0.71119350  0.78880650  1
  F  F39  1  0.71119350  0.78880650  0.21119350  1
  F  F40  1  0.06330150  0.11317350  0.61438550  1
  F  F41  1  0.61181800  0.37008900  0.05644200  1
  F  F42  1  0.37008900  0.05644200  0.61181800  1
  F  F43  1  0.43669850  0.88682650  0.11438550  1
  F  F44  1  0.11317350  0.61438550  0.06330150  1
  F  F45  1  0.56330150  0.38682650  0.38561450  1
  F  F46  1  0.38818200  0.12991100  0.05644200  1
  F  F47  1  0.44355800  0.38818200  0.87008900  1
  F  F48  1  0.61438550  0.06330150  0.11317350  1
  F  F49  1  0.78880650  0.21119350  0.71119350  1
  F  F50  1  0.12991100  0.05644200  0.38818200  1
  F  F51  1  0.05644200  0.38818200  0.12991100  1
  F  F52  1  0.38561450  0.43669850  0.11317350  1
  F  F53  1  0.43669850  0.11317350  0.38561450  1
  F  F54  1  0.12991100  0.94355800  0.11181800  1
  F  F55  1  0.38561450  0.56330150  0.38682650  1
  F  F56  1  0.78880650  0.78880650  0.78880650  1
  F  F57  1  0.55644200  0.11181800  0.87008900  1
  F  F58  1  0.61181800  0.62991100  0.44355800  1
  F  F59  1  0.61438550  0.93669850  0.38682650  1
  F  F60  1  0.37008900  0.94355800  0.88818200  1
  F  F61  1  0.61317350  0.88561450  0.93669850  1
  F  F62  1  0.44355800  0.61181800  0.62991100  1
  F  F63  1  0.88818200  0.37008900  0.94355800  1
  F  F64  1  0.88682650  0.88561450  0.06330150  1
  F  F65  1  0.38682650  0.61438550  0.93669850  1
  F  F66  1  0.71119350  0.21119350  0.28880650  1
  F  F67  1  0.21119350  0.28880650  0.71119350  1
  F  F68  1  0.56330150  0.61317350  0.11438550  1
  F  F69  1  0.11181800  0.87008900  0.55644200  1
  F  F70  1  0.87008900  0.55644200  0.11181800  1
  F  F71  1  0.93669850  0.38682650  0.61438550  1
  F  F72  1  0.61317350  0.11438550  0.56330150  1
  F  F73  1  0.06330150  0.88682650  0.88561450  1
  F  F74  1  0.88818200  0.62991100  0.55644200  1
  F  F75  1  0.94355800  0.88818200  0.37008900  1
  F  F76  1  0.11438550  0.56330150  0.61317350  1
  F  F77  1  0.28880650  0.71119350  0.21119350  1
  F  F78  1  0.62991100  0.55644200  0.88818200  1
  F  F79  1  0.55644200  0.88818200  0.62991100  1
  F  F80  1  0.88561450  0.93669850  0.61317350  1
  F  F81  1  0.93669850  0.61317350  0.88561450  1
  F  F82  1  0.62991100  0.44355800  0.61181800  1
  F  F83  1  0.88561450  0.06330150  0.88682650  1
