# generated using pymatgen
data_SnPCl9
_symmetry_space_group_name_H-M   'P 1'
_cell_length_a   12.53218200
_cell_length_b   17.04404400
_cell_length_c   6.74393900
_cell_angle_alpha   90.00000000
_cell_angle_beta   90.00000000
_cell_angle_gamma   90.00000000
_symmetry_Int_Tables_number   1
_chemical_formula_structural   SnPCl9
_chemical_formula_sum   'Sn4 P4 Cl36'
_cell_volume   1440.49904070
_cell_formula_units_Z   4
loop_
 _symmetry_equiv_pos_site_id
 _symmetry_equiv_pos_as_xyz
  1  'x, y, z'
loop_
 _atom_site_type_symbol
 _atom_site_label
 _atom_site_symmetry_multiplicity
 _atom_site_fract_x
 _atom_site_fract_y
 _atom_site_fract_z
 _atom_site_occupancy
  Sn  Sn0  1  0.50000000  0.75000000  0.89258200  1
  Sn  Sn1  1  0.50000000  0.25000000  0.10741800  1
  Sn  Sn2  1  0.00000000  0.25000000  0.89258200  1
  Sn  Sn3  1  0.00000000  0.75000000  0.10741800  1
  P  P4  1  0.25000000  0.00000000  0.50000000  1
  P  P5  1  0.75000000  0.00000000  0.50000000  1
  P  P6  1  0.75000000  0.50000000  0.50000000  1
  P  P7  1  0.25000000  0.50000000  0.50000000  1
  Cl  Cl8  1  0.66656600  0.75000000  0.72573600  1
  Cl  Cl9  1  0.83999500  0.06609000  0.33125200  1
  Cl  Cl10  1  0.16000500  0.93391000  0.66874800  1
  Cl  Cl11  1  0.33999500  0.06609000  0.66874800  1
  Cl  Cl12  1  0.66000500  0.06609000  0.66874800  1
  Cl  Cl13  1  0.50000000  0.39467100  0.10342700  1
  Cl  Cl14  1  0.66000500  0.93391000  0.33125200  1
  Cl  Cl15  1  0.83999500  0.93391000  0.66874800  1
  Cl  Cl16  1  0.16000500  0.06609000  0.33125200  1
  Cl  Cl17  1  0.66656600  0.25000000  0.27426400  1
  Cl  Cl18  1  0.33343400  0.25000000  0.27426400  1
  Cl  Cl19  1  0.33999500  0.93391000  0.33125200  1
  Cl  Cl20  1  0.50000000  0.25000000  0.75386400  1
  Cl  Cl21  1  0.50000000  0.10532900  0.10342700  1
  Cl  Cl22  1  0.33343400  0.75000000  0.72573600  1
  Cl  Cl23  1  0.50000000  0.89467100  0.89657300  1
  Cl  Cl24  1  0.50000000  0.75000000  0.24613600  1
  Cl  Cl25  1  0.50000000  0.60532900  0.89657300  1
  Cl  Cl26  1  0.16656600  0.25000000  0.72573600  1
  Cl  Cl27  1  0.33999500  0.56609000  0.33125200  1
  Cl  Cl28  1  0.66000500  0.43391000  0.66874800  1
  Cl  Cl29  1  0.83999500  0.56609000  0.66874800  1
  Cl  Cl30  1  0.16000500  0.56609000  0.66874800  1
  Cl  Cl31  1  0.00000000  0.89467100  0.10342700  1
  Cl  Cl32  1  0.16000500  0.43391000  0.33125200  1
  Cl  Cl33  1  0.33999500  0.43391000  0.66874800  1
  Cl  Cl34  1  0.66000500  0.56609000  0.33125200  1
  Cl  Cl35  1  0.16656600  0.75000000  0.27426400  1
  Cl  Cl36  1  0.83343400  0.75000000  0.27426400  1
  Cl  Cl37  1  0.83999500  0.43391000  0.33125200  1
  Cl  Cl38  1  0.00000000  0.75000000  0.75386400  1
  Cl  Cl39  1  0.00000000  0.60532900  0.10342700  1
  Cl  Cl40  1  0.83343400  0.25000000  0.72573600  1
  Cl  Cl41  1  0.00000000  0.39467100  0.89657300  1
  Cl  Cl42  1  0.00000000  0.25000000  0.24613600  1
  Cl  Cl43  1  0.00000000  0.10532900  0.89657300  1
