# generated using pymatgen
data_K2Ge2S5
_symmetry_space_group_name_H-M   'P 1'
_cell_length_a   15.55482200
_cell_length_b   15.59160000
_cell_length_c   8.94814515
_cell_angle_alpha   90.00000000
_cell_angle_beta   104.42713093
_cell_angle_gamma   90.00000000
_symmetry_Int_Tables_number   1
_chemical_formula_structural   K2Ge2S5
_chemical_formula_sum   'K16 Ge16 S40'
_cell_volume   2101.71009953
_cell_formula_units_Z   8
loop_
 _symmetry_equiv_pos_site_id
 _symmetry_equiv_pos_as_xyz
  1  'x, y, z'
loop_
 _atom_site_type_symbol
 _atom_site_label
 _atom_site_symmetry_multiplicity
 _atom_site_fract_x
 _atom_site_fract_y
 _atom_site_fract_z
 _atom_site_occupancy
  K  K0  1  0.34103000  0.87270100  0.11990400  1
  K  K1  1  0.65897000  0.87270100  0.38009600  1
  K  K2  1  0.65897000  0.12729900  0.88009600  1
  K  K3  1  0.34103000  0.12729900  0.61990400  1
  K  K4  1  0.86347650  0.07575650  0.38214400  1
  K  K5  1  0.13652350  0.07575650  0.11785600  1
  K  K6  1  0.13652350  0.92424350  0.61785600  1
  K  K7  1  0.86347650  0.92424350  0.88214400  1
  K  K8  1  0.84103000  0.37270100  0.11990400  1
  K  K9  1  0.15897000  0.37270100  0.38009600  1
  K  K10  1  0.15897000  0.62729900  0.88009600  1
  K  K11  1  0.84103000  0.62729900  0.61990400  1
  K  K12  1  0.36347650  0.57575650  0.38214400  1
  K  K13  1  0.63652350  0.57575650  0.11785600  1
  K  K14  1  0.63652350  0.42424350  0.61785600  1
  K  K15  1  0.36347650  0.42424350  0.88214400  1
  Ge  Ge16  1  0.39675300  0.87035500  0.59576200  1
  Ge  Ge17  1  0.60324700  0.87035500  0.90423800  1
  Ge  Ge18  1  0.60324700  0.12964500  0.40423800  1
  Ge  Ge19  1  0.39675300  0.12964500  0.09576200  1
  Ge  Ge20  1  0.56830250  0.29852850  0.11006000  1
  Ge  Ge21  1  0.43169750  0.29852850  0.38994000  1
  Ge  Ge22  1  0.43169750  0.70147150  0.88994000  1
  Ge  Ge23  1  0.56830250  0.70147150  0.61006000  1
  Ge  Ge24  1  0.89675300  0.37035500  0.59576200  1
  Ge  Ge25  1  0.10324700  0.37035500  0.90423800  1
  Ge  Ge26  1  0.10324700  0.62964500  0.40423800  1
  Ge  Ge27  1  0.89675300  0.62964500  0.09576200  1
  Ge  Ge28  1  0.06830250  0.79852850  0.11006000  1
  Ge  Ge29  1  0.93169750  0.79852850  0.38994000  1
  Ge  Ge30  1  0.93169750  0.20147150  0.88994000  1
  Ge  Ge31  1  0.06830250  0.20147150  0.61006000  1
  S  S32  1  0.32819000  0.78649100  0.73992900  1
  S  S33  1  0.67181000  0.78649100  0.76007100  1
  S  S34  1  0.67181000  0.21350900  0.26007100  1
  S  S35  1  0.32819000  0.21350900  0.23992900  1
  S  S36  1  0.53813200  0.21714800  0.54894100  1
  S  S37  1  0.46186800  0.21714800  0.95105900  1
  S  S38  1  0.46186800  0.78285200  0.45105900  1
  S  S39  1  0.53813200  0.78285200  0.04894100  1
  S  S40  1  0.29708850  0.94604950  0.44458800  1
  S  S41  1  0.70291150  0.94604950  0.05541200  1
  S  S42  1  0.70291150  0.05395050  0.55541200  1
  S  S43  1  0.29708850  0.05395050  0.94458800  1
  S  S44  1  0.87308050  0.12008550  0.02980700  1
  S  S45  1  0.12691950  0.12008550  0.47019300  1
  S  S46  1  0.12691950  0.87991450  0.97019300  1
  S  S47  1  0.87308050  0.87991450  0.52980700  1
  S  S48  1  0.50000000  0.61532300  0.75000000  1
  S  S49  1  0.50000000  0.38467700  0.25000000  1
  S  S50  1  0.50000000  0.95503800  0.75000000  1
  S  S51  1  0.50000000  0.04496200  0.25000000  1
  S  S52  1  0.82819000  0.28649100  0.73992900  1
  S  S53  1  0.17181000  0.28649100  0.76007100  1
  S  S54  1  0.17181000  0.71350900  0.26007100  1
  S  S55  1  0.82819000  0.71350900  0.23992900  1
  S  S56  1  0.03813200  0.71714800  0.54894100  1
  S  S57  1  0.96186800  0.71714800  0.95105900  1
  S  S58  1  0.96186800  0.28285200  0.45105900  1
  S  S59  1  0.03813200  0.28285200  0.04894100  1
  S  S60  1  0.79708850  0.44604950  0.44458800  1
  S  S61  1  0.20291150  0.44604950  0.05541200  1
  S  S62  1  0.20291150  0.55395050  0.55541200  1
  S  S63  1  0.79708850  0.55395050  0.94458800  1
  S  S64  1  0.37308050  0.62008550  0.02980700  1
  S  S65  1  0.62691950  0.62008550  0.47019300  1
  S  S66  1  0.62691950  0.37991450  0.97019300  1
  S  S67  1  0.37308050  0.37991450  0.52980700  1
  S  S68  1  0.00000000  0.11532300  0.75000000  1
  S  S69  1  0.00000000  0.88467700  0.25000000  1
  S  S70  1  0.00000000  0.45503800  0.75000000  1
  S  S71  1  0.00000000  0.54496200  0.25000000  1
