# generated using pymatgen
data_CsLa(PO3)4
_symmetry_space_group_name_H-M   'P 1'
_cell_length_a   7.32161900
_cell_length_b   9.39531100
_cell_length_c   8.96746513
_cell_angle_alpha   90.00000000
_cell_angle_beta   99.28647764
_cell_angle_gamma   90.00000000
_symmetry_Int_Tables_number   1
_chemical_formula_structural   CsLa(PO3)4
_chemical_formula_sum   'Cs2 La2 P8 O24'
_cell_volume   608.77725214
_cell_formula_units_Z   2
loop_
 _symmetry_equiv_pos_site_id
 _symmetry_equiv_pos_as_xyz
  1  'x, y, z'
loop_
 _atom_site_type_symbol
 _atom_site_label
 _atom_site_symmetry_multiplicity
 _atom_site_fract_x
 _atom_site_fract_y
 _atom_site_fract_z
 _atom_site_occupancy
  Cs  Cs0  1  0.32669600  0.56629000  0.82530700  1
  Cs  Cs1  1  0.67330400  0.06629000  0.17469300  1
  La  La2  1  0.20209300  0.40092800  0.30268700  1
  La  La3  1  0.79790700  0.90092800  0.69731300  1
  P  P4  1  0.64556000  0.52594800  0.54356300  1
  P  P5  1  0.69436000  0.47632400  0.22778700  1
  P  P6  1  0.06022100  0.79265500  0.37461100  1
  P  P7  1  0.91731600  0.67749000  0.07272700  1
  P  P8  1  0.35444000  0.02594800  0.45643700  1
  P  P9  1  0.93977900  0.29265500  0.62538900  1
  P  P10  1  0.08268400  0.17749000  0.92727300  1
  P  P11  1  0.30564000  0.97632400  0.77221300  1
  O  O12  1  0.07691000  0.34773600  0.53225300  1
  O  O13  1  0.04112700  0.30181800  0.80114600  1
  O  O14  1  0.49499200  0.43370600  0.18268900  1
  O  O15  1  0.72396500  0.55872000  0.38886400  1
  O  O16  1  0.45985400  0.45523800  0.50956600  1
  O  O17  1  0.92309000  0.84773600  0.46774700  1
  O  O18  1  0.66252700  0.66006900  0.63479400  1
  O  O19  1  0.85242900  0.14948300  0.59365200  1
  O  O20  1  0.85720000  0.75007800  0.92557600  1
  O  O21  1  0.21328200  0.91343100  0.36440700  1
  O  O22  1  0.50500800  0.93370600  0.81731100  1
  O  O23  1  0.95887300  0.80181800  0.19885400  1
  O  O24  1  0.78671800  0.41343100  0.63559300  1
  O  O25  1  0.27603500  0.05872000  0.61113600  1
  O  O26  1  0.15655300  0.86597000  0.76761500  1
  O  O27  1  0.92638800  0.07213600  0.91020600  1
  O  O28  1  0.14280000  0.25007800  0.07442400  1
  O  O29  1  0.14757100  0.64948300  0.40634800  1
  O  O30  1  0.84344700  0.36597000  0.23238500  1
  O  O31  1  0.07361200  0.57213600  0.08979400  1
  O  O32  1  0.54014600  0.95523800  0.49043400  1
  O  O33  1  0.33747300  0.16006900  0.36520600  1
  O  O34  1  0.27076900  0.10554100  0.88342300  1
  O  O35  1  0.72923100  0.60554100  0.11657700  1
