# generated using pymatgen
data_Na2Si2O5
_symmetry_space_group_name_H-M   'P 1'
_cell_length_a   4.89165600
_cell_length_b   8.22514600
_cell_length_c   12.11926200
_cell_angle_alpha   90.00000000
_cell_angle_beta   90.00000000
_cell_angle_gamma   90.00000000
_symmetry_Int_Tables_number   1
_chemical_formula_structural   Na2Si2O5
_chemical_formula_sum   'Na8 Si8 O20'
_cell_volume   487.61347443
_cell_formula_units_Z   4
loop_
 _symmetry_equiv_pos_site_id
 _symmetry_equiv_pos_as_xyz
  1  'x, y, z'
loop_
 _atom_site_type_symbol
 _atom_site_label
 _atom_site_symmetry_multiplicity
 _atom_site_fract_x
 _atom_site_fract_y
 _atom_site_fract_z
 _atom_site_occupancy
  Na  Na0  1  0.57303300  0.43617300  0.27432500  1
  Na  Na1  1  0.09738700  0.68822200  0.19035900  1
  Na  Na2  1  0.07303300  0.06382700  0.77432500  1
  Na  Na3  1  0.09738700  0.18822200  0.30964100  1
  Na  Na4  1  0.07303300  0.56382700  0.72567500  1
  Na  Na5  1  0.57303300  0.93617300  0.22567500  1
  Na  Na6  1  0.59738700  0.81177800  0.69035900  1
  Na  Na7  1  0.59738700  0.31177800  0.80964100  1
  Si  Si8  1  0.52676500  0.94708200  0.93268000  1
  Si  Si9  1  0.02676500  0.55291800  0.43268000  1
  Si  Si10  1  0.52676500  0.44708200  0.56732000  1
  Si  Si11  1  0.63758500  0.10804100  0.47404100  1
  Si  Si12  1  0.13758500  0.39195900  0.97404100  1
  Si  Si13  1  0.13758500  0.89195900  0.52595900  1
  Si  Si14  1  0.02676500  0.05291800  0.06732000  1
  Si  Si15  1  0.63758500  0.60804100  0.02595900  1
  O  O16  1  0.19801200  0.97252800  0.96289300  1
  O  O17  1  0.96451300  0.05513300  0.48621700  1
  O  O18  1  0.57832600  0.66414800  0.15020700  1
  O  O19  1  0.07832600  0.83585200  0.65020700  1
  O  O20  1  0.07832600  0.33585200  0.84979300  1
  O  O21  1  0.58930900  0.02647700  0.81512700  1
  O  O22  1  0.08367000  0.25128500  0.06952900  1
  O  O23  1  0.69801200  0.52747200  0.46289300  1
  O  O24  1  0.46451300  0.44486700  0.98621700  1
  O  O25  1  0.08930900  0.47352300  0.31512700  1
  O  O26  1  0.58367000  0.74871500  0.93047100  1
  O  O27  1  0.96451300  0.55513300  0.01378300  1
  O  O28  1  0.69801200  0.02747200  0.03710700  1
  O  O29  1  0.08367000  0.75128500  0.43047100  1
  O  O30  1  0.46451300  0.94486700  0.51378300  1
  O  O31  1  0.58930900  0.52647700  0.68487300  1
  O  O32  1  0.58367000  0.24871500  0.56952900  1
  O  O33  1  0.08930900  0.97352300  0.18487300  1
  O  O34  1  0.57832600  0.16414800  0.34979300  1
  O  O35  1  0.19801200  0.47252800  0.53710700  1
