# generated using pymatgen
data_MgAl2O4
_symmetry_space_group_name_H-M   'P 1'
_cell_length_a   5.77388003
_cell_length_b   5.77388003
_cell_length_c   56.65158571
_cell_angle_alpha   90.00000000
_cell_angle_beta   90.00000000
_cell_angle_gamma   120.00000000
_symmetry_Int_Tables_number   1
_chemical_formula_structural   MgAl2O4
_chemical_formula_sum   'Mg24 Al48 O96'
_cell_volume   1635.60418872
_cell_formula_units_Z   24
loop_
 _symmetry_equiv_pos_site_id
 _symmetry_equiv_pos_as_xyz
  1  'x, y, z'
loop_
 _atom_site_type_symbol
 _atom_site_label
 _atom_site_symmetry_multiplicity
 _atom_site_fract_x
 _atom_site_fract_y
 _atom_site_fract_z
 _atom_site_occupancy
  Mg  Mg0  1  0.66666667  0.33333333  0.17804533  1
  Mg  Mg1  1  0.33333333  0.66666667  0.16739567  1
  Mg  Mg2  1  0.33333333  0.66666667  0.26090667  1
  Mg  Mg3  1  0.33333333  0.66666667  0.01022367  1
  Mg  Mg4  1  0.66666667  0.33333333  0.23887933  1
  Mg  Mg5  1  0.00000000  0.00000000  0.09368400  1
  Mg  Mg6  1  0.33333333  0.66666667  0.32282367  1
  Mg  Mg7  1  0.33333333  0.66666667  0.07313267  1
  Mg  Mg8  1  0.33333333  0.66666667  0.51137867  1
  Mg  Mg9  1  0.00000000  0.00000000  0.50072900  1
  Mg  Mg10  1  0.00000000  0.00000000  0.59424000  1
  Mg  Mg11  1  0.00000000  0.00000000  0.34355700  1
  Mg  Mg12  1  0.33333333  0.66666667  0.57221267  1
  Mg  Mg13  1  0.66666667  0.33333333  0.42701733  1
  Mg  Mg14  1  0.00000000  0.00000000  0.65615700  1
  Mg  Mg15  1  0.00000000  0.00000000  0.40646600  1
  Mg  Mg16  1  0.00000000  0.00000000  0.84471200  1
  Mg  Mg17  1  0.66666667  0.33333333  0.83406233  1
  Mg  Mg18  1  0.66666667  0.33333333  0.92757333  1
  Mg  Mg19  1  0.66666667  0.33333333  0.67689033  1
  Mg  Mg20  1  0.00000000  0.00000000  0.90554600  1
  Mg  Mg21  1  0.33333333  0.66666667  0.76035067  1
  Mg  Mg22  1  0.66666667  0.33333333  0.98949033  1
  Mg  Mg23  1  0.66666667  0.33333333  0.73979933  1
  Al  Al24  1  0.66121267  0.83060633  0.20866433  1
  Al  Al25  1  0.00000000  0.00000000  0.25008900  1
  Al  Al26  1  0.16939367  0.83060633  0.20866433  1
  Al  Al27  1  0.33319600  0.16659800  0.29155200  1
  Al  Al28  1  0.16939367  0.33878733  0.20866433  1
  Al  Al29  1  0.66666667  0.33333333  0.33309833  1
  Al  Al30  1  0.83340200  0.16659800  0.29155200  1
  Al  Al31  1  0.33260933  0.16630467  0.04151567  1
  Al  Al32  1  0.83340200  0.66680400  0.29155200  1
  Al  Al33  1  0.66666667  0.33333333  0.08283833  1
  Al  Al34  1  0.83369533  0.16630467  0.04151567  1
  Al  Al35  1  0.83369533  0.66739067  0.04151567  1
  Al  Al36  1  0.99518933  0.49759467  0.12474667  1
  Al  Al37  1  0.50240533  0.49759467  0.12474667  1
  Al  Al38  1  0.50240533  0.00481067  0.12474667  1
  Al  Al39  1  0.00000000  0.00000000  0.15558700  1
  Al  Al40  1  0.32787933  0.16393967  0.54199767  1
  Al  Al41  1  0.66666667  0.33333333  0.58342233  1
  Al  Al42  1  0.83606033  0.16393967  0.54199767  1
  Al  Al43  1  0.99986267  0.49993133  0.62488533  1
  Al  Al44  1  0.83606033  0.67212067  0.54199767  1
  Al  Al45  1  0.33333333  0.66666667  0.66643167  1
  Al  Al46  1  0.50006867  0.49993133  0.62488533  1
  Al  Al47  1  0.99927600  0.49963800  0.37484900  1
  Al  Al48  1  0.50006867  0.00013733  0.62488533  1
  Al  Al49  1  0.33333333  0.66666667  0.41617167  1
  Al  Al50  1  0.50036200  0.49963800  0.37484900  1
  Al  Al51  1  0.50036200  0.00072400  0.37484900  1
  Al  Al52  1  0.66185600  0.83092800  0.45808000  1
  Al  Al53  1  0.16907200  0.83092800  0.45808000  1
  Al  Al54  1  0.16907200  0.33814400  0.45808000  1
  Al  Al55  1  0.66666667  0.33333333  0.48892033  1
  Al  Al56  1  0.99454600  0.49727300  0.87533100  1
  Al  Al57  1  0.33333333  0.66666667  0.91675567  1
  Al  Al58  1  0.50272700  0.49727300  0.87533100  1
  Al  Al59  1  0.66652933  0.83326467  0.95821867  1
  Al  Al60  1  0.50272700  0.00545400  0.87533100  1
  Al  Al61  1  0.00000000  0.00000000  0.99976500  1
  Al  Al62  1  0.16673533  0.83326467  0.95821867  1
  Al  Al63  1  0.66594267  0.83297133  0.70818233  1
  Al  Al64  1  0.16673533  0.33347067  0.95821867  1
  Al  Al65  1  0.00000000  0.00000000  0.74950500  1
  Al  Al66  1  0.16702867  0.83297133  0.70818233  1
  Al  Al67  1  0.16702867  0.33405733  0.70818233  1
  Al  Al68  1  0.32852267  0.16426133  0.79141333  1
  Al  Al69  1  0.83573867  0.16426133  0.79141333  1
  Al  Al70  1  0.83573867  0.67147733  0.79141333  1
  Al  Al71  1  0.33333333  0.66666667  0.82225367  1
  O  O72  1  0.02601133  0.51300567  0.19054467  1
  O  O73  1  0.33333333  0.66666667  0.22662367  1
  O  O74  1  0.48699433  0.51300567  0.19054467  1
  O  O75  1  0.48699433  0.97398867  0.19054467  1
  O  O76  1  0.85407433  0.70814867  0.22777067  1
  O  O77  1  0.70330333  0.85165167  0.27199667  1
  O  O78  1  0.85407433  0.14592567  0.22777067  1
  O  O79  1  0.00000000  0.00000000  0.30909400  1
  O  O80  1  0.00000000  0.00000000  0.18779400  1
  O  O81  1  0.14834833  0.85165167  0.27199667  1
  O  O82  1  0.14834833  0.29669667  0.27199667  1
  O  O83  1  0.29185133  0.14592567  0.22777067  1
  O  O84  1  0.70282267  0.85141133  0.02203533  1
  O  O85  1  0.51821433  0.03642867  0.31136667  1
  O  O86  1  0.66666667  0.33333333  0.27393333  1
  O  O87  1  0.51821433  0.48178567  0.31136667  1
  O  O88  1  0.00000000  0.00000000  0.05915400  1
  O  O89  1  0.14858867  0.85141133  0.02203533  1
  O  O90  1  0.14858867  0.29717733  0.02203533  1
  O  O91  1  0.96357133  0.48178567  0.31136667  1
  O  O92  1  0.37152867  0.18576433  0.10497733  1
  O  O93  1  0.51779200  0.03558400  0.06142600  1
  O  O94  1  0.51779200  0.48220800  0.06142600  1
  O  O95  1  0.66666667  0.33333333  0.02432433  1
  O  O96  1  0.66666667  0.33333333  0.14262833  1
  O  O97  1  0.81423567  0.18576433  0.10497733  1
  O  O98  1  0.81423567  0.62847133  0.10497733  1
  O  O99  1  0.96441600  0.48220800  0.06142600  1
  O  O100  1  0.17013733  0.34027467  0.14379067  1
  O  O101  1  0.33333333  0.66666667  0.10858767  1
  O  O102  1  0.17013733  0.82986267  0.14379067  1
  O  O103  1  0.65972533  0.82986267  0.14379067  1
  O  O104  1  0.69267800  0.84633900  0.52387800  1
  O  O105  1  0.00000000  0.00000000  0.55995700  1
  O  O106  1  0.15366100  0.84633900  0.52387800  1
  O  O107  1  0.15366100  0.30732200  0.52387800  1
  O  O108  1  0.52074100  0.04148200  0.56110400  1
  O  O109  1  0.36997000  0.18498500  0.60533000  1
  O  O110  1  0.52074100  0.47925900  0.56110400  1
  O  O111  1  0.66666667  0.33333333  0.64242733  1
  O  O112  1  0.66666667  0.33333333  0.52112733  1
  O  O113  1  0.81501500  0.18498500  0.60533000  1
  O  O114  1  0.81501500  0.63003000  0.60533000  1
  O  O115  1  0.95851800  0.47925900  0.56110400  1
  O  O116  1  0.36948933  0.18474467  0.35536867  1
  O  O117  1  0.18488100  0.36976200  0.64470000  1
  O  O118  1  0.33333333  0.66666667  0.60726667  1
  O  O119  1  0.18488100  0.81511900  0.64470000  1
  O  O120  1  0.66666667  0.33333333  0.39248733  1
  O  O121  1  0.81525533  0.18474467  0.35536867  1
  O  O122  1  0.81525533  0.63051067  0.35536867  1
  O  O123  1  0.63023800  0.81511900  0.64470000  1
  O  O124  1  0.03819533  0.51909767  0.43831067  1
  O  O125  1  0.18445867  0.36891733  0.39475933  1
  O  O126  1  0.18445867  0.81554133  0.39475933  1
  O  O127  1  0.33333333  0.66666667  0.35765767  1
  O  O128  1  0.33333333  0.66666667  0.47596167  1
  O  O129  1  0.48090233  0.51909767  0.43831067  1
  O  O130  1  0.48090233  0.96180467  0.43831067  1
  O  O131  1  0.63108267  0.81554133  0.39475933  1
  O  O132  1  0.83680400  0.67360800  0.47712400  1
  O  O133  1  0.00000000  0.00000000  0.44192100  1
  O  O134  1  0.83680400  0.16319600  0.47712400  1
  O  O135  1  0.32639200  0.16319600  0.47712400  1
  O  O136  1  0.35934467  0.17967233  0.85721133  1
  O  O137  1  0.66666667  0.33333333  0.89329033  1
  O  O138  1  0.82032767  0.17967233  0.85721133  1
  O  O139  1  0.82032767  0.64065533  0.85721133  1
  O  O140  1  0.18740767  0.37481533  0.89443733  1
  O  O141  1  0.03663667  0.51831833  0.93866333  1
  O  O142  1  0.18740767  0.81259233  0.89443733  1
  O  O143  1  0.33333333  0.66666667  0.97576067  1
  O  O144  1  0.33333333  0.66666667  0.85446067  1
  O  O145  1  0.48168167  0.51831833  0.93866333  1
  O  O146  1  0.48168167  0.96336333  0.93866333  1
  O  O147  1  0.62518467  0.81259233  0.89443733  1
  O  O148  1  0.03615600  0.51807800  0.68870200  1
  O  O149  1  0.85154767  0.70309533  0.97803333  1
  O  O150  1  0.00000000  0.00000000  0.94060000  1
  O  O151  1  0.85154767  0.14845233  0.97803333  1
  O  O152  1  0.33333333  0.66666667  0.72582067  1
  O  O153  1  0.48192200  0.51807800  0.68870200  1
  O  O154  1  0.48192200  0.96384400  0.68870200  1
  O  O155  1  0.29690467  0.14845233  0.97803333  1
  O  O156  1  0.70486200  0.85243100  0.77164400  1
  O  O157  1  0.85112533  0.70225067  0.72809267  1
  O  O158  1  0.85112533  0.14887467  0.72809267  1
  O  O159  1  0.00000000  0.00000000  0.69099100  1
  O  O160  1  0.00000000  0.00000000  0.80929500  1
  O  O161  1  0.14756900  0.85243100  0.77164400  1
  O  O162  1  0.14756900  0.29513800  0.77164400  1
  O  O163  1  0.29774933  0.14887467  0.72809267  1
  O  O164  1  0.50347067  0.00694133  0.81045733  1
  O  O165  1  0.66666667  0.33333333  0.77525433  1
  O  O166  1  0.50347067  0.49652933  0.81045733  1
  O  O167  1  0.99305867  0.49652933  0.81045733  1
