# generated using pymatgen
data_P2NCl5O
_symmetry_space_group_name_H-M   'P 1'
_cell_length_a   13.24555900
_cell_length_b   20.56597900
_cell_length_c   15.75354411
_cell_angle_alpha   90.00000000
_cell_angle_beta   110.81530164
_cell_angle_gamma   90.00000000
_symmetry_Int_Tables_number   1
_chemical_formula_structural   P2NCl5O
_chemical_formula_sum   'P32 N16 Cl80 O16'
_cell_volume   4011.29414204
_cell_formula_units_Z   16
loop_
 _symmetry_equiv_pos_site_id
 _symmetry_equiv_pos_as_xyz
  1  'x, y, z'
loop_
 _atom_site_type_symbol
 _atom_site_label
 _atom_site_symmetry_multiplicity
 _atom_site_fract_x
 _atom_site_fract_y
 _atom_site_fract_z
 _atom_site_occupancy
  P  P0  1  0.02396400  0.75469900  0.55350700  1
  P  P1  1  0.47321500  0.25225800  0.95167100  1
  P  P2  1  0.47321500  0.24774200  0.45167100  1
  P  P3  1  0.19326100  0.77646800  0.73778400  1
  P  P4  1  0.52678500  0.75225800  0.54832900  1
  P  P5  1  0.44831100  0.48582900  0.71658900  1
  P  P6  1  0.80673900  0.27646800  0.76221600  1
  P  P7  1  0.02396400  0.74530100  0.05350700  1
  P  P8  1  0.26485000  0.50791400  0.54489500  1
  P  P9  1  0.97603600  0.24530100  0.44649300  1
  P  P10  1  0.73515000  0.00791400  0.95510500  1
  P  P11  1  0.73515000  0.49208600  0.45510500  1
  P  P12  1  0.20541100  0.49774100  0.96619000  1
  P  P13  1  0.31434100  0.20933200  0.77186400  1
  P  P14  1  0.44831100  0.01417100  0.21658900  1
  P  P15  1  0.96920200  0.00538000  0.71766700  1
  P  P16  1  0.79458900  0.50225900  0.03381000  1
  P  P17  1  0.19326100  0.72353200  0.23778400  1
  P  P18  1  0.03079800  0.50538000  0.78233300  1
  P  P19  1  0.97603600  0.25469900  0.94649300  1
  P  P20  1  0.03079800  0.99462000  0.28233300  1
  P  P21  1  0.68565900  0.70933200  0.72813600  1
  P  P22  1  0.31434100  0.29066800  0.27186400  1
  P  P23  1  0.80673900  0.22353200  0.26221600  1
  P  P24  1  0.26485000  0.99208600  0.04489500  1
  P  P25  1  0.79458900  0.99774100  0.53381000  1
  P  P26  1  0.96920200  0.49462000  0.21766700  1
  P  P27  1  0.55168900  0.98582900  0.78341100  1
  P  P28  1  0.68565900  0.79066800  0.22813600  1
  P  P29  1  0.52678500  0.74774200  0.04832900  1
  P  P30  1  0.55168900  0.51417100  0.28341100  1
  P  P31  1  0.20541100  0.00225900  0.46619000  1
  N  N32  1  0.90678600  0.49831600  0.10970400  1
  N  N33  1  0.87144400  0.24713400  0.85606700  1
  N  N34  1  0.12855600  0.75286600  0.14393300  1
  N  N35  1  0.66378700  0.48652800  0.35384500  1
  N  N36  1  0.62740500  0.75053600  0.64273800  1
  N  N37  1  0.37259500  0.24946400  0.35726200  1
  N  N38  1  0.09321400  0.99831600  0.39029600  1
  N  N39  1  0.12855600  0.74713400  0.64393300  1
  N  N40  1  0.37259500  0.25053600  0.85726200  1
  N  N41  1  0.33621300  0.98652800  0.14615500  1
  N  N42  1  0.09321400  0.50168400  0.89029600  1
  N  N43  1  0.66378700  0.01347200  0.85384500  1
  N  N44  1  0.90678600  0.00168400  0.60970400  1
  N  N45  1  0.87144400  0.25286600  0.35606700  1
  N  N46  1  0.33621300  0.51347200  0.64615500  1
  N  N47  1  0.62740500  0.74946400  0.14273800  1
  Cl  Cl48  1  0.41839000  0.10657300  0.24886300  1
  Cl  Cl49  1  0.39131900  0.72972700  0.57565100  1
  Cl  Cl50  1  0.09922500  0.06177300  0.22429000  1
  Cl  Cl51  1  0.18694900  0.01231700  0.58530300  1
  Cl  Cl52  1  0.96823200  0.34372800  0.00047400  1
  Cl  Cl53  1  0.18186000  0.07574500  0.01116700  1
  Cl  Cl54  1  0.26594900  0.63871800  0.23661400  1
  Cl  Cl55  1  0.81305100  0.51231700  0.91469700  1
  Cl  Cl56  1  0.10670900  0.23501800  0.40796600  1
  Cl  Cl57  1  0.96823200  0.15627200  0.50047400  1
  Cl  Cl58  1  0.11107400  0.70925800  0.32099600  1
  Cl  Cl59  1  0.88892600  0.29074200  0.67900400  1
  Cl  Cl60  1  0.70034600  0.92383400  0.54191200  1
  Cl  Cl61  1  0.10670900  0.26498200  0.90796600  1
  Cl  Cl62  1  0.15321300  0.57733600  0.51328800  1
  Cl  Cl63  1  0.18186000  0.42425500  0.51116700  1
  Cl  Cl64  1  0.53711000  0.46531900  0.16755800  1
  Cl  Cl65  1  0.39131900  0.77027300  0.07565100  1
  Cl  Cl66  1  0.81814000  0.57574500  0.48883300  1
  Cl  Cl67  1  0.18879400  0.25856500  0.68872600  1
  Cl  Cl68  1  0.58161000  0.60657300  0.25113700  1
  Cl  Cl69  1  0.88892600  0.20925800  0.17900400  1
  Cl  Cl70  1  0.84678700  0.42266400  0.48671200  1
  Cl  Cl71  1  0.03176800  0.84372800  0.49952600  1
  Cl  Cl72  1  0.45927900  0.17380700  0.02563100  1
  Cl  Cl73  1  0.18879400  0.24143500  0.18872600  1
  Cl  Cl74  1  0.31189100  0.71600400  0.80512900  1
  Cl  Cl75  1  0.90077500  0.56177300  0.27571000  1
  Cl  Cl76  1  0.89329100  0.73501800  0.09203400  1
  Cl  Cl77  1  0.25324800  0.12461000  0.79254100  1
  Cl  Cl78  1  0.15321300  0.92266400  0.01328800  1
  Cl  Cl79  1  0.34003500  0.98351000  0.95562900  1
  Cl  Cl80  1  0.84678700  0.07733600  0.98671200  1
  Cl  Cl81  1  0.60868100  0.27027300  0.42434900  1
  Cl  Cl82  1  0.41839000  0.39342700  0.74886300  1
  Cl  Cl83  1  0.73405100  0.13871800  0.26338600  1
  Cl  Cl84  1  0.18694900  0.48768300  0.08530300  1
  Cl  Cl85  1  0.81120600  0.75856500  0.81127400  1
  Cl  Cl86  1  0.54072100  0.67380700  0.47436900  1
  Cl  Cl87  1  0.81814000  0.92425500  0.98883300  1
  Cl  Cl88  1  0.34003500  0.51649000  0.45562900  1
  Cl  Cl89  1  0.92495800  0.40939600  0.26079000  1
  Cl  Cl90  1  0.70097900  0.42325000  0.01932700  1
  Cl  Cl91  1  0.90077500  0.93822700  0.77571000  1
  Cl  Cl92  1  0.07504200  0.90939600  0.23921000  1
  Cl  Cl93  1  0.29902100  0.57675000  0.98067300  1
  Cl  Cl94  1  0.74675200  0.62461000  0.70745900  1
  Cl  Cl95  1  0.68810900  0.28399600  0.19487100  1
  Cl  Cl96  1  0.40184600  0.31295900  0.19519300  1
  Cl  Cl97  1  0.46289000  0.53468100  0.83244200  1
  Cl  Cl98  1  0.65996500  0.01649000  0.04437100  1
  Cl  Cl99  1  0.03176800  0.65627200  0.99952600  1
  Cl  Cl100  1  0.81305100  0.98768300  0.41469700  1
  Cl  Cl101  1  0.54072100  0.82619300  0.97436900  1
  Cl  Cl102  1  0.25324800  0.37539000  0.29254100  1
  Cl  Cl103  1  0.46289000  0.96531900  0.33244200  1
  Cl  Cl104  1  0.59815400  0.68704100  0.80480700  1
  Cl  Cl105  1  0.53711000  0.03468100  0.66755800  1
  Cl  Cl106  1  0.45927900  0.32619300  0.52563100  1
  Cl  Cl107  1  0.73405100  0.36128200  0.76338600  1
  Cl  Cl108  1  0.81120600  0.74143500  0.31127400  1
  Cl  Cl109  1  0.60868100  0.22972700  0.92434900  1
  Cl  Cl110  1  0.26594900  0.86128200  0.73661400  1
  Cl  Cl111  1  0.09922500  0.43822700  0.72429000  1
  Cl  Cl112  1  0.65996500  0.48351000  0.54437100  1
  Cl  Cl113  1  0.74675200  0.87539000  0.20745900  1
  Cl  Cl114  1  0.70034600  0.57616600  0.04191200  1
  Cl  Cl115  1  0.59815400  0.81295900  0.30480700  1
  Cl  Cl116  1  0.58161000  0.89342700  0.75113700  1
  Cl  Cl117  1  0.70097900  0.07675000  0.51932700  1
  Cl  Cl118  1  0.92495800  0.09060400  0.76079000  1
  Cl  Cl119  1  0.40184600  0.18704100  0.69519300  1
  Cl  Cl120  1  0.29902100  0.92325000  0.48067300  1
  Cl  Cl121  1  0.89329100  0.76498200  0.59203400  1
  Cl  Cl122  1  0.31189100  0.78399600  0.30512900  1
  Cl  Cl123  1  0.29965400  0.07616600  0.45808800  1
  Cl  Cl124  1  0.29965400  0.42383400  0.95808800  1
  Cl  Cl125  1  0.11107400  0.79074200  0.82099600  1
  Cl  Cl126  1  0.68810900  0.21600400  0.69487100  1
  Cl  Cl127  1  0.07504200  0.59060400  0.73921000  1
  O  O128  1  0.00671700  0.79748800  0.98523700  1
  O  O129  1  0.99328300  0.20251200  0.01476300  1
  O  O130  1  0.08774300  0.50134700  0.24925700  1
  O  O131  1  0.48716900  0.18684800  0.50433000  1
  O  O132  1  0.08774300  0.99865300  0.74925700  1
  O  O133  1  0.48716900  0.31315200  0.00433000  1
  O  O134  1  0.54779100  0.01131900  0.19468300  1
  O  O135  1  0.99328300  0.29748800  0.51476300  1
  O  O136  1  0.91225700  0.00134700  0.25074300  1
  O  O137  1  0.51283100  0.68684800  0.99567000  1
  O  O138  1  0.91225700  0.49865300  0.75074300  1
  O  O139  1  0.00671700  0.70251200  0.48523700  1
  O  O140  1  0.54779100  0.48868100  0.69468300  1
  O  O141  1  0.45220900  0.51131900  0.30531700  1
  O  O142  1  0.45220900  0.98868100  0.80531700  1
  O  O143  1  0.51283100  0.81315200  0.49567000  1
