# generated using pymatgen
data_Ag2CO3
_symmetry_space_group_name_H-M   'P 1'
_cell_length_a   9.38178513
_cell_length_b   9.38178513
_cell_length_c   6.54250300
_cell_angle_alpha   90.00000000
_cell_angle_beta   90.00000000
_cell_angle_gamma   120.00000000
_symmetry_Int_Tables_number   1
_chemical_formula_structural   Ag2CO3
_chemical_formula_sum   'Ag12 C6 O18'
_cell_volume   498.70707109
_cell_formula_units_Z   6
loop_
 _symmetry_equiv_pos_site_id
 _symmetry_equiv_pos_as_xyz
  1  'x, y, z'
loop_
 _atom_site_type_symbol
 _atom_site_label
 _atom_site_symmetry_multiplicity
 _atom_site_fract_x
 _atom_site_fract_y
 _atom_site_fract_z
 _atom_site_occupancy
  Ag  Ag0  1  0.02504800  0.67768000  0.49833600  1
  Ag  Ag1  1  0.97495200  0.65263200  0.99833600  1
  Ag  Ag2  1  0.32232000  0.34736800  0.49833600  1
  Ag  Ag3  1  0.30882300  0.97280000  0.27840300  1
  Ag  Ag4  1  0.02720000  0.33602300  0.27840300  1
  Ag  Ag5  1  0.66397700  0.69117700  0.27840300  1
  Ag  Ag6  1  0.69117700  0.66397700  0.77840300  1
  Ag  Ag7  1  0.65263200  0.97495200  0.49833600  1
  Ag  Ag8  1  0.97280000  0.30882300  0.77840300  1
  Ag  Ag9  1  0.33602300  0.02720000  0.77840300  1
  Ag  Ag10  1  0.34736800  0.32232000  0.99833600  1
  Ag  Ag11  1  0.67768000  0.02504800  0.99833600  1
  C  C12  1  0.00000000  0.00000000  0.88374700  1
  C  C13  1  0.33333333  0.66666667  0.71997400  1
  C  C14  1  0.66666667  0.33333333  0.21997400  1
  C  C15  1  0.00000000  0.00000000  0.38374700  1
  C  C16  1  0.66666667  0.33333333  0.71357100  1
  C  C17  1  0.33333333  0.66666667  0.21357100  1
  O  O18  1  0.92004900  0.84025100  0.38357800  1
  O  O19  1  0.42399400  0.82618900  0.21410400  1
  O  O20  1  0.40219500  0.57600600  0.21410400  1
  O  O21  1  0.73037000  0.23767900  0.22218100  1
  O  O22  1  0.57600600  0.40219500  0.71410400  1
  O  O23  1  0.84025100  0.92004900  0.88357800  1
  O  O24  1  0.76232100  0.49269100  0.22218100  1
  O  O25  1  0.92020200  0.07995100  0.38357800  1
  O  O26  1  0.07979800  0.15974900  0.88357800  1
  O  O27  1  0.59780500  0.17381100  0.71410400  1
  O  O28  1  0.17381100  0.59780500  0.21410400  1
  O  O29  1  0.82618900  0.42399400  0.71410400  1
  O  O30  1  0.07995100  0.92020200  0.88357800  1
  O  O31  1  0.50730900  0.26963000  0.22218100  1
  O  O32  1  0.26963000  0.50730900  0.72218100  1
  O  O33  1  0.15974900  0.07979800  0.38357800  1
  O  O34  1  0.23767900  0.73037000  0.72218100  1
  O  O35  1  0.49269100  0.76232100  0.72218100  1
