# generated using pymatgen
data_NaB3O5
_symmetry_space_group_name_H-M   'P 1'
_cell_length_a   9.15741600
_cell_length_b   11.13461400
_cell_length_c   12.23167403
_cell_angle_alpha   90.00000000
_cell_angle_beta   90.80925299
_cell_angle_gamma   90.00000000
_symmetry_Int_Tables_number   1
_chemical_formula_structural   NaB3O5
_chemical_formula_sum   'Na12 B36 O60'
_cell_volume   1247.06958781
_cell_formula_units_Z   12
loop_
 _symmetry_equiv_pos_site_id
 _symmetry_equiv_pos_as_xyz
  1  'x, y, z'
loop_
 _atom_site_type_symbol
 _atom_site_label
 _atom_site_symmetry_multiplicity
 _atom_site_fract_x
 _atom_site_fract_y
 _atom_site_fract_z
 _atom_site_occupancy
  Na  Na0  1  0.10066600  0.63065400  0.43581200  1
  Na  Na1  1  0.89933400  0.36934600  0.56418800  1
  Na  Na2  1  0.55898300  0.66123000  0.21454000  1
  Na  Na3  1  0.10066600  0.86934600  0.93581200  1
  Na  Na4  1  0.89933400  0.13065400  0.06418800  1
  Na  Na5  1  0.88767600  0.59386200  0.07908600  1
  Na  Na6  1  0.44101700  0.33877000  0.78546000  1
  Na  Na7  1  0.55898300  0.83877000  0.71454000  1
  Na  Na8  1  0.11232400  0.09386200  0.42091400  1
  Na  Na9  1  0.44101700  0.16123000  0.28546000  1
  Na  Na10  1  0.11232400  0.40613800  0.92091400  1
  Na  Na11  1  0.88767600  0.90613800  0.57908600  1
  B  B12  1  0.85855800  0.67123200  0.85775200  1
  B  B13  1  0.21520700  0.54123400  0.65306700  1
  B  B14  1  0.70396800  0.37943700  0.16473900  1
  B  B15  1  0.74862000  0.65742800  0.46315300  1
  B  B16  1  0.35487500  0.60200700  0.03458200  1
  B  B17  1  0.14101600  0.74182800  0.71118500  1
  B  B18  1  0.51369900  0.77963900  0.41824300  1
  B  B19  1  0.14144200  0.17123200  0.64224800  1
  B  B20  1  0.64512500  0.39799300  0.96541800  1
  B  B21  1  0.29603200  0.62056300  0.83526100  1
  B  B22  1  0.18002700  0.54092400  0.18727000  1
  B  B23  1  0.64512500  0.10200700  0.46541800  1
  B  B24  1  0.22361700  0.38177000  0.32550500  1
  B  B25  1  0.74862000  0.84257200  0.96315300  1
  B  B26  1  0.29603200  0.87943700  0.33526100  1
  B  B27  1  0.21520700  0.95876600  0.15306700  1
  B  B28  1  0.18002700  0.95907600  0.68727000  1
  B  B29  1  0.70396800  0.12056300  0.66473900  1
  B  B30  1  0.85898400  0.25817200  0.28881500  1
  B  B31  1  0.51369900  0.72036100  0.91824300  1
  B  B32  1  0.78479300  0.45876600  0.34693300  1
  B  B33  1  0.81997300  0.45907600  0.81273000  1
  B  B34  1  0.25138000  0.34257200  0.53684700  1
  B  B35  1  0.22361700  0.11823000  0.82550500  1
  B  B36  1  0.48630100  0.22036100  0.58175700  1
  B  B37  1  0.35487500  0.89799300  0.53458200  1
  B  B38  1  0.85898400  0.24182800  0.78881500  1
  B  B39  1  0.48630100  0.27963900  0.08175700  1
  B  B40  1  0.77638300  0.61823000  0.67449500  1
  B  B41  1  0.85855800  0.82876800  0.35775200  1
  B  B42  1  0.25138000  0.15742800  0.03684700  1
  B  B43  1  0.14101600  0.75817200  0.21118500  1
  B  B44  1  0.81997300  0.04092400  0.31273000  1
  B  B45  1  0.77638300  0.88177000  0.17449500  1
  B  B46  1  0.78479300  0.04123400  0.84693300  1
  B  B47  1  0.14144200  0.32876800  0.14224800  1
  O  O48  1  0.71926900  0.47883500  0.24676300  1
  O  O49  1  0.32514000  0.57240900  0.14031000  1
  O  O50  1  0.20393700  0.50111700  0.30220300  1
  O  O51  1  0.89349100  0.55326300  0.87899300  1
  O  O52  1  0.27447300  0.33513900  0.42028200  1
  O  O53  1  0.20393700  0.99888300  0.80220300  1
  O  O54  1  0.27368900  0.93190100  0.44472600  1
  O  O55  1  0.27447300  0.16486100  0.92028200  1
  O  O56  1  0.67486000  0.07240900  0.35969000  1
  O  O57  1  0.84765900  0.15477300  0.87043900  1
  O  O58  1  0.15234100  0.84522700  0.12956100  1
  O  O59  1  0.18329300  0.78508600  0.31584200  1
  O  O60  1  0.48063200  0.82657400  0.52146200  1
  O  O61  1  0.10650900  0.05326300  0.62100700  1
  O  O62  1  0.19914400  0.46303200  0.56847400  1
  O  O63  1  0.43911800  0.68025000  0.82707800  1
  O  O64  1  0.67486000  0.42759100  0.85969000  1
  O  O65  1  0.71926900  0.02116500  0.74676300  1
  O  O66  1  0.19914400  0.03696800  0.06847400  1
  O  O67  1  0.72552700  0.83513900  0.07971800  1
  O  O68  1  0.80573000  0.70508300  0.75537000  1
  O  O69  1  0.72631100  0.43190100  0.05527400  1
  O  O70  1  0.38423200  0.30772100  0.59686000  1
  O  O71  1  0.72552700  0.66486100  0.57971800  1
  O  O72  1  0.87104200  0.74608500  0.44025800  1
  O  O73  1  0.15234100  0.65477300  0.62956100  1
  O  O74  1  0.28073100  0.52116500  0.75323700  1
  O  O75  1  0.12895800  0.25391500  0.55974200  1
  O  O76  1  0.79606300  0.49888300  0.69779700  1
  O  O77  1  0.89349100  0.94673700  0.37899300  1
  O  O78  1  0.80085600  0.53696800  0.43152600  1
  O  O79  1  0.19427000  0.29491700  0.24463000  1
  O  O80  1  0.91465800  0.35227100  0.81644100  1
  O  O81  1  0.28073100  0.97883500  0.25323700  1
  O  O82  1  0.12895800  0.24608500  0.05974200  1
  O  O83  1  0.27368900  0.56809900  0.94472600  1
  O  O84  1  0.84765900  0.34522700  0.37043900  1
  O  O85  1  0.56088200  0.18025000  0.67292200  1
  O  O86  1  0.10650900  0.44673700  0.12100700  1
  O  O87  1  0.56088200  0.31975000  0.17292200  1
  O  O88  1  0.08534200  0.64772900  0.18355900  1
  O  O89  1  0.80573000  0.79491700  0.25537000  1
  O  O90  1  0.61576800  0.69227900  0.40314000  1
  O  O91  1  0.80085600  0.96303200  0.93152600  1
  O  O92  1  0.81670700  0.21491400  0.68415800  1
  O  O93  1  0.91465800  0.14772900  0.31644100  1
  O  O94  1  0.79606300  0.00111700  0.19779700  1
  O  O95  1  0.43911800  0.81975000  0.32707800  1
  O  O96  1  0.81670700  0.28508600  0.18415800  1
  O  O97  1  0.18329300  0.71491400  0.81584200  1
  O  O98  1  0.51936800  0.32657400  0.97853800  1
  O  O99  1  0.48063200  0.67342600  0.02146200  1
  O  O100  1  0.51936800  0.17342600  0.47853800  1
  O  O101  1  0.38423200  0.19227900  0.09686000  1
  O  O102  1  0.08534200  0.85227100  0.68355900  1
  O  O103  1  0.32514000  0.92759100  0.64031000  1
  O  O104  1  0.87104200  0.75391500  0.94025800  1
  O  O105  1  0.61576800  0.80772100  0.90314000  1
  O  O106  1  0.19427000  0.20508300  0.74463000  1
  O  O107  1  0.72631100  0.06809900  0.55527400  1
