# generated using pymatgen
data_Ba17Er16Zn8Pt4O57
_symmetry_space_group_name_H-M   'P 1'
_cell_length_a   23.02786600
_cell_length_b   23.02786600
_cell_length_c   5.74097800
_cell_angle_alpha   90.00000000
_cell_angle_beta   90.00000000
_cell_angle_gamma   90.00000000
_symmetry_Int_Tables_number   1
_chemical_formula_structural   Ba17Er16Zn8Pt4O57
_chemical_formula_sum   'Ba34 Er32 Zn16 Pt8 O114'
_cell_volume   3044.34081223
_cell_formula_units_Z   2
loop_
 _symmetry_equiv_pos_site_id
 _symmetry_equiv_pos_as_xyz
  1  'x, y, z'
loop_
 _atom_site_type_symbol
 _atom_site_label
 _atom_site_symmetry_multiplicity
 _atom_site_fract_x
 _atom_site_fract_y
 _atom_site_fract_z
 _atom_site_occupancy
  Ba  Ba0  1  0.26789600  0.81092000  0.00000000  1
  Ba  Ba1  1  0.73210400  0.18908000  0.00000000  1
  Ba  Ba2  1  0.68908000  0.76789600  0.50000000  1
  Ba  Ba3  1  0.56760500  0.05816800  0.50000000  1
  Ba  Ba4  1  0.43239500  0.94183200  0.50000000  1
  Ba  Ba5  1  0.38833100  0.77589300  0.50000000  1
  Ba  Ba6  1  0.84277050  0.85035150  0.50000000  1
  Ba  Ba7  1  0.64964850  0.34277050  0.00000000  1
  Ba  Ba8  1  0.27589300  0.11166900  0.00000000  1
  Ba  Ba9  1  0.55816800  0.93239500  0.00000000  1
  Ba  Ba10  1  0.72410700  0.88833100  0.00000000  1
  Ba  Ba11  1  0.35035150  0.65722950  0.00000000  1
  Ba  Ba12  1  0.44183200  0.06760500  0.00000000  1
  Ba  Ba13  1  0.15722950  0.14964850  0.50000000  1
  Ba  Ba14  1  0.00000000  0.00000000  0.00000000  1
  Ba  Ba15  1  0.31092000  0.23210400  0.50000000  1
  Ba  Ba16  1  0.61166900  0.22410700  0.50000000  1
  Ba  Ba17  1  0.76789600  0.31092000  0.50000000  1
  Ba  Ba18  1  0.23210400  0.68908000  0.50000000  1
  Ba  Ba19  1  0.18908000  0.26789600  0.00000000  1
  Ba  Ba20  1  0.06760500  0.55816800  0.00000000  1
  Ba  Ba21  1  0.93239500  0.44183200  0.00000000  1
  Ba  Ba22  1  0.88833100  0.27589300  0.00000000  1
  Ba  Ba23  1  0.34277050  0.35035150  0.00000000  1
  Ba  Ba24  1  0.14964850  0.84277050  0.50000000  1
  Ba  Ba25  1  0.77589300  0.61166900  0.50000000  1
  Ba  Ba26  1  0.05816800  0.43239500  0.50000000  1
  Ba  Ba27  1  0.22410700  0.38833100  0.50000000  1
  Ba  Ba28  1  0.85035150  0.15722950  0.50000000  1
  Ba  Ba29  1  0.94183200  0.56760500  0.50000000  1
  Ba  Ba30  1  0.65722950  0.64964850  0.00000000  1
  Ba  Ba31  1  0.50000000  0.50000000  0.50000000  1
  Ba  Ba32  1  0.81092000  0.73210400  0.00000000  1
  Ba  Ba33  1  0.11166900  0.72410700  0.00000000  1
  Er  Er34  1  0.75102700  0.99368900  0.50000000  1
  Er  Er35  1  0.09936900  0.01163400  0.50000000  1
  Er  Er36  1  0.49368900  0.74897300  0.00000000  1
  Er  Er37  1  0.32560800  0.95035600  0.00000000  1
  Er  Er38  1  0.45035600  0.17439200  0.50000000  1
  Er  Er39  1  0.51163400  0.40063100  0.00000000  1
  Er  Er40  1  0.50631100  0.25102700  0.00000000  1
  Er  Er41  1  0.55198300  0.67187200  0.50000000  1
  Er  Er42  1  0.54964400  0.82560800  0.50000000  1
  Er  Er43  1  0.24897300  0.00631100  0.50000000  1
  Er  Er44  1  0.44801700  0.32812800  0.50000000  1
  Er  Er45  1  0.67439200  0.04964400  0.00000000  1
  Er  Er46  1  0.82812800  0.05198300  0.00000000  1
  Er  Er47  1  0.90063100  0.98836600  0.50000000  1
  Er  Er48  1  0.48836600  0.59936900  0.00000000  1
  Er  Er49  1  0.17187200  0.94801700  0.00000000  1
  Er  Er50  1  0.25102700  0.49368900  0.00000000  1
  Er  Er51  1  0.59936900  0.51163400  0.00000000  1
  Er  Er52  1  0.99368900  0.24897300  0.50000000  1
  Er  Er53  1  0.82560800  0.45035600  0.50000000  1
  Er  Er54  1  0.95035600  0.67439200  0.00000000  1
  Er  Er55  1  0.01163400  0.90063100  0.50000000  1
  Er  Er56  1  0.00631100  0.75102700  0.50000000  1
  Er  Er57  1  0.05198300  0.17187200  0.00000000  1
  Er  Er58  1  0.04964400  0.32560800  0.00000000  1
  Er  Er59  1  0.74897300  0.50631100  0.00000000  1
  Er  Er60  1  0.94801700  0.82812800  0.00000000  1
  Er  Er61  1  0.17439200  0.54964400  0.50000000  1
  Er  Er62  1  0.32812800  0.55198300  0.50000000  1
  Er  Er63  1  0.40063100  0.48836600  0.00000000  1
  Er  Er64  1  0.98836600  0.09936900  0.50000000  1
  Er  Er65  1  0.67187200  0.44801700  0.50000000  1
  Zn  Zn66  1  0.28793400  0.87965000  0.50000000  1
  Zn  Zn67  1  0.57551500  0.36713800  0.50000000  1
  Zn  Zn68  1  0.86713800  0.92448500  0.00000000  1
  Zn  Zn69  1  0.42448500  0.63286200  0.50000000  1
  Zn  Zn70  1  0.71206600  0.12035000  0.50000000  1
  Zn  Zn71  1  0.13286200  0.07551500  0.00000000  1
  Zn  Zn72  1  0.62035000  0.78793400  0.00000000  1
  Zn  Zn73  1  0.37965000  0.21206600  0.00000000  1
  Zn  Zn74  1  0.78793400  0.37965000  0.00000000  1
  Zn  Zn75  1  0.07551500  0.86713800  0.00000000  1
  Zn  Zn76  1  0.36713800  0.42448500  0.50000000  1
  Zn  Zn77  1  0.92448500  0.13286200  0.00000000  1
  Zn  Zn78  1  0.21206600  0.62035000  0.00000000  1
  Zn  Zn79  1  0.63286200  0.57551500  0.50000000  1
  Zn  Zn80  1  0.12035000  0.28793400  0.50000000  1
  Zn  Zn81  1  0.87965000  0.71206600  0.50000000  1
  Pt  Pt82  1  0.35561800  0.08259000  0.50000000  1
  Pt  Pt83  1  0.58259000  0.14438200  0.00000000  1
  Pt  Pt84  1  0.41741000  0.85561800  0.00000000  1
  Pt  Pt85  1  0.64438200  0.91741000  0.50000000  1
  Pt  Pt86  1  0.85561800  0.58259000  0.00000000  1
  Pt  Pt87  1  0.08259000  0.64438200  0.50000000  1
  Pt  Pt88  1  0.91741000  0.35561800  0.50000000  1
  Pt  Pt89  1  0.14438200  0.41741000  0.00000000  1
  O  O90  1  0.08976250  0.93526250  0.74858950  1
  O  O91  1  0.35567500  0.87711900  0.24330000  1
  O  O92  1  0.57101900  0.74723700  0.25235300  1
  O  O93  1  0.73165300  0.89259000  0.50000000  1
  O  O94  1  0.24723700  0.92898100  0.24764700  1
  O  O95  1  0.66803600  0.97844100  0.74176500  1
  O  O96  1  0.43526250  0.41023750  0.75141050  1
  O  O97  1  0.42898100  0.25276300  0.74764700  1
  O  O98  1  0.84154950  0.84226250  0.00000000  1
  O  O99  1  0.64432500  0.12288100  0.24330000  1
  O  O100  1  0.82457600  0.97259000  0.24994800  1
  O  O101  1  0.56473750  0.58976250  0.24858950  1
  O  O102  1  0.39259000  0.76834700  0.00000000  1
  O  O103  1  0.57101900  0.74723700  0.74764700  1
  O  O104  1  0.42898100  0.25276300  0.25235300  1
  O  O105  1  0.24723700  0.92898100  0.75235300  1
  O  O106  1  0.33196400  0.02155900  0.74176500  1
  O  O107  1  0.91023750  0.06473750  0.74858950  1
  O  O108  1  0.17542400  0.02741000  0.75005200  1
  O  O109  1  0.75276300  0.07101900  0.75235300  1
  O  O110  1  0.47844100  0.83196400  0.24176500  1
  O  O111  1  0.35567500  0.87711900  0.75670000  1
  O  O112  1  0.08976250  0.93526250  0.25141050  1
  O  O113  1  0.43526250  0.41023750  0.24858950  1
  O  O114  1  0.37711900  0.14432500  0.74330000  1
  O  O115  1  0.26058500  0.79907900  0.50000000  1
  O  O116  1  0.37711900  0.14432500  0.25670000  1
  O  O117  1  0.44533000  0.06476800  0.50000000  1
  O  O118  1  0.65773750  0.34154950  0.50000000  1
  O  O119  1  0.56476800  0.05467000  0.00000000  1
  O  O120  1  0.47259000  0.67542400  0.25005200  1
  O  O121  1  0.00000000  0.00000000  0.50000000  1
  O  O122  1  0.91023750  0.06473750  0.25141050  1
  O  O123  1  0.62288100  0.85567500  0.25670000  1
  O  O124  1  0.34226250  0.65845050  0.50000000  1
  O  O125  1  0.62288100  0.85567500  0.74330000  1
  O  O126  1  0.82457600  0.97259000  0.75005200  1
  O  O127  1  0.73941500  0.20092100  0.50000000  1
  O  O128  1  0.60741000  0.23165300  0.00000000  1
  O  O129  1  0.66803600  0.97844100  0.25823500  1
  O  O130  1  0.52155900  0.16803600  0.24176500  1
  O  O131  1  0.15845050  0.15773750  0.00000000  1
  O  O132  1  0.56473750  0.58976250  0.75141050  1
  O  O133  1  0.64432500  0.12288100  0.75670000  1
  O  O134  1  0.47844100  0.83196400  0.75823500  1
  O  O135  1  0.55467000  0.93523200  0.50000000  1
  O  O136  1  0.52155900  0.16803600  0.75823500  1
  O  O137  1  0.47259000  0.67542400  0.74994800  1
  O  O138  1  0.52741000  0.32457600  0.25005200  1
  O  O139  1  0.33196400  0.02155900  0.25823500  1
  O  O140  1  0.26834700  0.10741000  0.50000000  1
  O  O141  1  0.17542400  0.02741000  0.24994800  1
  O  O142  1  0.43523200  0.94533000  0.00000000  1
  O  O143  1  0.29907900  0.23941500  0.00000000  1
  O  O144  1  0.75276300  0.07101900  0.24764700  1
  O  O145  1  0.52741000  0.32457600  0.74994800  1
  O  O146  1  0.70092100  0.76058500  0.00000000  1
  O  O147  1  0.58976250  0.43526250  0.24858950  1
  O  O148  1  0.85567500  0.37711900  0.74330000  1
  O  O149  1  0.07101900  0.24723700  0.75235300  1
  O  O150  1  0.23165300  0.39259000  0.00000000  1
  O  O151  1  0.74723700  0.42898100  0.74764700  1
  O  O152  1  0.16803600  0.47844100  0.24176500  1
  O  O153  1  0.93526250  0.91023750  0.25141050  1
  O  O154  1  0.92898100  0.75276300  0.24764700  1
  O  O155  1  0.34154950  0.34226250  0.50000000  1
  O  O156  1  0.14432500  0.62288100  0.74330000  1
  O  O157  1  0.32457600  0.47259000  0.74994800  1
  O  O158  1  0.06473750  0.08976250  0.74858950  1
  O  O159  1  0.89259000  0.26834700  0.50000000  1
  O  O160  1  0.07101900  0.24723700  0.24764700  1
  O  O161  1  0.92898100  0.75276300  0.75235300  1
  O  O162  1  0.74723700  0.42898100  0.25235300  1
  O  O163  1  0.83196400  0.52155900  0.24176500  1
  O  O164  1  0.41023750  0.56473750  0.24858950  1
  O  O165  1  0.67542400  0.52741000  0.25005200  1
  O  O166  1  0.25276300  0.57101900  0.25235300  1
  O  O167  1  0.97844100  0.33196400  0.74176500  1
  O  O168  1  0.85567500  0.37711900  0.25670000  1
  O  O169  1  0.58976250  0.43526250  0.75141050  1
  O  O170  1  0.93526250  0.91023750  0.74858950  1
  O  O171  1  0.87711900  0.64432500  0.24330000  1
  O  O172  1  0.76058500  0.29907900  0.00000000  1
  O  O173  1  0.87711900  0.64432500  0.75670000  1
  O  O174  1  0.94533000  0.56476800  0.00000000  1
  O  O175  1  0.15773750  0.84154950  0.00000000  1
  O  O176  1  0.06476800  0.55467000  0.50000000  1
  O  O177  1  0.97259000  0.17542400  0.75005200  1
  O  O178  1  0.50000000  0.50000000  0.00000000  1
  O  O179  1  0.41023750  0.56473750  0.75141050  1
  O  O180  1  0.12288100  0.35567500  0.75670000  1
  O  O181  1  0.84226250  0.15845050  0.00000000  1
  O  O182  1  0.12288100  0.35567500  0.24330000  1
  O  O183  1  0.32457600  0.47259000  0.25005200  1
  O  O184  1  0.23941500  0.70092100  0.00000000  1
  O  O185  1  0.10741000  0.73165300  0.50000000  1
  O  O186  1  0.16803600  0.47844100  0.75823500  1
  O  O187  1  0.02155900  0.66803600  0.74176500  1
  O  O188  1  0.65845050  0.65773750  0.50000000  1
  O  O189  1  0.06473750  0.08976250  0.25141050  1
  O  O190  1  0.14432500  0.62288100  0.25670000  1
  O  O191  1  0.97844100  0.33196400  0.25823500  1
  O  O192  1  0.05467000  0.43523200  0.00000000  1
  O  O193  1  0.02155900  0.66803600  0.25823500  1
  O  O194  1  0.97259000  0.17542400  0.24994800  1
  O  O195  1  0.02741000  0.82457600  0.75005200  1
  O  O196  1  0.83196400  0.52155900  0.75823500  1
  O  O197  1  0.76834700  0.60741000  0.00000000  1
  O  O198  1  0.67542400  0.52741000  0.74994800  1
  O  O199  1  0.93523200  0.44533000  0.50000000  1
  O  O200  1  0.79907900  0.73941500  0.50000000  1
  O  O201  1  0.25276300  0.57101900  0.74764700  1
  O  O202  1  0.02741000  0.82457600  0.24994800  1
  O  O203  1  0.20092100  0.26058500  0.50000000  1
