# generated using pymatgen
data_NaErO2
_symmetry_space_group_name_H-M   'P 1'
_cell_length_a   6.63046200
_cell_length_b   13.15895400
_cell_length_c   5.91776868
_cell_angle_alpha   90.00000000
_cell_angle_beta   122.59788679
_cell_angle_gamma   90.00000000
_symmetry_Int_Tables_number   1
_chemical_formula_structural   NaErO2
_chemical_formula_sum   'Na8 Er8 O16'
_cell_volume   434.98948409
_cell_formula_units_Z   8
loop_
 _symmetry_equiv_pos_site_id
 _symmetry_equiv_pos_as_xyz
  1  'x, y, z'
loop_
 _atom_site_type_symbol
 _atom_site_label
 _atom_site_symmetry_multiplicity
 _atom_site_fract_x
 _atom_site_fract_y
 _atom_site_fract_z
 _atom_site_occupancy
  Na  Na0  1  0.50000000  0.31982000  0.75000000  1
  Na  Na1  1  0.00000000  0.05570900  0.75000000  1
  Na  Na2  1  0.00000000  0.18018000  0.25000000  1
  Na  Na3  1  0.50000000  0.44429100  0.25000000  1
  Na  Na4  1  0.00000000  0.81982000  0.75000000  1
  Na  Na5  1  0.50000000  0.55570900  0.75000000  1
  Na  Na6  1  0.50000000  0.68018000  0.25000000  1
  Na  Na7  1  0.00000000  0.94429100  0.25000000  1
  Er  Er8  1  0.00000000  0.43286100  0.25000000  1
  Er  Er9  1  0.50000000  0.06713900  0.75000000  1
  Er  Er10  1  0.50000000  0.19329300  0.25000000  1
  Er  Er11  1  0.00000000  0.30670700  0.75000000  1
  Er  Er12  1  0.50000000  0.93286100  0.25000000  1
  Er  Er13  1  0.00000000  0.56713900  0.75000000  1
  Er  Er14  1  0.00000000  0.69329300  0.25000000  1
  Er  Er15  1  0.50000000  0.80670700  0.75000000  1
  O  O16  1  0.20343600  0.43646100  0.70511400  1
  O  O17  1  0.79656400  0.43646100  0.79488600  1
  O  O18  1  0.29656400  0.06353900  0.29488600  1
  O  O19  1  0.70343600  0.06353900  0.20511400  1
  O  O20  1  0.72831750  0.18809150  0.70717500  1
  O  O21  1  0.22831750  0.31190850  0.20717500  1
  O  O22  1  0.77168250  0.31190850  0.29282500  1
  O  O23  1  0.27168250  0.18809150  0.79282500  1
  O  O24  1  0.70343600  0.93646100  0.70511400  1
  O  O25  1  0.29656400  0.93646100  0.79488600  1
  O  O26  1  0.79656400  0.56353900  0.29488600  1
  O  O27  1  0.20343600  0.56353900  0.20511400  1
  O  O28  1  0.22831750  0.68809150  0.70717500  1
  O  O29  1  0.72831750  0.81190850  0.20717500  1
  O  O30  1  0.27168250  0.81190850  0.29282500  1
  O  O31  1  0.77168250  0.68809150  0.79282500  1
