# generated using pymatgen
data_HoH16C2S2NO12
_symmetry_space_group_name_H-M   'P 1'
_cell_length_a   10.11361700
_cell_length_b   10.91699800
_cell_length_c   11.75842500
_cell_angle_alpha   90.00000000
_cell_angle_beta   90.00000000
_cell_angle_gamma   90.00000000
_symmetry_Int_Tables_number   1
_chemical_formula_structural   HoH16C2S2NO12
_chemical_formula_sum   'Ho4 H64 C8 S8 N4 O48'
_cell_volume   1298.25166169
_cell_formula_units_Z   4
loop_
 _symmetry_equiv_pos_site_id
 _symmetry_equiv_pos_as_xyz
  1  'x, y, z'
loop_
 _atom_site_type_symbol
 _atom_site_label
 _atom_site_symmetry_multiplicity
 _atom_site_fract_x
 _atom_site_fract_y
 _atom_site_fract_z
 _atom_site_occupancy
  Ho  Ho0  1  0.03338250  0.12369600  0.75000000  1
  Ho  Ho1  1  0.46661750  0.62369600  0.75000000  1
  Ho  Ho2  1  0.96661750  0.87630400  0.25000000  1
  Ho  Ho3  1  0.53338250  0.37630400  0.25000000  1
  H  H4  1  0.96808950  0.45227700  0.07305100  1
  H  H5  1  0.13100850  0.89866500  0.04115000  1
  H  H6  1  0.38648450  0.37308000  0.81758700  1
  H  H7  1  0.06783350  0.34776500  0.34858500  1
  H  H8  1  0.62161350  0.46277300  0.91240300  1
  H  H9  1  0.12161350  0.03722700  0.08759700  1
  H  H10  1  0.79264450  0.27897900  0.68232900  1
  H  H11  1  0.20735550  0.72102100  0.18232900  1
  H  H12  1  0.37838650  0.53722700  0.08759700  1
  H  H13  1  0.70735550  0.77897900  0.68232900  1
  H  H14  1  0.11351550  0.87308000  0.68241300  1
  H  H15  1  0.46808950  0.04772300  0.92694900  1
  H  H16  1  0.05113450  0.42798200  0.75000000  1
  H  H17  1  0.12205250  0.50319400  0.36655900  1
  H  H18  1  0.29264450  0.22102100  0.18232900  1
  H  H19  1  0.62771350  0.93824200  0.25000000  1
  H  H20  1  0.87794750  0.49680600  0.63344100  1
  H  H21  1  0.12771350  0.56175800  0.75000000  1
  H  H22  1  0.53191050  0.95227700  0.42694900  1
  H  H23  1  0.37794750  0.00319400  0.36655900  1
  H  H24  1  0.87794750  0.49680600  0.86655900  1
  H  H25  1  0.06783350  0.34776500  0.15141500  1
  H  H26  1  0.46808950  0.04772300  0.57305100  1
  H  H27  1  0.11351550  0.87308000  0.81758700  1
  H  H28  1  0.88648450  0.12692000  0.31758700  1
  H  H29  1  0.70735550  0.77897900  0.81767100  1
  H  H30  1  0.37838650  0.53722700  0.41240300  1
  H  H31  1  0.79264450  0.27897900  0.81767100  1
  H  H32  1  0.62161350  0.46277300  0.58759700  1
  H  H33  1  0.94886550  0.57201800  0.25000000  1
  H  H34  1  0.61351550  0.62692000  0.31758700  1
  H  H35  1  0.38648450  0.37308000  0.68241300  1
  H  H36  1  0.43216650  0.84776500  0.34858500  1
  H  H37  1  0.63100850  0.60133500  0.95885000  1
  H  H38  1  0.86899150  0.10133500  0.95885000  1
  H  H39  1  0.44886550  0.92798200  0.75000000  1
  H  H40  1  0.03191050  0.54772300  0.92694900  1
  H  H41  1  0.93216650  0.65223500  0.65141500  1
  H  H42  1  0.29264450  0.22102100  0.31767100  1
  H  H43  1  0.12161350  0.03722700  0.41240300  1
  H  H44  1  0.62205250  0.99680600  0.86655900  1
  H  H45  1  0.37794750  0.00319400  0.13344100  1
  H  H46  1  0.56783350  0.15223500  0.84858500  1
  H  H47  1  0.87838650  0.96277300  0.91240300  1
  H  H48  1  0.43216650  0.84776500  0.15141500  1
  H  H49  1  0.13100850  0.89866500  0.45885000  1
  H  H50  1  0.87838650  0.96277300  0.58759700  1
  H  H51  1  0.56783350  0.15223500  0.65141500  1
  H  H52  1  0.87228650  0.43824200  0.25000000  1
  H  H53  1  0.62205250  0.99680600  0.63344100  1
  H  H54  1  0.53191050  0.95227700  0.07305100  1
  H  H55  1  0.55113450  0.07201800  0.25000000  1
  H  H56  1  0.88648450  0.12692000  0.18241300  1
  H  H57  1  0.37228650  0.06175800  0.75000000  1
  H  H58  1  0.36899150  0.39866500  0.45885000  1
  H  H59  1  0.36899150  0.39866500  0.04115000  1
  H  H60  1  0.61351550  0.62692000  0.18241300  1
  H  H61  1  0.63100850  0.60133500  0.54115000  1
  H  H62  1  0.93216650  0.65223500  0.84858500  1
  H  H63  1  0.03191050  0.54772300  0.57305100  1
  H  H64  1  0.20735550  0.72102100  0.31767100  1
  H  H65  1  0.12205250  0.50319400  0.13344100  1
  H  H66  1  0.96808950  0.45227700  0.42694900  1
  H  H67  1  0.86899150  0.10133500  0.54115000  1
  C  C68  1  0.53632550  0.05673300  0.64432000  1
  C  C69  1  0.03632550  0.44326700  0.35568000  1
  C  C70  1  0.03632550  0.44326700  0.14432000  1
  C  C71  1  0.96367450  0.55673300  0.85568000  1
  C  C72  1  0.96367450  0.55673300  0.64432000  1
  C  C73  1  0.53632550  0.05673300  0.85568000  1
  C  C74  1  0.46367450  0.94326700  0.14432000  1
  C  C75  1  0.46367450  0.94326700  0.35568000  1
  S  S76  1  0.20411850  0.21888200  0.94133300  1
  S  S77  1  0.20411850  0.21888200  0.55866700  1
  S  S78  1  0.70411850  0.28111800  0.44133300  1
  S  S79  1  0.79588150  0.78111800  0.05866700  1
  S  S80  1  0.79588150  0.78111800  0.44133300  1
  S  S81  1  0.29588150  0.71888200  0.55866700  1
  S  S82  1  0.70411850  0.28111800  0.05866700  1
  S  S83  1  0.29588150  0.71888200  0.94133300  1
  N  N84  1  0.96513750  0.47862200  0.25000000  1
  N  N85  1  0.03486250  0.52137800  0.75000000  1
  N  N86  1  0.53486250  0.97862200  0.25000000  1
  N  N87  1  0.46513750  0.02137800  0.75000000  1
  O  O88  1  0.08337550  0.27694900  0.61132000  1
  O  O89  1  0.65028950  0.76770700  0.75000000  1
  O  O90  1  0.68140150  0.31450600  0.93762400  1
  O  O91  1  0.58337550  0.22305100  0.11132000  1
  O  O92  1  0.91662450  0.72305100  0.11132000  1
  O  O93  1  0.77535450  0.89506100  0.37141200  1
  O  O94  1  0.81954150  0.19785400  0.06623000  1
  O  O95  1  0.92704950  0.08677900  0.25000000  1
  O  O96  1  0.18045850  0.80214600  0.93377000  1
  O  O97  1  0.31859850  0.68549400  0.06237600  1
  O  O98  1  0.18045850  0.80214600  0.56623000  1
  O  O99  1  0.58337550  0.22305100  0.38868000  1
  O  O100  1  0.31859850  0.68549400  0.43762400  1
  O  O101  1  0.09762650  0.95073700  0.39548000  1
  O  O102  1  0.40237350  0.45073700  0.10452000  1
  O  O103  1  0.59762650  0.54926300  0.89548000  1
  O  O104  1  0.68140150  0.31450600  0.56237600  1
  O  O105  1  0.18140150  0.18549400  0.43762400  1
  O  O106  1  0.57295050  0.58677900  0.25000000  1
  O  O107  1  0.72464550  0.39506100  0.37141200  1
  O  O108  1  0.40237350  0.45073700  0.39548000  1
  O  O109  1  0.09762650  0.95073700  0.10452000  1
  O  O110  1  0.68045850  0.69785400  0.43377000  1
  O  O111  1  0.22464550  0.10493900  0.62858800  1
  O  O112  1  0.08337550  0.27694900  0.88868000  1
  O  O113  1  0.81954150  0.19785400  0.43377000  1
  O  O114  1  0.41662450  0.77694900  0.61132000  1
  O  O115  1  0.31954150  0.30214600  0.93377000  1
  O  O116  1  0.90237350  0.04926300  0.89548000  1
  O  O117  1  0.27535450  0.60493900  0.62858800  1
  O  O118  1  0.81859850  0.81450600  0.93762400  1
  O  O119  1  0.15028950  0.73229300  0.25000000  1
  O  O120  1  0.59762650  0.54926300  0.60452000  1
  O  O121  1  0.77535450  0.89506100  0.12858800  1
  O  O122  1  0.84971050  0.26770700  0.75000000  1
  O  O123  1  0.18140150  0.18549400  0.06237600  1
  O  O124  1  0.07295050  0.91322100  0.75000000  1
  O  O125  1  0.81859850  0.81450600  0.56237600  1
  O  O126  1  0.27535450  0.60493900  0.87141200  1
  O  O127  1  0.90237350  0.04926300  0.60452000  1
  O  O128  1  0.31954150  0.30214600  0.56623000  1
  O  O129  1  0.41662450  0.77694900  0.88868000  1
  O  O130  1  0.91662450  0.72305100  0.38868000  1
  O  O131  1  0.72464550  0.39506100  0.12858800  1
  O  O132  1  0.42704950  0.41322100  0.75000000  1
  O  O133  1  0.68045850  0.69785400  0.06623000  1
  O  O134  1  0.22464550  0.10493900  0.87141200  1
  O  O135  1  0.34971050  0.23229300  0.25000000  1
