# generated using pymatgen
data_SiO2
_symmetry_space_group_name_H-M   'P 1'
_cell_length_a   8.01908355
_cell_length_b   8.01908355
_cell_length_c   7.91698189
_cell_angle_alpha   90.00000000
_cell_angle_beta   90.00000000
_cell_angle_gamma   120.00000000
_symmetry_Int_Tables_number   1
_chemical_formula_structural   SiO2
_chemical_formula_sum   'Si9 O18'
_cell_volume   440.89965563
_cell_formula_units_Z   9
loop_
 _symmetry_equiv_pos_site_id
 _symmetry_equiv_pos_as_xyz
  1  'x, y, z'
loop_
 _atom_site_type_symbol
 _atom_site_label
 _atom_site_symmetry_multiplicity
 _atom_site_fract_x
 _atom_site_fract_y
 _atom_site_fract_z
 _atom_site_occupancy
  Si  Si0  1  0.21549500  0.21549500  0.50000000  1
  Si  Si1  1  0.00000000  0.78450500  0.50000000  1
  Si  Si2  1  0.78450500  0.00000000  0.50000000  1
  Si  Si3  1  0.88216167  0.54882833  0.83333333  1
  Si  Si4  1  0.66666667  0.11783833  0.83333333  1
  Si  Si5  1  0.45117167  0.33333333  0.83333333  1
  Si  Si6  1  0.54882833  0.88216167  0.16666667  1
  Si  Si7  1  0.33333333  0.45117167  0.16666667  1
  Si  Si8  1  0.11783833  0.66666667  0.16666667  1
  O  O9  1  0.80872500  0.80872500  0.50000000  1
  O  O10  1  0.00000000  0.19127500  0.50000000  1
  O  O11  1  0.19127500  0.00000000  0.50000000  1
  O  O12  1  0.66666667  0.00051033  0.33333333  1
  O  O13  1  0.33384367  0.33333333  0.33333333  1
  O  O14  1  0.99948967  0.66615633  0.33333333  1
  O  O15  1  0.47539167  0.14205833  0.83333333  1
  O  O16  1  0.66666667  0.52460833  0.83333333  1
  O  O17  1  0.85794167  0.33333333  0.83333333  1
  O  O18  1  0.33333333  0.33384367  0.66666667  1
  O  O19  1  0.00051033  0.66666667  0.66666667  1
  O  O20  1  0.66615633  0.99948967  0.66666667  1
  O  O21  1  0.14205833  0.47539167  0.16666667  1
  O  O22  1  0.33333333  0.85794167  0.16666667  1
  O  O23  1  0.52460833  0.66666667  0.16666667  1
  O  O24  1  0.00000000  0.66717700  0.00000000  1
  O  O25  1  0.66717700  0.00000000  0.00000000  1
  O  O26  1  0.33282300  0.33282300  0.00000000  1
