# generated using pymatgen
data_Cr2F5
_symmetry_space_group_name_H-M   'P 1'
_cell_length_a   8.02431800
_cell_length_b   7.62341400
_cell_length_c   7.31259628
_cell_angle_alpha   90.00000000
_cell_angle_beta   121.05916400
_cell_angle_gamma   90.00000000
_symmetry_Int_Tables_number   1
_chemical_formula_structural   Cr2F5
_chemical_formula_sum   'Cr8 F20'
_cell_volume   383.19960644
_cell_formula_units_Z   4
loop_
 _symmetry_equiv_pos_site_id
 _symmetry_equiv_pos_as_xyz
  1  'x, y, z'
loop_
 _atom_site_type_symbol
 _atom_site_label
 _atom_site_symmetry_multiplicity
 _atom_site_fract_x
 _atom_site_fract_y
 _atom_site_fract_z
 _atom_site_occupancy
  Cr  Cr0  1  0.75000000  0.75000000  0.50000000  1
  Cr  Cr1  1  0.25000000  0.75000000  0.00000000  1
  Cr  Cr2  1  0.25000000  0.75000000  0.50000000  1
  Cr  Cr3  1  0.75000000  0.75000000  0.00000000  1
  Cr  Cr4  1  0.25000000  0.25000000  0.50000000  1
  Cr  Cr5  1  0.75000000  0.25000000  0.00000000  1
  Cr  Cr6  1  0.75000000  0.25000000  0.50000000  1
  Cr  Cr7  1  0.25000000  0.25000000  0.00000000  1
  F  F8  1  0.81922400  0.49524100  0.54072700  1
  F  F9  1  0.18077600  0.49524100  0.95927300  1
  F  F10  1  0.18077600  0.50475900  0.45927300  1
  F  F11  1  0.81922400  0.50475900  0.04072700  1
  F  F12  1  0.00000000  0.18433900  0.75000000  1
  F  F13  1  0.00000000  0.81566100  0.25000000  1
  F  F14  1  0.86554600  0.77566400  0.82162800  1
  F  F15  1  0.13445400  0.77566400  0.67837200  1
  F  F16  1  0.13445400  0.22433600  0.17837200  1
  F  F17  1  0.86554600  0.22433600  0.32162800  1
  F  F18  1  0.31922400  0.99524100  0.54072700  1
  F  F19  1  0.68077600  0.99524100  0.95927300  1
  F  F20  1  0.68077600  0.00475900  0.45927300  1
  F  F21  1  0.31922400  0.00475900  0.04072700  1
  F  F22  1  0.50000000  0.68433900  0.75000000  1
  F  F23  1  0.50000000  0.31566100  0.25000000  1
  F  F24  1  0.36554600  0.27566400  0.82162800  1
  F  F25  1  0.63445400  0.27566400  0.67837200  1
  F  F26  1  0.63445400  0.72433600  0.17837200  1
  F  F27  1  0.36554600  0.72433600  0.32162800  1
