# generated using pymatgen
data_Hg2Te2O7
_symmetry_space_group_name_H-M   'P 1'
_cell_length_a   13.97090800
_cell_length_b   24.11669000
_cell_length_c   7.57796400
_cell_angle_alpha   90.00000000
_cell_angle_beta   90.00000000
_cell_angle_gamma   90.00000000
_symmetry_Int_Tables_number   1
_chemical_formula_structural   Hg2Te2O7
_chemical_formula_sum   'Hg32 Te32 O112'
_cell_volume   2553.25900032
_cell_formula_units_Z   16
loop_
 _symmetry_equiv_pos_site_id
 _symmetry_equiv_pos_as_xyz
  1  'x, y, z'
loop_
 _atom_site_type_symbol
 _atom_site_label
 _atom_site_symmetry_multiplicity
 _atom_site_fract_x
 _atom_site_fract_y
 _atom_site_fract_z
 _atom_site_occupancy
  Hg  Hg0  1  0.48136350  0.24553650  0.47974500  1
  Hg  Hg1  1  0.62459950  0.12966350  0.04642400  1
  Hg  Hg2  1  0.62459950  0.87033650  0.95357600  1
  Hg  Hg3  1  0.48136350  0.75446350  0.52025500  1
  Hg  Hg4  1  0.13175850  0.87991450  0.04832400  1
  Hg  Hg5  1  0.28361500  0.00000000  0.00000000  1
  Hg  Hg6  1  0.29170400  0.00000000  0.50000000  1
  Hg  Hg7  1  0.79170400  0.00000000  0.00000000  1
  Hg  Hg8  1  0.48136350  0.74553650  0.02025500  1
  Hg  Hg9  1  0.62459950  0.37033650  0.54642400  1
  Hg  Hg10  1  0.62459950  0.62966350  0.45357600  1
  Hg  Hg11  1  0.13175850  0.12008550  0.95167600  1
  Hg  Hg12  1  0.63175850  0.12008550  0.54832400  1
  Hg  Hg13  1  0.78361500  0.00000000  0.50000000  1
  Hg  Hg14  1  0.63175850  0.87991450  0.45167600  1
  Hg  Hg15  1  0.48136350  0.25446350  0.97974500  1
  Hg  Hg16  1  0.98136350  0.74553650  0.47974500  1
  Hg  Hg17  1  0.12459950  0.62966350  0.04642400  1
  Hg  Hg18  1  0.12459950  0.37033650  0.95357600  1
  Hg  Hg19  1  0.98136350  0.25446350  0.52025500  1
  Hg  Hg20  1  0.63175850  0.37991450  0.04832400  1
  Hg  Hg21  1  0.78361500  0.50000000  0.00000000  1
  Hg  Hg22  1  0.79170400  0.50000000  0.50000000  1
  Hg  Hg23  1  0.29170400  0.50000000  0.00000000  1
  Hg  Hg24  1  0.98136350  0.24553650  0.02025500  1
  Hg  Hg25  1  0.12459950  0.87033650  0.54642400  1
  Hg  Hg26  1  0.12459950  0.12966350  0.45357600  1
  Hg  Hg27  1  0.63175850  0.62008550  0.95167600  1
  Hg  Hg28  1  0.13175850  0.62008550  0.54832400  1
  Hg  Hg29  1  0.28361500  0.50000000  0.50000000  1
  Hg  Hg30  1  0.13175850  0.37991450  0.45167600  1
  Hg  Hg31  1  0.98136350  0.75446350  0.97974500  1
  Te  Te32  1  0.71612350  0.25142250  0.26047000  1
  Te  Te33  1  0.04176650  0.99926150  0.74997200  1
  Te  Te34  1  0.71612350  0.74857750  0.73953000  1
  Te  Te35  1  0.54176650  0.00073850  0.24997200  1
  Te  Te36  1  0.39325300  0.63782000  0.75034000  1
  Te  Te37  1  0.71612350  0.75142250  0.23953000  1
  Te  Te38  1  0.36484050  0.11489950  0.24314300  1
  Te  Te39  1  0.39325300  0.36218000  0.24966000  1
  Te  Te40  1  0.86484050  0.11489950  0.25685700  1
  Te  Te41  1  0.86484050  0.88510050  0.74314300  1
  Te  Te42  1  0.39325300  0.13782000  0.74966000  1
  Te  Te43  1  0.36484050  0.88510050  0.75685700  1
  Te  Te44  1  0.39325300  0.86218000  0.25034000  1
  Te  Te45  1  0.54176650  0.99926150  0.75002800  1
  Te  Te46  1  0.04176650  0.00073850  0.25002800  1
  Te  Te47  1  0.71612350  0.24857750  0.76047000  1
  Te  Te48  1  0.21612350  0.75142250  0.26047000  1
  Te  Te49  1  0.54176650  0.49926150  0.74997200  1
  Te  Te50  1  0.21612350  0.24857750  0.73953000  1
  Te  Te51  1  0.04176650  0.50073850  0.24997200  1
  Te  Te52  1  0.89325300  0.13782000  0.75034000  1
  Te  Te53  1  0.21612350  0.25142250  0.23953000  1
  Te  Te54  1  0.86484050  0.61489950  0.24314300  1
  Te  Te55  1  0.89325300  0.86218000  0.24966000  1
  Te  Te56  1  0.36484050  0.61489950  0.25685700  1
  Te  Te57  1  0.36484050  0.38510050  0.74314300  1
  Te  Te58  1  0.89325300  0.63782000  0.74966000  1
  Te  Te59  1  0.86484050  0.38510050  0.75685700  1
  Te  Te60  1  0.89325300  0.36218000  0.25034000  1
  Te  Te61  1  0.04176650  0.49926150  0.75002800  1
  Te  Te62  1  0.54176650  0.50073850  0.25002800  1
  Te  Te63  1  0.21612350  0.74857750  0.76047000  1
  O  O64  1  0.49139250  0.42654050  0.29039200  1
  O  O65  1  0.49139250  0.92654050  0.20960800  1
  O  O66  1  0.66354600  0.96778700  0.30515100  1
  O  O67  1  0.77067700  0.81997700  0.80985400  1
  O  O68  1  0.29327200  0.91616700  0.55893500  1
  O  O69  1  0.16354600  0.96778700  0.19484900  1
  O  O70  1  0.58516700  0.92225100  0.72670700  1
  O  O71  1  0.27067700  0.18002300  0.30985400  1
  O  O72  1  0.58903650  0.72168050  0.26693100  1
  O  O73  1  0.47815950  0.34212150  0.05487400  1
  O  O74  1  0.29327200  0.08383300  0.44106500  1
  O  O75  1  0.79327200  0.91616700  0.94106500  1
  O  O76  1  0.34988900  0.27820100  0.21755200  1
  O  O77  1  0.28688400  0.90370900  0.95582600  1
  O  O78  1  0.58516700  0.07774900  0.27329300  1
  O  O79  1  0.58712500  0.00000000  0.00000000  1
  O  O80  1  0.41257950  0.96914150  0.80413800  1
  O  O81  1  0.79327200  0.08383300  0.05893500  1
  O  O82  1  0.71674750  0.27642850  0.00772300  1
  O  O83  1  0.67274350  0.17270850  0.80479800  1
  O  O84  1  0.77067700  0.18002300  0.19014600  1
  O  O85  1  0.47815950  0.15787850  0.55487400  1
  O  O86  1  0.34988900  0.77820100  0.28244800  1
  O  O87  1  0.49527500  0.00000000  0.50000000  1
  O  O88  1  0.78688400  0.09629100  0.45582600  1
  O  O89  1  0.91257950  0.96914150  0.69586200  1
  O  O90  1  0.67274350  0.82729150  0.19520200  1
  O  O91  1  0.45891250  0.66583850  0.54506700  1
  O  O92  1  0.17274350  0.82729150  0.30479800  1
  O  O93  1  0.71674750  0.22357150  0.50772300  1
  O  O94  1  0.71674750  0.72357150  0.99227700  1
  O  O95  1  0.47815950  0.65787850  0.94512600  1
  O  O96  1  0.45891250  0.33416150  0.45493300  1
  O  O97  1  0.66354600  0.03221300  0.69484900  1
  O  O98  1  0.45891250  0.16583850  0.95493300  1
  O  O99  1  0.49139250  0.57345950  0.70960800  1
  O  O100  1  0.08712500  0.00000000  0.50000000  1
  O  O101  1  0.27067700  0.81997700  0.69014600  1
  O  O102  1  0.91257950  0.03085850  0.30413800  1
  O  O103  1  0.71674750  0.77642850  0.49227700  1
  O  O104  1  0.17274350  0.17270850  0.69520200  1
  O  O105  1  0.34988900  0.72179900  0.78244800  1
  O  O106  1  0.78688400  0.90370900  0.54417400  1
  O  O107  1  0.08516700  0.07774900  0.22670700  1
  O  O108  1  0.08516700  0.92225100  0.77329300  1
  O  O109  1  0.45891250  0.83416150  0.04506700  1
  O  O110  1  0.58903650  0.27831950  0.73306900  1
  O  O111  1  0.58903650  0.77831950  0.76693100  1
  O  O112  1  0.34988900  0.22179900  0.71755200  1
  O  O113  1  0.58903650  0.22168050  0.23306900  1
  O  O114  1  0.47815950  0.84212150  0.44512600  1
  O  O115  1  0.41257950  0.03085850  0.19586200  1
  O  O116  1  0.99527500  0.00000000  0.00000000  1
  O  O117  1  0.16354600  0.03221300  0.80515100  1
  O  O118  1  0.28688400  0.09629100  0.04417400  1
  O  O119  1  0.49139250  0.07345950  0.79039200  1
  O  O120  1  0.99139250  0.92654050  0.29039200  1
  O  O121  1  0.99139250  0.42654050  0.20960800  1
  O  O122  1  0.16354600  0.46778700  0.30515100  1
  O  O123  1  0.27067700  0.31997700  0.80985400  1
  O  O124  1  0.79327200  0.41616700  0.55893500  1
  O  O125  1  0.66354600  0.46778700  0.19484900  1
  O  O126  1  0.08516700  0.42225100  0.72670700  1
  O  O127  1  0.77067700  0.68002300  0.30985400  1
  O  O128  1  0.08903650  0.22168050  0.26693100  1
  O  O129  1  0.97815950  0.84212150  0.05487400  1
  O  O130  1  0.79327200  0.58383300  0.44106500  1
  O  O131  1  0.29327200  0.41616700  0.94106500  1
  O  O132  1  0.84988900  0.77820100  0.21755200  1
  O  O133  1  0.78688400  0.40370900  0.95582600  1
  O  O134  1  0.08516700  0.57774900  0.27329300  1
  O  O135  1  0.08712500  0.50000000  0.00000000  1
  O  O136  1  0.91257950  0.46914150  0.80413800  1
  O  O137  1  0.29327200  0.58383300  0.05893500  1
  O  O138  1  0.21674750  0.77642850  0.00772300  1
  O  O139  1  0.17274350  0.67270850  0.80479800  1
  O  O140  1  0.27067700  0.68002300  0.19014600  1
  O  O141  1  0.97815950  0.65787850  0.55487400  1
  O  O142  1  0.84988900  0.27820100  0.28244800  1
  O  O143  1  0.99527500  0.50000000  0.50000000  1
  O  O144  1  0.28688400  0.59629100  0.45582600  1
  O  O145  1  0.41257950  0.46914150  0.69586200  1
  O  O146  1  0.17274350  0.32729150  0.19520200  1
  O  O147  1  0.95891250  0.16583850  0.54506700  1
  O  O148  1  0.67274350  0.32729150  0.30479800  1
  O  O149  1  0.21674750  0.72357150  0.50772300  1
  O  O150  1  0.21674750  0.22357150  0.99227700  1
  O  O151  1  0.97815950  0.15787850  0.94512600  1
  O  O152  1  0.95891250  0.83416150  0.45493300  1
  O  O153  1  0.16354600  0.53221300  0.69484900  1
  O  O154  1  0.95891250  0.66583850  0.95493300  1
  O  O155  1  0.99139250  0.07345950  0.70960800  1
  O  O156  1  0.58712500  0.50000000  0.50000000  1
  O  O157  1  0.77067700  0.31997700  0.69014600  1
  O  O158  1  0.41257950  0.53085850  0.30413800  1
  O  O159  1  0.21674750  0.27642850  0.49227700  1
  O  O160  1  0.67274350  0.67270850  0.69520200  1
  O  O161  1  0.84988900  0.22179900  0.78244800  1
  O  O162  1  0.28688400  0.40370900  0.54417400  1
  O  O163  1  0.58516700  0.57774900  0.22670700  1
  O  O164  1  0.58516700  0.42225100  0.77329300  1
  O  O165  1  0.95891250  0.33416150  0.04506700  1
  O  O166  1  0.08903650  0.77831950  0.73306900  1
  O  O167  1  0.08903650  0.27831950  0.76693100  1
  O  O168  1  0.84988900  0.72179900  0.71755200  1
  O  O169  1  0.08903650  0.72168050  0.23306900  1
  O  O170  1  0.97815950  0.34212150  0.44512600  1
  O  O171  1  0.91257950  0.53085850  0.19586200  1
  O  O172  1  0.49527500  0.50000000  0.00000000  1
  O  O173  1  0.66354600  0.53221300  0.80515100  1
  O  O174  1  0.78688400  0.59629100  0.04417400  1
  O  O175  1  0.99139250  0.57345950  0.79039200  1
