# generated using pymatgen
data_Sr10Al2ClF25
_symmetry_space_group_name_H-M   'P 1'
_cell_length_a   16.61217800
_cell_length_b   16.61217800
_cell_length_c   16.61217800
_cell_angle_alpha   90.00000000
_cell_angle_beta   90.00000000
_cell_angle_gamma   90.00000000
_symmetry_Int_Tables_number   1
_chemical_formula_structural   Sr10Al2ClF25
_chemical_formula_sum   'Sr80 Al16 Cl8 F200'
_cell_volume   4584.37069637
_cell_formula_units_Z   8
loop_
 _symmetry_equiv_pos_site_id
 _symmetry_equiv_pos_as_xyz
  1  'x, y, z'
loop_
 _atom_site_type_symbol
 _atom_site_label
 _atom_site_symmetry_multiplicity
 _atom_site_fract_x
 _atom_site_fract_y
 _atom_site_fract_z
 _atom_site_occupancy
  Sr  Sr0  1  0.41451100  0.41451100  0.41451100  1
  Sr  Sr1  1  0.69422600  0.00000000  0.50000000  1
  Sr  Sr2  1  0.25000000  0.25000000  0.44422600  1
  Sr  Sr3  1  0.44422600  0.25000000  0.25000000  1
  Sr  Sr4  1  0.66451100  0.16451100  0.33548900  1
  Sr  Sr5  1  0.16451100  0.83548900  0.16451100  1
  Sr  Sr6  1  0.83548900  0.16451100  0.16451100  1
  Sr  Sr7  1  0.25000000  0.44422600  0.25000000  1
  Sr  Sr8  1  0.33548900  0.83548900  0.33548900  1
  Sr  Sr9  1  0.25000000  0.25000000  0.05577400  1
  Sr  Sr10  1  0.00000000  0.00000000  0.19422600  1
  Sr  Sr11  1  0.50000000  0.80577400  0.50000000  1
  Sr  Sr12  1  0.50000000  0.00000000  0.30577400  1
  Sr  Sr13  1  0.05577400  0.25000000  0.25000000  1
  Sr  Sr14  1  0.25000000  0.05577400  0.25000000  1
  Sr  Sr15  1  0.08548900  0.41451100  0.08548900  1
  Sr  Sr16  1  0.41451100  0.08548900  0.08548900  1
  Sr  Sr17  1  0.08548900  0.08548900  0.41451100  1
  Sr  Sr18  1  0.30577400  0.00000000  0.50000000  1
  Sr  Sr19  1  0.50000000  0.19422600  0.50000000  1
  Sr  Sr20  1  0.41451100  0.91451100  0.91451100  1
  Sr  Sr21  1  0.69422600  0.50000000  0.00000000  1
  Sr  Sr22  1  0.25000000  0.75000000  0.94422600  1
  Sr  Sr23  1  0.44422600  0.75000000  0.75000000  1
  Sr  Sr24  1  0.66451100  0.66451100  0.83548900  1
  Sr  Sr25  1  0.16451100  0.33548900  0.66451100  1
  Sr  Sr26  1  0.83548900  0.66451100  0.66451100  1
  Sr  Sr27  1  0.25000000  0.94422600  0.75000000  1
  Sr  Sr28  1  0.33548900  0.33548900  0.83548900  1
  Sr  Sr29  1  0.25000000  0.75000000  0.55577400  1
  Sr  Sr30  1  0.00000000  0.50000000  0.69422600  1
  Sr  Sr31  1  0.50000000  0.30577400  0.00000000  1
  Sr  Sr32  1  0.50000000  0.50000000  0.80577400  1
  Sr  Sr33  1  0.05577400  0.75000000  0.75000000  1
  Sr  Sr34  1  0.25000000  0.55577400  0.75000000  1
  Sr  Sr35  1  0.08548900  0.91451100  0.58548900  1
  Sr  Sr36  1  0.41451100  0.58548900  0.58548900  1
  Sr  Sr37  1  0.08548900  0.58548900  0.91451100  1
  Sr  Sr38  1  0.30577400  0.50000000  0.00000000  1
  Sr  Sr39  1  0.50000000  0.69422600  0.00000000  1
  Sr  Sr40  1  0.91451100  0.41451100  0.91451100  1
  Sr  Sr41  1  0.19422600  0.00000000  0.00000000  1
  Sr  Sr42  1  0.75000000  0.25000000  0.94422600  1
  Sr  Sr43  1  0.94422600  0.25000000  0.75000000  1
  Sr  Sr44  1  0.16451100  0.16451100  0.83548900  1
  Sr  Sr45  1  0.66451100  0.83548900  0.66451100  1
  Sr  Sr46  1  0.33548900  0.16451100  0.66451100  1
  Sr  Sr47  1  0.75000000  0.44422600  0.75000000  1
  Sr  Sr48  1  0.83548900  0.83548900  0.83548900  1
  Sr  Sr49  1  0.75000000  0.25000000  0.55577400  1
  Sr  Sr50  1  0.50000000  0.00000000  0.69422600  1
  Sr  Sr51  1  0.00000000  0.80577400  0.00000000  1
  Sr  Sr52  1  0.00000000  0.00000000  0.80577400  1
  Sr  Sr53  1  0.55577400  0.25000000  0.75000000  1
  Sr  Sr54  1  0.75000000  0.05577400  0.75000000  1
  Sr  Sr55  1  0.58548900  0.41451100  0.58548900  1
  Sr  Sr56  1  0.91451100  0.08548900  0.58548900  1
  Sr  Sr57  1  0.58548900  0.08548900  0.91451100  1
  Sr  Sr58  1  0.80577400  0.00000000  0.00000000  1
  Sr  Sr59  1  0.00000000  0.19422600  0.00000000  1
  Sr  Sr60  1  0.91451100  0.91451100  0.41451100  1
  Sr  Sr61  1  0.19422600  0.50000000  0.50000000  1
  Sr  Sr62  1  0.75000000  0.75000000  0.44422600  1
  Sr  Sr63  1  0.94422600  0.75000000  0.25000000  1
  Sr  Sr64  1  0.16451100  0.66451100  0.33548900  1
  Sr  Sr65  1  0.66451100  0.33548900  0.16451100  1
  Sr  Sr66  1  0.33548900  0.66451100  0.16451100  1
  Sr  Sr67  1  0.75000000  0.94422600  0.25000000  1
  Sr  Sr68  1  0.83548900  0.33548900  0.33548900  1
  Sr  Sr69  1  0.75000000  0.75000000  0.05577400  1
  Sr  Sr70  1  0.50000000  0.50000000  0.19422600  1
  Sr  Sr71  1  0.00000000  0.30577400  0.50000000  1
  Sr  Sr72  1  0.00000000  0.50000000  0.30577400  1
  Sr  Sr73  1  0.55577400  0.75000000  0.25000000  1
  Sr  Sr74  1  0.75000000  0.55577400  0.25000000  1
  Sr  Sr75  1  0.58548900  0.91451100  0.08548900  1
  Sr  Sr76  1  0.91451100  0.58548900  0.08548900  1
  Sr  Sr77  1  0.58548900  0.58548900  0.41451100  1
  Sr  Sr78  1  0.80577400  0.50000000  0.50000000  1
  Sr  Sr79  1  0.00000000  0.69422600  0.50000000  1
  Al  Al80  1  0.12500000  0.62500000  0.12500000  1
  Al  Al81  1  0.37500000  0.62500000  0.37500000  1
  Al  Al82  1  0.37500000  0.87500000  0.12500000  1
  Al  Al83  1  0.12500000  0.87500000  0.37500000  1
  Al  Al84  1  0.12500000  0.12500000  0.62500000  1
  Al  Al85  1  0.37500000  0.12500000  0.87500000  1
  Al  Al86  1  0.37500000  0.37500000  0.62500000  1
  Al  Al87  1  0.12500000  0.37500000  0.87500000  1
  Al  Al88  1  0.62500000  0.62500000  0.62500000  1
  Al  Al89  1  0.87500000  0.62500000  0.87500000  1
  Al  Al90  1  0.87500000  0.87500000  0.62500000  1
  Al  Al91  1  0.62500000  0.87500000  0.87500000  1
  Al  Al92  1  0.62500000  0.12500000  0.12500000  1
  Al  Al93  1  0.87500000  0.12500000  0.37500000  1
  Al  Al94  1  0.87500000  0.37500000  0.12500000  1
  Al  Al95  1  0.62500000  0.37500000  0.37500000  1
  Cl  Cl96  1  0.50000000  0.00000000  0.50000000  1
  Cl  Cl97  1  0.25000000  0.25000000  0.25000000  1
  Cl  Cl98  1  0.50000000  0.50000000  0.00000000  1
  Cl  Cl99  1  0.25000000  0.75000000  0.75000000  1
  Cl  Cl100  1  0.00000000  0.00000000  0.00000000  1
  Cl  Cl101  1  0.75000000  0.25000000  0.75000000  1
  Cl  Cl102  1  0.00000000  0.50000000  0.50000000  1
  Cl  Cl103  1  0.75000000  0.75000000  0.25000000  1
  F  F104  1  0.41256950  0.80276625  0.19723375  1
  F  F105  1  0.01778350  0.85336525  0.14663475  1
  F  F106  1  0.19723375  0.58743050  0.19723375  1
  F  F107  1  0.33743050  0.94723375  0.05276625  1
  F  F108  1  0.60336525  0.73221650  0.39663475  1
  F  F109  1  0.19723375  0.80276625  0.41256950  1
  F  F110  1  0.55276625  0.05276625  0.16256950  1
  F  F111  1  0.30276625  0.58743050  0.30276625  1
  F  F112  1  0.25000000  0.75000000  0.25000000  1
  F  F113  1  0.14663475  0.85336525  0.01778350  1
  F  F114  1  0.35336525  0.98221650  0.35336525  1
  F  F115  1  0.30276625  0.69723375  0.41256950  1
  F  F116  1  0.44723375  0.94723375  0.16256950  1
  F  F117  1  0.60336525  0.89663475  0.23221650  1
  F  F118  1  0.89663475  0.89663475  0.26778350  1
  F  F119  1  0.39663475  0.26778350  0.39663475  1
  F  F120  1  0.16256950  0.94723375  0.44723375  1
  F  F121  1  0.26778350  0.10336525  0.10336525  1
  F  F122  1  0.05276625  0.66256950  0.05276625  1
  F  F123  1  0.94723375  0.05276625  0.33743050  1
  F  F124  1  0.85336525  0.14663475  0.01778350  1
  F  F125  1  0.00000000  0.00000000  0.50000000  1
  F  F126  1  0.94723375  0.33743050  0.05276625  1
  F  F127  1  0.41256950  0.69723375  0.30276625  1
  F  F128  1  0.19723375  0.69723375  0.08743050  1
  F  F129  1  0.85336525  0.01778350  0.14663475  1
  F  F130  1  0.08743050  0.80276625  0.30276625  1
  F  F131  1  0.51778350  0.14663475  0.35336525  1
  F  F132  1  0.98221650  0.14663475  0.14663475  1
  F  F133  1  0.10336525  0.10336525  0.26778350  1
  F  F134  1  0.05276625  0.94723375  0.33743050  1
  F  F135  1  0.64663475  0.01778350  0.35336525  1
  F  F136  1  0.10336525  0.26778350  0.10336525  1
  F  F137  1  0.35336525  0.85336525  0.48221650  1
  F  F138  1  0.23221650  0.10336525  0.39663475  1
  F  F139  1  0.08743050  0.69723375  0.19723375  1
  F  F140  1  0.55276625  0.33743050  0.44723375  1
  F  F141  1  0.83743050  0.05276625  0.44723375  1
  F  F142  1  0.14663475  0.98221650  0.14663475  1
  F  F143  1  0.89663475  0.73221650  0.10336525  1
  F  F144  1  0.73221650  0.89663475  0.10336525  1
  F  F145  1  0.30276625  0.80276625  0.08743050  1
  F  F146  1  0.76778350  0.89663475  0.39663475  1
  F  F147  1  0.44723375  0.66256950  0.44723375  1
  F  F148  1  0.66256950  0.05276625  0.05276625  1
  F  F149  1  0.30276625  0.91256950  0.19723375  1
  F  F150  1  0.48221650  0.85336525  0.35336525  1
  F  F151  1  0.39663475  0.10336525  0.23221650  1
  F  F152  1  0.19723375  0.91256950  0.30276625  1
  F  F153  1  0.64663475  0.14663475  0.48221650  1
  F  F154  1  0.41256950  0.30276625  0.69723375  1
  F  F155  1  0.01778350  0.35336525  0.64663475  1
  F  F156  1  0.19723375  0.08743050  0.69723375  1
  F  F157  1  0.33743050  0.44723375  0.55276625  1
  F  F158  1  0.60336525  0.23221650  0.89663475  1
  F  F159  1  0.19723375  0.30276625  0.91256950  1
  F  F160  1  0.55276625  0.55276625  0.66256950  1
  F  F161  1  0.30276625  0.08743050  0.80276625  1
  F  F162  1  0.25000000  0.25000000  0.75000000  1
  F  F163  1  0.14663475  0.35336525  0.51778350  1
  F  F164  1  0.35336525  0.48221650  0.85336525  1
  F  F165  1  0.30276625  0.19723375  0.91256950  1
  F  F166  1  0.44723375  0.44723375  0.66256950  1
  F  F167  1  0.60336525  0.39663475  0.73221650  1
  F  F168  1  0.89663475  0.39663475  0.76778350  1
  F  F169  1  0.39663475  0.76778350  0.89663475  1
  F  F170  1  0.16256950  0.44723375  0.94723375  1
  F  F171  1  0.26778350  0.60336525  0.60336525  1
  F  F172  1  0.05276625  0.16256950  0.55276625  1
  F  F173  1  0.94723375  0.55276625  0.83743050  1
  F  F174  1  0.85336525  0.64663475  0.51778350  1
  F  F175  1  0.00000000  0.50000000  0.00000000  1
  F  F176  1  0.94723375  0.83743050  0.55276625  1
  F  F177  1  0.41256950  0.19723375  0.80276625  1
  F  F178  1  0.19723375  0.19723375  0.58743050  1
  F  F179  1  0.85336525  0.51778350  0.64663475  1
  F  F180  1  0.08743050  0.30276625  0.80276625  1
  F  F181  1  0.51778350  0.64663475  0.85336525  1
  F  F182  1  0.98221650  0.64663475  0.64663475  1
  F  F183  1  0.10336525  0.60336525  0.76778350  1
  F  F184  1  0.05276625  0.44723375  0.83743050  1
  F  F185  1  0.64663475  0.51778350  0.85336525  1
  F  F186  1  0.10336525  0.76778350  0.60336525  1
  F  F187  1  0.35336525  0.35336525  0.98221650  1
  F  F188  1  0.23221650  0.60336525  0.89663475  1
  F  F189  1  0.08743050  0.19723375  0.69723375  1
  F  F190  1  0.55276625  0.83743050  0.94723375  1
  F  F191  1  0.83743050  0.55276625  0.94723375  1
  F  F192  1  0.14663475  0.48221650  0.64663475  1
  F  F193  1  0.89663475  0.23221650  0.60336525  1
  F  F194  1  0.73221650  0.39663475  0.60336525  1
  F  F195  1  0.30276625  0.30276625  0.58743050  1
  F  F196  1  0.76778350  0.39663475  0.89663475  1
  F  F197  1  0.44723375  0.16256950  0.94723375  1
  F  F198  1  0.66256950  0.55276625  0.55276625  1
  F  F199  1  0.30276625  0.41256950  0.69723375  1
  F  F200  1  0.48221650  0.35336525  0.85336525  1
  F  F201  1  0.39663475  0.60336525  0.73221650  1
  F  F202  1  0.19723375  0.41256950  0.80276625  1
  F  F203  1  0.64663475  0.64663475  0.98221650  1
  F  F204  1  0.91256950  0.80276625  0.69723375  1
  F  F205  1  0.51778350  0.85336525  0.64663475  1
  F  F206  1  0.69723375  0.58743050  0.69723375  1
  F  F207  1  0.83743050  0.94723375  0.55276625  1
  F  F208  1  0.10336525  0.73221650  0.89663475  1
  F  F209  1  0.69723375  0.80276625  0.91256950  1
  F  F210  1  0.05276625  0.05276625  0.66256950  1
  F  F211  1  0.80276625  0.58743050  0.80276625  1
  F  F212  1  0.75000000  0.75000000  0.75000000  1
  F  F213  1  0.64663475  0.85336525  0.51778350  1
  F  F214  1  0.85336525  0.98221650  0.85336525  1
  F  F215  1  0.80276625  0.69723375  0.91256950  1
  F  F216  1  0.94723375  0.94723375  0.66256950  1
  F  F217  1  0.10336525  0.89663475  0.73221650  1
  F  F218  1  0.39663475  0.89663475  0.76778350  1
  F  F219  1  0.89663475  0.26778350  0.89663475  1
  F  F220  1  0.66256950  0.94723375  0.94723375  1
  F  F221  1  0.76778350  0.10336525  0.60336525  1
  F  F222  1  0.55276625  0.66256950  0.55276625  1
  F  F223  1  0.44723375  0.05276625  0.83743050  1
  F  F224  1  0.35336525  0.14663475  0.51778350  1
  F  F225  1  0.50000000  0.00000000  0.00000000  1
  F  F226  1  0.44723375  0.33743050  0.55276625  1
  F  F227  1  0.91256950  0.69723375  0.80276625  1
  F  F228  1  0.69723375  0.69723375  0.58743050  1
  F  F229  1  0.35336525  0.01778350  0.64663475  1
  F  F230  1  0.58743050  0.80276625  0.80276625  1
  F  F231  1  0.01778350  0.14663475  0.85336525  1
  F  F232  1  0.48221650  0.14663475  0.64663475  1
  F  F233  1  0.60336525  0.10336525  0.76778350  1
  F  F234  1  0.55276625  0.94723375  0.83743050  1
  F  F235  1  0.14663475  0.01778350  0.85336525  1
  F  F236  1  0.60336525  0.26778350  0.60336525  1
  F  F237  1  0.85336525  0.85336525  0.98221650  1
  F  F238  1  0.73221650  0.10336525  0.89663475  1
  F  F239  1  0.58743050  0.69723375  0.69723375  1
  F  F240  1  0.05276625  0.33743050  0.94723375  1
  F  F241  1  0.33743050  0.05276625  0.94723375  1
  F  F242  1  0.64663475  0.98221650  0.64663475  1
  F  F243  1  0.39663475  0.73221650  0.60336525  1
  F  F244  1  0.23221650  0.89663475  0.60336525  1
  F  F245  1  0.80276625  0.80276625  0.58743050  1
  F  F246  1  0.26778350  0.89663475  0.89663475  1
  F  F247  1  0.94723375  0.66256950  0.94723375  1
  F  F248  1  0.16256950  0.05276625  0.55276625  1
  F  F249  1  0.80276625  0.91256950  0.69723375  1
  F  F250  1  0.98221650  0.85336525  0.85336525  1
  F  F251  1  0.89663475  0.10336525  0.73221650  1
  F  F252  1  0.69723375  0.91256950  0.80276625  1
  F  F253  1  0.14663475  0.14663475  0.98221650  1
  F  F254  1  0.91256950  0.30276625  0.19723375  1
  F  F255  1  0.51778350  0.35336525  0.14663475  1
  F  F256  1  0.69723375  0.08743050  0.19723375  1
  F  F257  1  0.83743050  0.44723375  0.05276625  1
  F  F258  1  0.10336525  0.23221650  0.39663475  1
  F  F259  1  0.69723375  0.30276625  0.41256950  1
  F  F260  1  0.05276625  0.55276625  0.16256950  1
  F  F261  1  0.80276625  0.08743050  0.30276625  1
  F  F262  1  0.75000000  0.25000000  0.25000000  1
  F  F263  1  0.64663475  0.35336525  0.01778350  1
  F  F264  1  0.85336525  0.48221650  0.35336525  1
  F  F265  1  0.80276625  0.19723375  0.41256950  1
  F  F266  1  0.94723375  0.44723375  0.16256950  1
  F  F267  1  0.10336525  0.39663475  0.23221650  1
  F  F268  1  0.39663475  0.39663475  0.26778350  1
  F  F269  1  0.89663475  0.76778350  0.39663475  1
  F  F270  1  0.66256950  0.44723375  0.44723375  1
  F  F271  1  0.76778350  0.60336525  0.10336525  1
  F  F272  1  0.55276625  0.16256950  0.05276625  1
  F  F273  1  0.44723375  0.55276625  0.33743050  1
  F  F274  1  0.35336525  0.64663475  0.01778350  1
  F  F275  1  0.50000000  0.50000000  0.50000000  1
  F  F276  1  0.44723375  0.83743050  0.05276625  1
  F  F277  1  0.91256950  0.19723375  0.30276625  1
  F  F278  1  0.69723375  0.19723375  0.08743050  1
  F  F279  1  0.35336525  0.51778350  0.14663475  1
  F  F280  1  0.58743050  0.30276625  0.30276625  1
  F  F281  1  0.01778350  0.64663475  0.35336525  1
  F  F282  1  0.48221650  0.64663475  0.14663475  1
  F  F283  1  0.60336525  0.60336525  0.26778350  1
  F  F284  1  0.55276625  0.44723375  0.33743050  1
  F  F285  1  0.14663475  0.51778350  0.35336525  1
  F  F286  1  0.60336525  0.76778350  0.10336525  1
  F  F287  1  0.85336525  0.35336525  0.48221650  1
  F  F288  1  0.73221650  0.60336525  0.39663475  1
  F  F289  1  0.58743050  0.19723375  0.19723375  1
  F  F290  1  0.05276625  0.83743050  0.44723375  1
  F  F291  1  0.33743050  0.55276625  0.44723375  1
  F  F292  1  0.64663475  0.48221650  0.14663475  1
  F  F293  1  0.39663475  0.23221650  0.10336525  1
  F  F294  1  0.23221650  0.39663475  0.10336525  1
  F  F295  1  0.80276625  0.30276625  0.08743050  1
  F  F296  1  0.26778350  0.39663475  0.39663475  1
  F  F297  1  0.94723375  0.16256950  0.44723375  1
  F  F298  1  0.16256950  0.55276625  0.05276625  1
  F  F299  1  0.80276625  0.41256950  0.19723375  1
  F  F300  1  0.98221650  0.35336525  0.35336525  1
  F  F301  1  0.89663475  0.60336525  0.23221650  1
  F  F302  1  0.69723375  0.41256950  0.30276625  1
  F  F303  1  0.14663475  0.64663475  0.48221650  1
