# generated using pymatgen
data_KNb5O13
_symmetry_space_group_name_H-M   'P 1'
_cell_length_a   5.79959400
_cell_length_b   10.95673700
_cell_length_c   17.07994900
_cell_angle_alpha   90.00000000
_cell_angle_beta   90.00000000
_cell_angle_gamma   90.00000000
_symmetry_Int_Tables_number   1
_chemical_formula_structural   KNb5O13
_chemical_formula_sum   'K4 Nb20 O52'
_cell_volume   1085.33897412
_cell_formula_units_Z   4
loop_
 _symmetry_equiv_pos_site_id
 _symmetry_equiv_pos_as_xyz
  1  'x, y, z'
loop_
 _atom_site_type_symbol
 _atom_site_label
 _atom_site_symmetry_multiplicity
 _atom_site_fract_x
 _atom_site_fract_y
 _atom_site_fract_z
 _atom_site_occupancy
  K  K0  1  0.78846900  0.32581300  0.25000000  1
  K  K1  1  0.21153100  0.67418700  0.75000000  1
  K  K2  1  0.21153100  0.82581300  0.25000000  1
  K  K3  1  0.78846900  0.17418700  0.75000000  1
  Nb  Nb4  1  0.83189800  0.93523100  0.07631900  1
  Nb  Nb5  1  0.33999800  0.13304900  0.13684000  1
  Nb  Nb6  1  0.33999800  0.36695100  0.86316000  1
  Nb  Nb7  1  0.83189800  0.93523100  0.42368100  1
  Nb  Nb8  1  0.16810200  0.06476900  0.92368100  1
  Nb  Nb9  1  0.83189800  0.56476900  0.57631900  1
  Nb  Nb10  1  0.66000200  0.63304900  0.36316000  1
  Nb  Nb11  1  0.83189800  0.56476900  0.92368100  1
  Nb  Nb12  1  0.66000200  0.63304900  0.13684000  1
  Nb  Nb13  1  0.33999800  0.13304900  0.36316000  1
  Nb  Nb14  1  0.16810200  0.06476900  0.57631900  1
  Nb  Nb15  1  0.32309000  0.75000000  0.50000000  1
  Nb  Nb16  1  0.16810200  0.43523100  0.42368100  1
  Nb  Nb17  1  0.32309000  0.75000000  0.00000000  1
  Nb  Nb18  1  0.67691000  0.25000000  0.00000000  1
  Nb  Nb19  1  0.33999800  0.36695100  0.63684000  1
  Nb  Nb20  1  0.16810200  0.43523100  0.07631900  1
  Nb  Nb21  1  0.67691000  0.25000000  0.50000000  1
  Nb  Nb22  1  0.66000200  0.86695100  0.63684000  1
  Nb  Nb23  1  0.66000200  0.86695100  0.86316000  1
  O  O24  1  0.13183900  0.28334900  0.12795000  1
  O  O25  1  0.59331800  0.25199800  0.39009800  1
  O  O26  1  0.40758900  0.99423200  0.63554600  1
  O  O27  1  0.90915100  0.98204800  0.86471400  1
  O  O28  1  0.90915100  0.51795200  0.36471400  1
  O  O29  1  0.35440100  0.12343300  0.48753900  1
  O  O30  1  0.12916600  0.60764700  0.49629600  1
  O  O31  1  0.12916600  0.89235300  0.99629600  1
  O  O32  1  0.35440100  0.37656700  0.98753900  1
  O  O33  1  0.36696500  0.34741500  0.75000000  1
  O  O34  1  0.59331800  0.24800200  0.89009800  1
  O  O35  1  0.09084900  0.01795200  0.13528600  1
  O  O36  1  0.59331800  0.25199800  0.10990200  1
  O  O37  1  0.12916600  0.60764700  0.00370400  1
  O  O38  1  0.40668200  0.75199800  0.10990200  1
  O  O39  1  0.40758900  0.50576800  0.36445400  1
  O  O40  1  0.63303500  0.65258500  0.25000000  1
  O  O41  1  0.13183900  0.21665100  0.62795000  1
  O  O42  1  0.59241100  0.49423200  0.86445400  1
  O  O43  1  0.40668200  0.75199800  0.39009800  1
  O  O44  1  0.09084900  0.48204800  0.86471400  1
  O  O45  1  0.64559900  0.62343300  0.48753900  1
  O  O46  1  0.64559900  0.87656700  0.51246100  1
  O  O47  1  0.13183900  0.21665100  0.87205000  1
  O  O48  1  0.63303500  0.84741500  0.75000000  1
  O  O49  1  0.40758900  0.50576800  0.13554600  1
  O  O50  1  0.87083400  0.10764700  0.49629600  1
  O  O51  1  0.40668200  0.74800200  0.60990200  1
  O  O52  1  0.90915100  0.51795200  0.13528600  1
  O  O53  1  0.40758900  0.99423200  0.86445400  1
  O  O54  1  0.59241100  0.49423200  0.63554600  1
  O  O55  1  0.09084900  0.01795200  0.36471400  1
  O  O56  1  0.87083400  0.39235300  0.50370400  1
  O  O57  1  0.40668200  0.74800200  0.89009800  1
  O  O58  1  0.64559900  0.87656700  0.98753900  1
  O  O59  1  0.09084900  0.48204800  0.63528600  1
  O  O60  1  0.36696500  0.15258500  0.25000000  1
  O  O61  1  0.35440100  0.37656700  0.51246100  1
  O  O62  1  0.59331800  0.24800200  0.60990200  1
  O  O63  1  0.12916600  0.89235300  0.50370400  1
  O  O64  1  0.64559900  0.62343300  0.01246100  1
  O  O65  1  0.59241100  0.00576800  0.36445400  1
  O  O66  1  0.87083400  0.39235300  0.99629600  1
  O  O67  1  0.87083400  0.10764700  0.00370400  1
  O  O68  1  0.59241100  0.00576800  0.13554600  1
  O  O69  1  0.86816100  0.78334900  0.37205000  1
  O  O70  1  0.86816100  0.78334900  0.12795000  1
  O  O71  1  0.90915100  0.98204800  0.63528600  1
  O  O72  1  0.86816100  0.71665100  0.87205000  1
  O  O73  1  0.13183900  0.28334900  0.37205000  1
  O  O74  1  0.86816100  0.71665100  0.62795000  1
  O  O75  1  0.35440100  0.12343300  0.01246100  1
