# generated using pymatgen
data_AsC3N3F8
_symmetry_space_group_name_H-M   'P 1'
_cell_length_a   13.26321400
_cell_length_b   10.33680000
_cell_length_c   13.88780435
_cell_angle_alpha   90.00000000
_cell_angle_beta   115.31932541
_cell_angle_gamma   90.00000000
_symmetry_Int_Tables_number   1
_chemical_formula_structural   AsC3N3F8
_chemical_formula_sum   'As8 C24 N24 F64'
_cell_volume   1721.10471235
_cell_formula_units_Z   8
loop_
 _symmetry_equiv_pos_site_id
 _symmetry_equiv_pos_as_xyz
  1  'x, y, z'
loop_
 _atom_site_type_symbol
 _atom_site_label
 _atom_site_symmetry_multiplicity
 _atom_site_fract_x
 _atom_site_fract_y
 _atom_site_fract_z
 _atom_site_occupancy
  As  As0  1  0.03736050  0.77267750  0.44330100  1
  As  As1  1  0.46263950  0.27267750  0.05669900  1
  As  As2  1  0.03736050  0.22732250  0.94330100  1
  As  As3  1  0.46263950  0.72732250  0.55669900  1
  As  As4  1  0.53736050  0.27267750  0.44330100  1
  As  As5  1  0.96263950  0.77267750  0.05669900  1
  As  As6  1  0.53736050  0.72732250  0.94330100  1
  As  As7  1  0.96263950  0.22732250  0.55669900  1
  C  C8  1  0.79794250  0.99629750  0.52834700  1
  C  C9  1  0.78633450  0.06377850  0.36908600  1
  C  C10  1  0.68740750  0.89759450  0.37966700  1
  C  C11  1  0.70205750  0.50370250  0.47165300  1
  C  C12  1  0.81259250  0.60240550  0.62033300  1
  C  C13  1  0.18740750  0.60240550  0.87966700  1
  C  C14  1  0.70205750  0.49629750  0.97165300  1
  C  C15  1  0.21366550  0.06377850  0.13091400  1
  C  C16  1  0.71366550  0.43622150  0.63091400  1
  C  C17  1  0.28633450  0.43622150  0.86908600  1
  C  C18  1  0.31259250  0.89759450  0.12033300  1
  C  C19  1  0.79794250  0.00370250  0.02834700  1
  C  C20  1  0.29794250  0.49629750  0.52834700  1
  C  C21  1  0.28633450  0.56377850  0.36908600  1
  C  C22  1  0.18740750  0.39759450  0.37966700  1
  C  C23  1  0.20205750  0.00370250  0.47165300  1
  C  C24  1  0.31259250  0.10240550  0.62033300  1
  C  C25  1  0.68740750  0.10240550  0.87966700  1
  C  C26  1  0.20205750  0.99629750  0.97165300  1
  C  C27  1  0.71366550  0.56377850  0.13091400  1
  C  C28  1  0.21366550  0.93622150  0.63091400  1
  C  C29  1  0.78633450  0.93622150  0.86908600  1
  C  C30  1  0.81259250  0.39759450  0.12033300  1
  C  C31  1  0.29794250  0.50370250  0.02834700  1
  N  N32  1  0.16519100  0.08159500  0.02402700  1
  N  N33  1  0.78595950  0.52659750  0.68297600  1
  N  N34  1  0.71404050  0.97340250  0.31702400  1
  N  N35  1  0.21404050  0.52659750  0.81702400  1
  N  N36  1  0.66519100  0.41840500  0.52402700  1
  N  N37  1  0.77475650  0.59674650  0.51534400  1
  N  N38  1  0.22524350  0.59674650  0.98465600  1
  N  N39  1  0.33480900  0.41840500  0.97597300  1
  N  N40  1  0.72524350  0.90325350  0.48465600  1
  N  N41  1  0.28595950  0.97340250  0.18297600  1
  N  N42  1  0.27475650  0.90325350  0.01534400  1
  N  N43  1  0.83480900  0.08159500  0.47597300  1
  N  N44  1  0.66519100  0.58159500  0.02402700  1
  N  N45  1  0.28595950  0.02659750  0.68297600  1
  N  N46  1  0.21404050  0.47340250  0.31702400  1
  N  N47  1  0.71404050  0.02659750  0.81702400  1
  N  N48  1  0.16519100  0.91840500  0.52402700  1
  N  N49  1  0.27475650  0.09674650  0.51534400  1
  N  N50  1  0.72524350  0.09674650  0.98465600  1
  N  N51  1  0.83480900  0.91840500  0.97597300  1
  N  N52  1  0.22524350  0.40325350  0.48465600  1
  N  N53  1  0.78595950  0.47340250  0.18297600  1
  N  N54  1  0.77475650  0.40325350  0.01534400  1
  N  N55  1  0.33480900  0.58159500  0.47597300  1
  F  F56  1  0.96521250  0.89803050  0.35539400  1
  F  F57  1  0.87548900  0.66442700  0.95868600  1
  F  F58  1  0.11513950  0.69574050  0.83152400  1
  F  F59  1  0.38486050  0.80425950  0.16847600  1
  F  F60  1  0.84019500  0.00720800  0.63224000  1
  F  F61  1  0.11226350  0.26209850  0.86808600  1
  F  F62  1  0.61513950  0.80425950  0.33152400  1
  F  F63  1  0.61226350  0.23790150  0.36808600  1
  F  F64  1  0.02243750  0.82301450  0.97181900  1
  F  F65  1  0.03478750  0.89803050  0.14460600  1
  F  F66  1  0.65980500  0.50720800  0.86776000  1
  F  F67  1  0.53478750  0.60196950  0.64460600  1
  F  F68  1  0.65980500  0.49279200  0.36776000  1
  F  F69  1  0.38773650  0.23790150  0.13191400  1
  F  F70  1  0.88773650  0.26209850  0.63191400  1
  F  F71  1  0.47756250  0.67698550  0.02818100  1
  F  F72  1  0.46521250  0.60196950  0.85539400  1
  F  F73  1  0.84019500  0.99279200  0.13224000  1
  F  F74  1  0.52243750  0.67698550  0.47181900  1
  F  F75  1  0.97756250  0.82301450  0.52818100  1
  F  F76  1  0.88486050  0.69574050  0.66847600  1
  F  F77  1  0.93524350  0.34282950  0.87887600  1
  F  F78  1  0.12451100  0.66442700  0.54131400  1
  F  F79  1  0.81557600  0.14430900  0.31260900  1
  F  F80  1  0.93524350  0.65717050  0.37887600  1
  F  F81  1  0.68442400  0.64430900  0.18739100  1
  F  F82  1  0.56475650  0.84282950  0.62112400  1
  F  F83  1  0.37548900  0.83557300  0.45868600  1
  F  F84  1  0.81557600  0.85569100  0.81260900  1
  F  F85  1  0.68442400  0.35569100  0.68739100  1
  F  F86  1  0.62451100  0.83557300  0.04131400  1
  F  F87  1  0.56475650  0.15717050  0.12112400  1
  F  F88  1  0.46521250  0.39803050  0.35539400  1
  F  F89  1  0.37548900  0.16442700  0.95868600  1
  F  F90  1  0.61513950  0.19574050  0.83152400  1
  F  F91  1  0.88486050  0.30425950  0.16847600  1
  F  F92  1  0.34019500  0.50720800  0.63224000  1
  F  F93  1  0.61226350  0.76209850  0.86808600  1
  F  F94  1  0.11513950  0.30425950  0.33152400  1
  F  F95  1  0.11226350  0.73790150  0.36808600  1
  F  F96  1  0.52243750  0.32301450  0.97181900  1
  F  F97  1  0.53478750  0.39803050  0.14460600  1
  F  F98  1  0.15980500  0.00720800  0.86776000  1
  F  F99  1  0.03478750  0.10196950  0.64460600  1
  F  F100  1  0.15980500  0.99279200  0.36776000  1
  F  F101  1  0.88773650  0.73790150  0.13191400  1
  F  F102  1  0.38773650  0.76209850  0.63191400  1
  F  F103  1  0.97756250  0.17698550  0.02818100  1
  F  F104  1  0.96521250  0.10196950  0.85539400  1
  F  F105  1  0.34019500  0.49279200  0.13224000  1
  F  F106  1  0.02243750  0.17698550  0.47181900  1
  F  F107  1  0.47756250  0.32301450  0.52818100  1
  F  F108  1  0.38486050  0.19574050  0.66847600  1
  F  F109  1  0.43524350  0.84282950  0.87887600  1
  F  F110  1  0.62451100  0.16442700  0.54131400  1
  F  F111  1  0.31557600  0.64430900  0.31260900  1
  F  F112  1  0.43524350  0.15717050  0.37887600  1
  F  F113  1  0.18442400  0.14430900  0.18739100  1
  F  F114  1  0.06475650  0.34282950  0.62112400  1
  F  F115  1  0.87548900  0.33557300  0.45868600  1
  F  F116  1  0.31557600  0.35569100  0.81260900  1
  F  F117  1  0.18442400  0.85569100  0.68739100  1
  F  F118  1  0.12451100  0.33557300  0.04131400  1
  F  F119  1  0.06475650  0.65717050  0.12112400  1
