# generated using pymatgen
data_NaZr2MnF11
_symmetry_space_group_name_H-M   'P 1'
_cell_length_a   9.36794800
_cell_length_b   6.92981800
_cell_length_c   7.94626800
_cell_angle_alpha   90.00000000
_cell_angle_beta   116.06473688
_cell_angle_gamma   90.00000000
_symmetry_Int_Tables_number   1
_chemical_formula_structural   NaZr2MnF11
_chemical_formula_sum   'Na2 Zr4 Mn2 F22'
_cell_volume   463.39359116
_cell_formula_units_Z   2
loop_
 _symmetry_equiv_pos_site_id
 _symmetry_equiv_pos_as_xyz
  1  'x, y, z'
loop_
 _atom_site_type_symbol
 _atom_site_label
 _atom_site_symmetry_multiplicity
 _atom_site_fract_x
 _atom_site_fract_y
 _atom_site_fract_z
 _atom_site_occupancy
  Na  Na0  1  0.00000000  0.00000000  0.00000000  1
  Na  Na1  1  0.50000000  0.50000000  0.00000000  1
  Zr  Zr2  1  0.99739600  0.50000000  0.76664300  1
  Zr  Zr3  1  0.00260400  0.50000000  0.23335700  1
  Zr  Zr4  1  0.49739600  0.00000000  0.76664300  1
  Zr  Zr5  1  0.50260400  0.00000000  0.23335700  1
  Mn  Mn6  1  0.00000000  0.00000000  0.50000000  1
  Mn  Mn7  1  0.50000000  0.50000000  0.50000000  1
  F  F8  1  0.98773400  0.79025700  0.69336400  1
  F  F9  1  0.01226600  0.79025700  0.30663600  1
  F  F10  1  0.01226600  0.20974300  0.30663600  1
  F  F11  1  0.98773400  0.20974300  0.69336400  1
  F  F12  1  0.00000000  0.50000000  0.50000000  1
  F  F13  1  0.00000000  0.33101400  0.00000000  1
  F  F14  1  0.00000000  0.66898600  0.00000000  1
  F  F15  1  0.24626900  0.50000000  0.35079300  1
  F  F16  1  0.75373100  0.50000000  0.64920700  1
  F  F17  1  0.23352400  0.50000000  0.89092000  1
  F  F18  1  0.76647600  0.50000000  0.10908000  1
  F  F19  1  0.48773400  0.29025700  0.69336400  1
  F  F20  1  0.51226600  0.29025700  0.30663600  1
  F  F21  1  0.51226600  0.70974300  0.30663600  1
  F  F22  1  0.48773400  0.70974300  0.69336400  1
  F  F23  1  0.50000000  0.00000000  0.50000000  1
  F  F24  1  0.50000000  0.83101400  0.00000000  1
  F  F25  1  0.50000000  0.16898600  0.00000000  1
  F  F26  1  0.74626900  0.00000000  0.35079300  1
  F  F27  1  0.25373100  0.00000000  0.64920700  1
  F  F28  1  0.73352400  0.00000000  0.89092000  1
  F  F29  1  0.26647600  0.00000000  0.10908000  1
