# generated using pymatgen
data_Cu2BH5O6
_symmetry_space_group_name_H-M   'P 1'
_cell_length_a   5.92000000
_cell_length_b   8.83074500
_cell_length_c   9.50155600
_cell_angle_alpha   90.00000000
_cell_angle_beta   90.00000000
_cell_angle_gamma   90.00000000
_symmetry_Int_Tables_number   1
_chemical_formula_structural   Cu2BH5O6
_chemical_formula_sum   'Cu8 B4 H20 O24'
_cell_volume   496.72244338
_cell_formula_units_Z   4
loop_
 _symmetry_equiv_pos_site_id
 _symmetry_equiv_pos_as_xyz
  1  'x, y, z'
loop_
 _atom_site_type_symbol
 _atom_site_label
 _atom_site_symmetry_multiplicity
 _atom_site_fract_x
 _atom_site_fract_y
 _atom_site_fract_z
 _atom_site_occupancy
  Cu  Cu0  1  0.99899400  0.42330400  0.24865500  1
  Cu  Cu1  1  0.00100600  0.92330400  0.25134500  1
  Cu  Cu2  1  0.49899400  0.57669600  0.75134500  1
  Cu  Cu3  1  0.50100600  0.07669600  0.74865500  1
  Cu  Cu4  1  0.49899400  0.92330400  0.25134500  1
  Cu  Cu5  1  0.50100600  0.42330400  0.24865500  1
  Cu  Cu6  1  0.99899400  0.07669600  0.74865500  1
  Cu  Cu7  1  0.00100600  0.57669600  0.75134500  1
  B  B8  1  0.25000000  0.16945700  0.00706800  1
  B  B9  1  0.75000000  0.83054300  0.99293200  1
  B  B10  1  0.25000000  0.33054300  0.50706800  1
  B  B11  1  0.75000000  0.66945700  0.49293200  1
  H  H12  1  0.92285900  0.17255100  0.01385800  1
  H  H13  1  0.75000000  0.01151100  0.45068400  1
  H  H14  1  0.42285900  0.67255100  0.48614200  1
  H  H15  1  0.42285900  0.82744900  0.98614200  1
  H  H16  1  0.75000000  0.21603300  0.34344200  1
  H  H17  1  0.75000000  0.28396700  0.84344200  1
  H  H18  1  0.57714100  0.17255100  0.01385800  1
  H  H19  1  0.25000000  0.38416300  0.84839900  1
  H  H20  1  0.25000000  0.11583700  0.34839900  1
  H  H21  1  0.75000000  0.48848900  0.95068400  1
  H  H22  1  0.25000000  0.71603300  0.15655800  1
  H  H23  1  0.75000000  0.88416300  0.65160100  1
  H  H24  1  0.57714100  0.32744900  0.51385800  1
  H  H25  1  0.25000000  0.98848900  0.54931600  1
  H  H26  1  0.92285900  0.32744900  0.51385800  1
  H  H27  1  0.25000000  0.78396700  0.65655800  1
  H  H28  1  0.07714100  0.82744900  0.98614200  1
  H  H29  1  0.75000000  0.61583700  0.15160100  1
  H  H30  1  0.25000000  0.51151100  0.04931600  1
  H  H31  1  0.07714100  0.67255100  0.48614200  1
  O  O32  1  0.25000000  0.52826000  0.15353800  1
  O  O33  1  0.25000000  0.33860000  0.36267600  1
  O  O34  1  0.75000000  0.17080300  0.86204300  1
  O  O35  1  0.25000000  0.00556300  0.36557800  1
  O  O36  1  0.05007500  0.17617800  0.08246500  1
  O  O37  1  0.75000000  0.50556300  0.13442200  1
  O  O38  1  0.25000000  0.16140000  0.86267600  1
  O  O39  1  0.94992500  0.67617800  0.41753500  1
  O  O40  1  0.05007500  0.32382200  0.58246500  1
  O  O41  1  0.55007500  0.67617800  0.41753500  1
  O  O42  1  0.75000000  0.47174000  0.84646200  1
  O  O43  1  0.44992500  0.17617800  0.08246500  1
  O  O44  1  0.94992500  0.82382200  0.91753500  1
  O  O45  1  0.25000000  0.67080300  0.63795700  1
  O  O46  1  0.75000000  0.99443700  0.63442200  1
  O  O47  1  0.25000000  0.82919700  0.13795700  1
  O  O48  1  0.75000000  0.83860000  0.13732400  1
  O  O49  1  0.44992500  0.32382200  0.58246500  1
  O  O50  1  0.25000000  0.97174000  0.65353800  1
  O  O51  1  0.75000000  0.02826000  0.34646200  1
  O  O52  1  0.25000000  0.49443700  0.86557800  1
  O  O53  1  0.75000000  0.32919700  0.36204300  1
  O  O54  1  0.55007500  0.82382200  0.91753500  1
  O  O55  1  0.75000000  0.66140000  0.63732400  1
