# generated using pymatgen
data_SrSm2Nb2O9
_symmetry_space_group_name_H-M   'P 1'
_cell_length_a   5.60580800
_cell_length_b   25.30117800
_cell_length_c   5.66322500
_cell_angle_alpha   90.00000000
_cell_angle_beta   90.00000000
_cell_angle_gamma   90.00000000
_symmetry_Int_Tables_number   1
_chemical_formula_structural   SrSm2Nb2O9
_chemical_formula_sum   'Sr4 Sm8 Nb8 O36'
_cell_volume   803.23528378
_cell_formula_units_Z   4
loop_
 _symmetry_equiv_pos_site_id
 _symmetry_equiv_pos_as_xyz
  1  'x, y, z'
loop_
 _atom_site_type_symbol
 _atom_site_label
 _atom_site_symmetry_multiplicity
 _atom_site_fract_x
 _atom_site_fract_y
 _atom_site_fract_z
 _atom_site_occupancy
  Sr  Sr0  1  0.24776500  0.00000000  0.12465800  1
  Sr  Sr1  1  0.75223500  0.00000000  0.62465800  1
  Sr  Sr2  1  0.74776500  0.50000000  0.12465800  1
  Sr  Sr3  1  0.25223500  0.50000000  0.62465800  1
  Sm  Sm4  1  0.78438300  0.79516000  0.48618100  1
  Sm  Sm5  1  0.71561700  0.70484000  0.98618100  1
  Sm  Sm6  1  0.21561700  0.79516000  0.98618100  1
  Sm  Sm7  1  0.28438300  0.70484000  0.48618100  1
  Sm  Sm8  1  0.28438300  0.29516000  0.48618100  1
  Sm  Sm9  1  0.21561700  0.20484000  0.98618100  1
  Sm  Sm10  1  0.71561700  0.29516000  0.98618100  1
  Sm  Sm11  1  0.78438300  0.20484000  0.48618100  1
  Nb  Nb12  1  0.74629800  0.58385800  0.60967400  1
  Nb  Nb13  1  0.75370200  0.91614200  0.10967400  1
  Nb  Nb14  1  0.25370200  0.58385800  0.10967400  1
  Nb  Nb15  1  0.24629800  0.91614200  0.60967400  1
  Nb  Nb16  1  0.24629800  0.08385800  0.60967400  1
  Nb  Nb17  1  0.25370200  0.41614200  0.10967400  1
  Nb  Nb18  1  0.75370200  0.08385800  0.10967400  1
  Nb  Nb19  1  0.74629800  0.41614200  0.60967400  1
  O  O20  1  0.31102900  0.00000000  0.58339900  1
  O  O21  1  0.68897100  0.00000000  0.08339900  1
  O  O22  1  0.63972450  0.65477950  0.61273600  1
  O  O23  1  0.86027550  0.84522050  0.11273600  1
  O  O24  1  0.36027550  0.65477950  0.11273600  1
  O  O25  1  0.13972450  0.84522050  0.61273600  1
  O  O26  1  0.99583650  0.74112150  0.24452500  1
  O  O27  1  0.50416350  0.75887850  0.74452500  1
  O  O28  1  0.00416350  0.74112150  0.74452500  1
  O  O29  1  0.49583650  0.75887850  0.24452500  1
  O  O30  1  0.47831550  0.56419150  0.36325100  1
  O  O31  1  0.02168450  0.93580850  0.86325100  1
  O  O32  1  0.52168450  0.56419150  0.86325100  1
  O  O33  1  0.97831550  0.93580850  0.36325100  1
  O  O34  1  0.47466150  0.90947650  0.31466100  1
  O  O35  1  0.02533850  0.59052350  0.81466100  1
  O  O36  1  0.52533850  0.90947650  0.81466100  1
  O  O37  1  0.97466150  0.59052350  0.31466100  1
  O  O38  1  0.81102900  0.50000000  0.58339900  1
  O  O39  1  0.18897100  0.50000000  0.08339900  1
  O  O40  1  0.13972450  0.15477950  0.61273600  1
  O  O41  1  0.36027550  0.34522050  0.11273600  1
  O  O42  1  0.86027550  0.15477950  0.11273600  1
  O  O43  1  0.63972450  0.34522050  0.61273600  1
  O  O44  1  0.49583650  0.24112150  0.24452500  1
  O  O45  1  0.00416350  0.25887850  0.74452500  1
  O  O46  1  0.50416350  0.24112150  0.74452500  1
  O  O47  1  0.99583650  0.25887850  0.24452500  1
  O  O48  1  0.97831550  0.06419150  0.36325100  1
  O  O49  1  0.52168450  0.43580850  0.86325100  1
  O  O50  1  0.02168450  0.06419150  0.86325100  1
  O  O51  1  0.47831550  0.43580850  0.36325100  1
  O  O52  1  0.97466150  0.40947650  0.31466100  1
  O  O53  1  0.52533850  0.09052350  0.81466100  1
  O  O54  1  0.02533850  0.40947650  0.81466100  1
  O  O55  1  0.47466150  0.09052350  0.31466100  1
