# generated using pymatgen
data_Nd5Te2Cl3O10
_symmetry_space_group_name_H-M   'P 1'
_cell_length_a   12.81552200
_cell_length_b   5.70832200
_cell_length_c   10.24414050
_cell_angle_alpha   90.00000000
_cell_angle_beta   90.35125004
_cell_angle_gamma   90.00000000
_symmetry_Int_Tables_number   1
_chemical_formula_structural   Nd5Te2Cl3O10
_chemical_formula_sum   'Nd10 Te4 Cl6 O20'
_cell_volume   749.39730846
_cell_formula_units_Z   2
loop_
 _symmetry_equiv_pos_site_id
 _symmetry_equiv_pos_as_xyz
  1  'x, y, z'
loop_
 _atom_site_type_symbol
 _atom_site_label
 _atom_site_symmetry_multiplicity
 _atom_site_fract_x
 _atom_site_fract_y
 _atom_site_fract_z
 _atom_site_occupancy
  Nd  Nd0  1  0.89734200  0.50000000  0.76856600  1
  Nd  Nd1  1  0.70953600  0.00000000  0.89540700  1
  Nd  Nd2  1  0.60265800  0.00000000  0.23143400  1
  Nd  Nd3  1  0.79046400  0.50000000  0.10459300  1
  Nd  Nd4  1  0.00000000  0.00000000  0.00000000  1
  Nd  Nd5  1  0.39734200  0.00000000  0.76856600  1
  Nd  Nd6  1  0.20953600  0.50000000  0.89540700  1
  Nd  Nd7  1  0.10265800  0.50000000  0.23143400  1
  Nd  Nd8  1  0.29046400  0.00000000  0.10459300  1
  Nd  Nd9  1  0.50000000  0.50000000  0.00000000  1
  Te  Te10  1  0.91633100  0.00000000  0.32776900  1
  Te  Te11  1  0.58366900  0.50000000  0.67223100  1
  Te  Te12  1  0.41633100  0.50000000  0.32776900  1
  Te  Te13  1  0.08366900  0.00000000  0.67223100  1
  Cl  Cl14  1  0.83689100  0.00000000  0.64867900  1
  Cl  Cl15  1  0.66310900  0.50000000  0.35132100  1
  Cl  Cl16  1  0.00000000  0.50000000  0.50000000  1
  Cl  Cl17  1  0.33689100  0.50000000  0.64867900  1
  Cl  Cl18  1  0.16310900  0.00000000  0.35132100  1
  Cl  Cl19  1  0.50000000  0.00000000  0.50000000  1
  O  O20  1  0.64603550  0.75337750  0.05792000  1
  O  O21  1  0.85396450  0.25337750  0.94208000  1
  O  O22  1  0.55062300  0.74260500  0.79595400  1
  O  O23  1  0.64603550  0.24662250  0.05792000  1
  O  O24  1  0.94937700  0.24260500  0.20404600  1
  O  O25  1  0.85396450  0.74662250  0.94208000  1
  O  O26  1  0.55062300  0.25739500  0.79595400  1
  O  O27  1  0.72421900  0.50000000  0.71822400  1
  O  O28  1  0.94937700  0.75739500  0.20404600  1
  O  O29  1  0.77578100  0.00000000  0.28177600  1
  O  O30  1  0.14603550  0.25337750  0.05792000  1
  O  O31  1  0.35396450  0.75337750  0.94208000  1
  O  O32  1  0.05062300  0.24260500  0.79595400  1
  O  O33  1  0.14603550  0.74662250  0.05792000  1
  O  O34  1  0.44937700  0.74260500  0.20404600  1
  O  O35  1  0.35396450  0.24662250  0.94208000  1
  O  O36  1  0.05062300  0.75739500  0.79595400  1
  O  O37  1  0.22421900  0.00000000  0.71822400  1
  O  O38  1  0.44937700  0.25739500  0.20404600  1
  O  O39  1  0.27578100  0.50000000  0.28177600  1
