# generated using pymatgen
data_Sr3Fe2Cu2S2O5
_symmetry_space_group_name_H-M   'P 1'
_cell_length_a   3.96520600
_cell_length_b   3.96520600
_cell_length_c   26.65834200
_cell_angle_alpha   90.00000000
_cell_angle_beta   90.00000000
_cell_angle_gamma   90.00000000
_symmetry_Int_Tables_number   1
_chemical_formula_structural   Sr3Fe2Cu2S2O5
_chemical_formula_sum   'Sr6 Fe4 Cu4 S4 O10'
_cell_volume   419.14534237
_cell_formula_units_Z   2
loop_
 _symmetry_equiv_pos_site_id
 _symmetry_equiv_pos_as_xyz
  1  'x, y, z'
loop_
 _atom_site_type_symbol
 _atom_site_label
 _atom_site_symmetry_multiplicity
 _atom_site_fract_x
 _atom_site_fract_y
 _atom_site_fract_z
 _atom_site_occupancy
  Sr  Sr0  1  0.50000000  0.50000000  0.00000000  1
  Sr  Sr1  1  0.50000000  0.50000000  0.14231600  1
  Sr  Sr2  1  0.00000000  0.00000000  0.35768400  1
  Sr  Sr3  1  0.00000000  0.00000000  0.50000000  1
  Sr  Sr4  1  0.00000000  0.00000000  0.64231600  1
  Sr  Sr5  1  0.50000000  0.50000000  0.85768400  1
  Fe  Fe6  1  0.00000000  0.00000000  0.07228600  1
  Fe  Fe7  1  0.50000000  0.50000000  0.42771400  1
  Fe  Fe8  1  0.50000000  0.50000000  0.57228600  1
  Fe  Fe9  1  0.00000000  0.00000000  0.92771400  1
  Cu  Cu10  1  0.00000000  0.50000000  0.25000000  1
  Cu  Cu11  1  0.50000000  0.00000000  0.25000000  1
  Cu  Cu12  1  0.50000000  0.00000000  0.75000000  1
  Cu  Cu13  1  0.00000000  0.50000000  0.75000000  1
  S  S14  1  0.00000000  0.00000000  0.19783100  1
  S  S15  1  0.50000000  0.50000000  0.30216900  1
  S  S16  1  0.50000000  0.50000000  0.69783100  1
  S  S17  1  0.00000000  0.00000000  0.80216900  1
  O  O18  1  0.00000000  0.50000000  0.08276000  1
  O  O19  1  0.50000000  0.00000000  0.08276000  1
  O  O20  1  0.50000000  0.00000000  0.41724000  1
  O  O21  1  0.00000000  0.50000000  0.41724000  1
  O  O22  1  0.00000000  0.00000000  0.00000000  1
  O  O23  1  0.50000000  0.00000000  0.58276000  1
  O  O24  1  0.00000000  0.50000000  0.58276000  1
  O  O25  1  0.00000000  0.50000000  0.91724000  1
  O  O26  1  0.50000000  0.00000000  0.91724000  1
  O  O27  1  0.50000000  0.50000000  0.50000000  1
