# generated using pymatgen
data_Ba2V(CuS2)3
_symmetry_space_group_name_H-M   'P 1'
_cell_length_a   15.21452600
_cell_length_b   8.98209000
_cell_length_c   10.75884389
_cell_angle_alpha   90.00000000
_cell_angle_beta   133.36270949
_cell_angle_gamma   90.00000000
_symmetry_Int_Tables_number   1
_chemical_formula_structural   Ba2V(CuS2)3
_chemical_formula_sum   'Ba8 V4 Cu12 S24'
_cell_volume   1068.92887840
_cell_formula_units_Z   4
loop_
 _symmetry_equiv_pos_site_id
 _symmetry_equiv_pos_as_xyz
  1  'x, y, z'
loop_
 _atom_site_type_symbol
 _atom_site_label
 _atom_site_symmetry_multiplicity
 _atom_site_fract_x
 _atom_site_fract_y
 _atom_site_fract_z
 _atom_site_occupancy
  Ba  Ba0  1  0.68002000  0.46513000  0.05556700  1
  Ba  Ba1  1  0.31998000  0.46513000  0.44443300  1
  Ba  Ba2  1  0.81998000  0.03487000  0.94443300  1
  Ba  Ba3  1  0.18002000  0.03487000  0.55556700  1
  Ba  Ba4  1  0.18002000  0.96513000  0.05556700  1
  Ba  Ba5  1  0.81998000  0.96513000  0.44443300  1
  Ba  Ba6  1  0.31998000  0.53487000  0.94443300  1
  Ba  Ba7  1  0.68002000  0.53487000  0.55556700  1
  V  V8  1  0.00000000  0.63861700  0.25000000  1
  V  V9  1  0.50000000  0.86138300  0.75000000  1
  V  V10  1  0.50000000  0.13861700  0.25000000  1
  V  V11  1  0.00000000  0.36138300  0.75000000  1
  Cu  Cu12  1  0.01158250  0.66523350  0.50761700  1
  Cu  Cu13  1  0.01158250  0.33476650  0.00761700  1
  Cu  Cu14  1  0.50000000  0.16590200  0.75000000  1
  Cu  Cu15  1  0.00000000  0.33409800  0.25000000  1
  Cu  Cu16  1  0.48841750  0.83476650  0.49238300  1
  Cu  Cu17  1  0.48841750  0.16523350  0.99238300  1
  Cu  Cu18  1  0.51158250  0.16523350  0.50761700  1
  Cu  Cu19  1  0.51158250  0.83476650  0.00761700  1
  Cu  Cu20  1  0.00000000  0.66590200  0.75000000  1
  Cu  Cu21  1  0.50000000  0.83409800  0.25000000  1
  Cu  Cu22  1  0.98841750  0.33476650  0.49238300  1
  Cu  Cu23  1  0.98841750  0.66523350  0.99238300  1
  S  S24  1  0.88433950  0.49984550  0.01795900  1
  S  S25  1  0.12006100  0.18448900  0.23787700  1
  S  S26  1  0.61566050  0.00015450  0.98204100  1
  S  S27  1  0.62158150  0.72645350  0.75657500  1
  S  S28  1  0.37993900  0.31551100  0.76212300  1
  S  S29  1  0.12006100  0.81551100  0.73787700  1
  S  S30  1  0.87841850  0.77354650  0.24342500  1
  S  S31  1  0.11566050  0.49984550  0.48204100  1
  S  S32  1  0.12158150  0.77354650  0.25657500  1
  S  S33  1  0.37993900  0.68448900  0.26212300  1
  S  S34  1  0.38433950  0.00015450  0.51795900  1
  S  S35  1  0.37841850  0.72645350  0.74342500  1
  S  S36  1  0.38433950  0.99984550  0.01795900  1
  S  S37  1  0.62006100  0.68448900  0.23787700  1
  S  S38  1  0.11566050  0.50015450  0.98204100  1
  S  S39  1  0.12158150  0.22645350  0.75657500  1
  S  S40  1  0.87993900  0.81551100  0.76212300  1
  S  S41  1  0.62006100  0.31551100  0.73787700  1
  S  S42  1  0.37841850  0.27354650  0.24342500  1
  S  S43  1  0.61566050  0.99984550  0.48204100  1
  S  S44  1  0.62158150  0.27354650  0.25657500  1
  S  S45  1  0.87993900  0.18448900  0.26212300  1
  S  S46  1  0.88433950  0.50015450  0.51795900  1
  S  S47  1  0.87841850  0.22645350  0.74342500  1
