# generated using pymatgen
data_H5IO6
_symmetry_space_group_name_H-M   'P 1'
_cell_length_a   5.09544900
_cell_length_b   5.31559124
_cell_length_c   18.98374792
_cell_angle_alpha   89.05244183
_cell_angle_beta   88.97468610
_cell_angle_gamma   69.67785336
_symmetry_Int_Tables_number   1
_chemical_formula_structural   H5IO6
_chemical_formula_sum   'H20 I4 O24'
_cell_volume   482.06922670
_cell_formula_units_Z   4
loop_
 _symmetry_equiv_pos_site_id
 _symmetry_equiv_pos_as_xyz
  1  'x, y, z'
loop_
 _atom_site_type_symbol
 _atom_site_label
 _atom_site_symmetry_multiplicity
 _atom_site_fract_x
 _atom_site_fract_y
 _atom_site_fract_z
 _atom_site_occupancy
  H  H0  1  0.17250700  0.15918600  0.49746000  1
  H  H1  1  0.66835900  0.66637100  0.00617800  1
  H  H2  1  0.82532400  0.84928900  0.50786200  1
  H  H3  1  0.33066200  0.34535600  0.00081100  1
  H  H4  1  0.97679100  0.73257500  0.39331200  1
  H  H5  1  0.54285300  0.78821500  0.88933200  1
  H  H6  1  0.50458300  0.35130000  0.43666700  1
  H  H7  1  0.99311500  0.83988200  0.06736000  1
  H  H8  1  0.50458400  0.66218000  0.56654800  1
  H  H9  1  0.99685900  0.18282700  0.93946500  1
  H  H10  1  0.76629100  0.00988500  0.28808300  1
  H  H11  1  0.30398100  0.53731800  0.24035800  1
  H  H12  1  0.26982400  0.77220600  0.74046100  1
  H  H13  1  0.77691100  0.29843700  0.76411300  1
  H  H14  1  0.46264900  0.12606300  0.13478600  1
  H  H15  1  0.04674000  0.37944500  0.63479100  1
  H  H16  1  0.25899500  0.01638700  0.27624400  1
  H  H17  1  0.88252100  0.54276400  0.19194400  1
  H  H18  1  0.58947800  0.97932300  0.68820100  1
  H  H19  1  0.08603700  0.49514000  0.82083200  1
  I  I20  1  0.96476000  0.20440300  0.37830800  1
  I  I21  1  0.45140500  0.66865600  0.12414700  1
  I  I22  1  0.04324000  0.83927300  0.62355700  1
  I  I23  1  0.54056100  0.31807300  0.87956900  1
  O  O24  1  0.23359700  0.20111800  0.44892100  1
  O  O25  1  0.71052100  0.72066800  0.05435100  1
  O  O26  1  0.77631300  0.80120000  0.55707200  1
  O  O27  1  0.27369900  0.30629700  0.95225200  1
  O  O28  1  0.93480100  0.88981000  0.42737100  1
  O  O29  1  0.42364900  0.37450200  0.08099700  1
  O  O30  1  0.07651500  0.13718300  0.58117000  1
  O  O31  1  0.57275000  0.62867100  0.92462600  1
  O  O32  1  0.66478800  0.41929800  0.43711200  1
  O  O33  1  0.13857700  0.92119900  0.07709100  1
  O  O34  1  0.34383700  0.59575400  0.56933400  1
  O  O35  1  0.84385800  0.10554200  0.93763600  1
  O  O36  1  0.68843000  0.18479300  0.31118100  1
  O  O37  1  0.19523300  0.64130400  0.20033100  1
  O  O38  1  0.29650400  0.86561500  0.69659600  1
  O  O39  1  0.79549600  0.38231400  0.80921500  1
  O  O40  1  0.01623100  0.49191900  0.33614300  1
  O  O41  1  0.48930100  0.97262000  0.17072300  1
  O  O42  1  0.01005900  0.53082400  0.67072100  1
  O  O43  1  0.51097400  0.02567900  0.83853400  1
  O  O44  1  0.24762300  0.93791900  0.32297300  1
  O  O45  1  0.75207800  0.44669700  0.18031800  1
  O  O46  1  0.74248800  0.05645500  0.68383700  1
  O  O47  1  0.24043600  0.56958500  0.82517200  1
