# generated using pymatgen
data_Rb2ZnCl4
_symmetry_space_group_name_H-M   'P 1'
_cell_length_a   7.40096900
_cell_length_b   9.41374800
_cell_length_c   12.98188600
_cell_angle_alpha   90.00000000
_cell_angle_beta   90.00000000
_cell_angle_gamma   90.00000000
_symmetry_Int_Tables_number   1
_chemical_formula_structural   Rb2ZnCl4
_chemical_formula_sum   'Rb8 Zn4 Cl16'
_cell_volume   904.45912468
_cell_formula_units_Z   4
loop_
 _symmetry_equiv_pos_site_id
 _symmetry_equiv_pos_as_xyz
  1  'x, y, z'
loop_
 _atom_site_type_symbol
 _atom_site_label
 _atom_site_symmetry_multiplicity
 _atom_site_fract_x
 _atom_site_fract_y
 _atom_site_fract_z
 _atom_site_occupancy
  Rb  Rb0  1  0.75000000  0.36916600  0.59149300  1
  Rb  Rb1  1  0.75000000  0.51500200  0.17946500  1
  Rb  Rb2  1  0.75000000  0.01500200  0.32053500  1
  Rb  Rb3  1  0.75000000  0.86916600  0.90850700  1
  Rb  Rb4  1  0.25000000  0.63083400  0.40850700  1
  Rb  Rb5  1  0.25000000  0.48499800  0.82053500  1
  Rb  Rb6  1  0.25000000  0.98499800  0.67946500  1
  Rb  Rb7  1  0.25000000  0.13083400  0.09149300  1
  Zn  Zn8  1  0.75000000  0.27524900  0.92237700  1
  Zn  Zn9  1  0.25000000  0.22475100  0.42237700  1
  Zn  Zn10  1  0.25000000  0.72475100  0.07762300  1
  Zn  Zn11  1  0.75000000  0.77524900  0.57762300  1
  Cl  Cl12  1  0.25000000  0.98321900  0.41725100  1
  Cl  Cl13  1  0.50011100  0.81618600  0.15739700  1
  Cl  Cl14  1  0.25000000  0.31876000  0.58611400  1
  Cl  Cl15  1  0.25000000  0.81876000  0.91388600  1
  Cl  Cl16  1  0.75000000  0.18124000  0.08611400  1
  Cl  Cl17  1  0.00011100  0.18381400  0.84260300  1
  Cl  Cl18  1  0.25000000  0.48321900  0.08274900  1
  Cl  Cl19  1  0.49988900  0.68381400  0.65739700  1
  Cl  Cl20  1  0.75000000  0.01678100  0.58274900  1
  Cl  Cl21  1  0.50011100  0.31618600  0.34260300  1
  Cl  Cl22  1  0.49988900  0.18381400  0.84260300  1
  Cl  Cl23  1  0.99988900  0.81618600  0.15739700  1
  Cl  Cl24  1  0.75000000  0.68124000  0.41388600  1
  Cl  Cl25  1  0.00011100  0.68381400  0.65739700  1
  Cl  Cl26  1  0.75000000  0.51678100  0.91725100  1
  Cl  Cl27  1  0.99988900  0.31618600  0.34260300  1
