# generated using pymatgen
data_Ca(InTe2)2
_symmetry_space_group_name_H-M   'P 1'
_cell_length_a   8.28470400
_cell_length_b   8.28470400
_cell_length_c   7.11995400
_cell_angle_alpha   90.00000000
_cell_angle_beta   90.00000000
_cell_angle_gamma   90.00000000
_symmetry_Int_Tables_number   1
_chemical_formula_structural   Ca(InTe2)2
_chemical_formula_sum   'Ca2 In4 Te8'
_cell_volume   488.68744375
_cell_formula_units_Z   2
loop_
 _symmetry_equiv_pos_site_id
 _symmetry_equiv_pos_as_xyz
  1  'x, y, z'
loop_
 _atom_site_type_symbol
 _atom_site_label
 _atom_site_symmetry_multiplicity
 _atom_site_fract_x
 _atom_site_fract_y
 _atom_site_fract_z
 _atom_site_occupancy
  Ca  Ca0  1  0.00000000  0.00000000  0.50000000  1
  Ca  Ca1  1  0.50000000  0.50000000  0.00000000  1
  In  In2  1  0.00000000  0.50000000  0.00000000  1
  In  In3  1  0.50000000  0.00000000  0.00000000  1
  In  In4  1  0.50000000  0.00000000  0.50000000  1
  In  In5  1  0.00000000  0.50000000  0.50000000  1
  Te  Te6  1  0.31063150  0.81063150  0.25000000  1
  Te  Te7  1  0.18936850  0.31063150  0.25000000  1
  Te  Te8  1  0.81063150  0.68936850  0.25000000  1
  Te  Te9  1  0.68936850  0.18936850  0.25000000  1
  Te  Te10  1  0.81063150  0.31063150  0.75000000  1
  Te  Te11  1  0.68936850  0.81063150  0.75000000  1
  Te  Te12  1  0.31063150  0.18936850  0.75000000  1
  Te  Te13  1  0.18936850  0.68936850  0.75000000  1
