# generated using pymatgen
data_K2Pt(CN)4
_symmetry_space_group_name_H-M   'P 1'
_cell_length_a   7.13175300
_cell_length_b   9.16920100
_cell_length_c   13.83887400
_cell_angle_alpha   90.00000000
_cell_angle_beta   90.00000000
_cell_angle_gamma   90.00000000
_symmetry_Int_Tables_number   1
_chemical_formula_structural   K2Pt(CN)4
_chemical_formula_sum   'K8 Pt4 C16 N16'
_cell_volume   904.95824614
_cell_formula_units_Z   4
loop_
 _symmetry_equiv_pos_site_id
 _symmetry_equiv_pos_as_xyz
  1  'x, y, z'
loop_
 _atom_site_type_symbol
 _atom_site_label
 _atom_site_symmetry_multiplicity
 _atom_site_fract_x
 _atom_site_fract_y
 _atom_site_fract_z
 _atom_site_occupancy
  K  K0  1  0.20142400  0.35297600  0.90463500  1
  K  K1  1  0.29857600  0.64702400  0.40463500  1
  K  K2  1  0.79857600  0.64702400  0.09536500  1
  K  K3  1  0.29857600  0.85297600  0.09536500  1
  K  K4  1  0.70142400  0.14702400  0.90463500  1
  K  K5  1  0.20142400  0.14702400  0.59536500  1
  K  K6  1  0.79857600  0.85297600  0.40463500  1
  K  K7  1  0.70142400  0.35297600  0.59536500  1
  Pt  Pt8  1  0.59138400  0.75000000  0.75000000  1
  Pt  Pt9  1  0.90861600  0.25000000  0.25000000  1
  Pt  Pt10  1  0.09138400  0.75000000  0.75000000  1
  Pt  Pt11  1  0.40861600  0.25000000  0.25000000  1
  C  C12  1  0.40873300  0.04278000  0.29462900  1
  C  C13  1  0.40873300  0.45722000  0.20537100  1
  C  C14  1  0.09126700  0.54278000  0.70537100  1
  C  C15  1  0.59126700  0.95722000  0.70537100  1
  C  C16  1  0.90835100  0.31469500  0.11332200  1
  C  C17  1  0.90835100  0.18530500  0.38667800  1
  C  C18  1  0.40835100  0.31469500  0.38667800  1
  C  C19  1  0.90873300  0.45722000  0.29462900  1
  C  C20  1  0.59164900  0.81469500  0.88667800  1
  C  C21  1  0.09164900  0.81469500  0.61332200  1
  C  C22  1  0.59126700  0.54278000  0.79462900  1
  C  C23  1  0.09126700  0.95722000  0.79462900  1
  C  C24  1  0.09164900  0.68530500  0.88667800  1
  C  C25  1  0.40835100  0.18530500  0.11332200  1
  C  C26  1  0.90873300  0.04278000  0.20537100  1
  C  C27  1  0.59164900  0.68530500  0.61332200  1
  N  N28  1  0.08989000  0.42051200  0.67982800  1
  N  N29  1  0.90524100  0.14731400  0.46773600  1
  N  N30  1  0.91011000  0.92051200  0.17982800  1
  N  N31  1  0.90524100  0.35268600  0.03226400  1
  N  N32  1  0.58989000  0.07948800  0.67982800  1
  N  N33  1  0.09475900  0.64731400  0.96773600  1
  N  N34  1  0.59475900  0.64731400  0.53226400  1
  N  N35  1  0.91011000  0.57948800  0.32017200  1
  N  N36  1  0.59475900  0.85268600  0.96773600  1
  N  N37  1  0.58989000  0.42051200  0.82017200  1
  N  N38  1  0.08989000  0.07948800  0.82017200  1
  N  N39  1  0.40524100  0.14731400  0.03226400  1
  N  N40  1  0.40524100  0.35268600  0.46773600  1
  N  N41  1  0.41011000  0.57948800  0.17982800  1
  N  N42  1  0.09475900  0.85268600  0.53226400  1
  N  N43  1  0.41011000  0.92051200  0.32017200  1
