# generated using pymatgen
data_Zr5Sc2O13
_symmetry_space_group_name_H-M   'P 1'
_cell_length_a   9.67997815
_cell_length_b   9.67997815
_cell_length_c   17.58634608
_cell_angle_alpha   90.00000000
_cell_angle_beta   90.00000000
_cell_angle_gamma   120.00000000
_symmetry_Int_Tables_number   1
_chemical_formula_structural   Zr5Sc2O13
_chemical_formula_sum   'Zr30 Sc12 O78'
_cell_volume   1427.10195399
_cell_formula_units_Z   6
loop_
 _symmetry_equiv_pos_site_id
 _symmetry_equiv_pos_as_xyz
  1  'x, y, z'
loop_
 _atom_site_type_symbol
 _atom_site_label
 _atom_site_symmetry_multiplicity
 _atom_site_fract_x
 _atom_site_fract_y
 _atom_site_fract_z
 _atom_site_occupancy
  Zr  Zr0  1  0.33333333  0.66666667  0.67107367  1
  Zr  Zr1  1  0.14544933  0.70349567  0.98949967  1
  Zr  Zr2  1  0.29650433  0.44195367  0.98949967  1
  Zr  Zr3  1  0.93479900  0.56082200  0.16317300  1
  Zr  Zr4  1  0.55804633  0.85455067  0.98949967  1
  Zr  Zr5  1  0.43917800  0.37397700  0.16317300  1
  Zr  Zr6  1  0.10717800  0.47532400  0.34238600  1
  Zr  Zr7  1  0.62602300  0.06520100  0.16317300  1
  Zr  Zr8  1  0.36814600  0.89282200  0.34238600  1
  Zr  Zr9  1  0.52467600  0.63185400  0.34238600  1
  Zr  Zr10  1  0.00000000  0.00000000  0.00440700  1
  Zr  Zr11  1  0.81211600  0.03682900  0.32283300  1
  Zr  Zr12  1  0.96317100  0.77528700  0.32283300  1
  Zr  Zr13  1  0.60146567  0.89415533  0.49650633  1
  Zr  Zr14  1  0.22471300  0.18788400  0.32283300  1
  Zr  Zr15  1  0.10584467  0.70731033  0.49650633  1
  Zr  Zr16  1  0.77384467  0.80865733  0.67571933  1
  Zr  Zr17  1  0.29268967  0.39853433  0.49650633  1
  Zr  Zr18  1  0.03481267  0.22615533  0.67571933  1
  Zr  Zr19  1  0.19134267  0.96518733  0.67571933  1
  Zr  Zr20  1  0.66666667  0.33333333  0.33774033  1
  Zr  Zr21  1  0.47878267  0.37016233  0.65616633  1
  Zr  Zr22  1  0.62983767  0.10862033  0.65616633  1
  Zr  Zr23  1  0.26813233  0.22748867  0.82983967  1
  Zr  Zr24  1  0.89137967  0.52121733  0.65616633  1
  Zr  Zr25  1  0.77251133  0.04064367  0.82983967  1
  Zr  Zr26  1  0.44051133  0.14199067  0.00905267  1
  Zr  Zr27  1  0.95935633  0.73186767  0.82983967  1
  Zr  Zr28  1  0.70147933  0.55948867  0.00905267  1
  Zr  Zr29  1  0.85800933  0.29852067  0.00905267  1
  Sc  Sc30  1  0.04107867  0.26575133  0.17023333  1
  Sc  Sc31  1  0.22467267  0.95892133  0.17023333  1
  Sc  Sc32  1  0.33333333  0.66666667  0.16694167  1
  Sc  Sc33  1  0.73424867  0.77532733  0.17023333  1
  Sc  Sc34  1  0.70774533  0.59908467  0.50356667  1
  Sc  Sc35  1  0.89133933  0.29225467  0.50356667  1
  Sc  Sc36  1  0.00000000  0.00000000  0.50027500  1
  Sc  Sc37  1  0.40091533  0.10866067  0.50356667  1
  Sc  Sc38  1  0.37441200  0.93241800  0.83690000  1
  Sc  Sc39  1  0.55800600  0.62558800  0.83690000  1
  Sc  Sc40  1  0.66666667  0.33333333  0.83360833  1
  Sc  Sc41  1  0.06758200  0.44199400  0.83690000  1
  O  O42  1  0.15614033  0.69249867  0.86580167  1
  O  O43  1  0.08419667  0.45510733  0.96283833  1
  O  O44  1  0.30750133  0.46364167  0.86580167  1
  O  O45  1  0.98953933  0.18940967  0.05804067  1
  O  O46  1  0.53635833  0.84385967  0.86580167  1
  O  O47  1  0.37091067  0.91580333  0.96283833  1
  O  O48  1  0.19987033  0.01046067  0.05804067  1
  O  O49  1  0.33333333  0.66666667  0.02341667  1
  O  O50  1  0.16470067  0.73034533  0.11751133  1
  O  O51  1  0.54489267  0.62908933  0.96283833  1
  O  O52  1  0.85235333  0.52931667  0.27550067  1
  O  O53  1  0.26965467  0.43435533  0.11751133  1
  O  O54  1  0.09812100  0.49975500  0.21630600  1
  O  O55  1  0.56564467  0.83529933  0.11751133  1
  O  O56  1  0.40163400  0.90187900  0.21630600  1
  O  O57  1  0.81059033  0.80012967  0.05804067  1
  O  O58  1  0.11884200  0.70212700  0.36975000  1
  O  O59  1  0.50024500  0.59836600  0.21630600  1
  O  O60  1  0.33333333  0.66666667  0.31020767  1
  O  O61  1  0.47068333  0.32303667  0.27550067  1
  O  O62  1  0.29787300  0.41671500  0.36975000  1
  O  O63  1  0.13655433  0.49543167  0.46730067  1
  O  O64  1  0.67696333  0.14764667  0.27550067  1
  O  O65  1  0.35887733  0.86344567  0.46730067  1
  O  O66  1  0.58328500  0.88115800  0.36975000  1
  O  O67  1  0.50456833  0.64112267  0.46730067  1
  O  O68  1  0.82280700  0.02583200  0.19913500  1
  O  O69  1  0.75086333  0.78844067  0.29617167  1
  O  O70  1  0.97416800  0.79697500  0.19913500  1
  O  O71  1  0.65620600  0.52274300  0.39137400  1
  O  O72  1  0.20302500  0.17719300  0.19913500  1
  O  O73  1  0.03757733  0.24913667  0.29617167  1
  O  O74  1  0.86653700  0.34379400  0.39137400  1
  O  O75  1  0.00000000  0.00000000  0.35675000  1
  O  O76  1  0.83136733  0.06367867  0.45084467  1
  O  O77  1  0.21155933  0.96242267  0.29617167  1
  O  O78  1  0.51902000  0.86265000  0.60883400  1
  O  O79  1  0.93632133  0.76768867  0.45084467  1
  O  O80  1  0.76478767  0.83308833  0.54963933  1
  O  O81  1  0.23231133  0.16863267  0.45084467  1
  O  O82  1  0.06830067  0.23521233  0.54963933  1
  O  O83  1  0.47725700  0.13346300  0.39137400  1
  O  O84  1  0.78550867  0.03546033  0.70308333  1
  O  O85  1  0.16691167  0.93169933  0.54963933  1
  O  O86  1  0.00000000  0.00000000  0.64354100  1
  O  O87  1  0.13735000  0.65637000  0.60883400  1
  O  O88  1  0.96453967  0.75004833  0.70308333  1
  O  O89  1  0.80322100  0.82876500  0.80063400  1
  O  O90  1  0.34363000  0.48098000  0.60883400  1
  O  O91  1  0.02554400  0.19677900  0.80063400  1
  O  O92  1  0.24995167  0.21449133  0.70308333  1
  O  O93  1  0.17123500  0.97445600  0.80063400  1
  O  O94  1  0.48947367  0.35916533  0.53246833  1
  O  O95  1  0.41753000  0.12177400  0.62950500  1
  O  O96  1  0.64083467  0.13030833  0.53246833  1
  O  O97  1  0.32287267  0.85607633  0.72470733  1
  O  O98  1  0.86969167  0.51052633  0.53246833  1
  O  O99  1  0.70424400  0.58247000  0.62950500  1
  O  O100  1  0.53320367  0.67712733  0.72470733  1
  O  O101  1  0.66666667  0.33333333  0.69008333  1
  O  O102  1  0.49803400  0.39701200  0.78417800  1
  O  O103  1  0.87822600  0.29575600  0.62950500  1
  O  O104  1  0.18568667  0.19598333  0.94216733  1
  O  O105  1  0.60298800  0.10102200  0.78417800  1
  O  O106  1  0.43145433  0.16642167  0.88297267  1
  O  O107  1  0.89897800  0.50196600  0.78417800  1
  O  O108  1  0.73496733  0.56854567  0.88297267  1
  O  O109  1  0.14392367  0.46679633  0.72470733  1
  O  O110  1  0.45217533  0.36879367  0.03641667  1
  O  O111  1  0.83357833  0.26503267  0.88297267  1
  O  O112  1  0.66666667  0.33333333  0.97687433  1
  O  O113  1  0.80401667  0.98970333  0.94216733  1
  O  O114  1  0.63120633  0.08338167  0.03641667  1
  O  O115  1  0.46988767  0.16209833  0.13396733  1
  O  O116  1  0.01029667  0.81431333  0.94216733  1
  O  O117  1  0.69221067  0.53011233  0.13396733  1
  O  O118  1  0.91661833  0.54782467  0.03641667  1
  O  O119  1  0.83790167  0.30778933  0.13396733  1
