# generated using pymatgen
data_Sr2AlH7
_symmetry_space_group_name_H-M   'P 1'
_cell_length_a   13.64640200
_cell_length_b   9.80680800
_cell_length_c   7.99084037
_cell_angle_alpha   90.00000000
_cell_angle_beta   115.32180820
_cell_angle_gamma   90.00000000
_symmetry_Int_Tables_number   1
_chemical_formula_structural   Sr2AlH7
_chemical_formula_sum   'Sr16 Al8 H56'
_cell_volume   966.64764720
_cell_formula_units_Z   8
loop_
 _symmetry_equiv_pos_site_id
 _symmetry_equiv_pos_as_xyz
  1  'x, y, z'
loop_
 _atom_site_type_symbol
 _atom_site_label
 _atom_site_symmetry_multiplicity
 _atom_site_fract_x
 _atom_site_fract_y
 _atom_site_fract_z
 _atom_site_occupancy
  Sr  Sr0  1  0.09477600  0.82918700  0.52203200  1
  Sr  Sr1  1  0.90522400  0.82918700  0.97796800  1
  Sr  Sr2  1  0.90522400  0.17081300  0.47796800  1
  Sr  Sr3  1  0.09477600  0.17081300  0.02203200  1
  Sr  Sr4  1  0.86285150  0.56805950  0.52299500  1
  Sr  Sr5  1  0.13714850  0.56805950  0.97700500  1
  Sr  Sr6  1  0.13714850  0.43194050  0.47700500  1
  Sr  Sr7  1  0.86285150  0.43194050  0.02299500  1
  Sr  Sr8  1  0.59477600  0.32918700  0.52203200  1
  Sr  Sr9  1  0.40522400  0.32918700  0.97796800  1
  Sr  Sr10  1  0.40522400  0.67081300  0.47796800  1
  Sr  Sr11  1  0.59477600  0.67081300  0.02203200  1
  Sr  Sr12  1  0.36285150  0.06805950  0.52299500  1
  Sr  Sr13  1  0.63714850  0.06805950  0.97700500  1
  Sr  Sr14  1  0.63714850  0.93194050  0.47700500  1
  Sr  Sr15  1  0.36285150  0.93194050  0.02299500  1
  Al  Al16  1  0.67123400  0.34842100  0.19082400  1
  Al  Al17  1  0.32876600  0.34842100  0.30917600  1
  Al  Al18  1  0.32876600  0.65157900  0.80917600  1
  Al  Al19  1  0.67123400  0.65157900  0.69082400  1
  Al  Al20  1  0.17123400  0.84842100  0.19082400  1
  Al  Al21  1  0.82876600  0.84842100  0.30917600  1
  Al  Al22  1  0.82876600  0.15157900  0.80917600  1
  Al  Al23  1  0.17123400  0.15157900  0.69082400  1
  H  H24  1  0.75173100  0.35636700  0.42596500  1
  H  H25  1  0.24826900  0.35636700  0.07403500  1
  H  H26  1  0.24826900  0.64363300  0.57403500  1
  H  H27  1  0.75173100  0.64363300  0.92596500  1
  H  H28  1  0.09715950  0.70705050  0.23168600  1
  H  H29  1  0.90284050  0.70705050  0.26831400  1
  H  H30  1  0.90284050  0.29294950  0.76831400  1
  H  H31  1  0.09715950  0.29294950  0.73168600  1
  H  H32  1  0.76474300  0.23736500  0.16763400  1
  H  H33  1  0.23525700  0.23736500  0.33236600  1
  H  H34  1  0.23525700  0.76263500  0.83236600  1
  H  H35  1  0.76474300  0.76263500  0.66763400  1
  H  H36  1  0.08541400  0.82035700  0.95747300  1
  H  H37  1  0.91458600  0.82035700  0.54252700  1
  H  H38  1  0.91458600  0.17964300  0.04252700  1
  H  H39  1  0.08541400  0.17964300  0.45747300  1
  H  H40  1  0.73650550  0.49139250  0.15942200  1
  H  H41  1  0.26349450  0.49139250  0.34057800  1
  H  H42  1  0.26349450  0.50860750  0.84057800  1
  H  H43  1  0.73650550  0.50860750  0.65942200  1
  H  H44  1  0.57371000  0.45580400  0.20565100  1
  H  H45  1  0.42629000  0.45580400  0.29434900  1
  H  H46  1  0.42629000  0.54419600  0.79434900  1
  H  H47  1  0.57371000  0.54419600  0.70565100  1
  H  H48  1  0.94002200  0.60081600  0.87132600  1
  H  H49  1  0.05997800  0.60081600  0.62867400  1
  H  H50  1  0.05997800  0.39918400  0.12867400  1
  H  H51  1  0.94002200  0.39918400  0.37132600  1
  H  H52  1  0.25173100  0.85636700  0.42596500  1
  H  H53  1  0.74826900  0.85636700  0.07403500  1
  H  H54  1  0.74826900  0.14363300  0.57403500  1
  H  H55  1  0.25173100  0.14363300  0.92596500  1
  H  H56  1  0.59715950  0.20705050  0.23168600  1
  H  H57  1  0.40284050  0.20705050  0.26831400  1
  H  H58  1  0.40284050  0.79294950  0.76831400  1
  H  H59  1  0.59715950  0.79294950  0.73168600  1
  H  H60  1  0.26474300  0.73736500  0.16763400  1
  H  H61  1  0.73525700  0.73736500  0.33236600  1
  H  H62  1  0.73525700  0.26263500  0.83236600  1
  H  H63  1  0.26474300  0.26263500  0.66763400  1
  H  H64  1  0.58541400  0.32035700  0.95747300  1
  H  H65  1  0.41458600  0.32035700  0.54252700  1
  H  H66  1  0.41458600  0.67964300  0.04252700  1
  H  H67  1  0.58541400  0.67964300  0.45747300  1
  H  H68  1  0.23650550  0.99139250  0.15942200  1
  H  H69  1  0.76349450  0.99139250  0.34057800  1
  H  H70  1  0.76349450  0.00860750  0.84057800  1
  H  H71  1  0.23650550  0.00860750  0.65942200  1
  H  H72  1  0.07371000  0.95580400  0.20565100  1
  H  H73  1  0.92629000  0.95580400  0.29434900  1
  H  H74  1  0.92629000  0.04419600  0.79434900  1
  H  H75  1  0.07371000  0.04419600  0.70565100  1
  H  H76  1  0.44002200  0.10081600  0.87132600  1
  H  H77  1  0.55997800  0.10081600  0.62867400  1
  H  H78  1  0.55997800  0.89918400  0.12867400  1
  H  H79  1  0.44002200  0.89918400  0.37132600  1
