# generated using pymatgen
data_Ba2NF
_symmetry_space_group_name_H-M   'P 1'
_cell_length_a   5.74082400
_cell_length_b   5.74082400
_cell_length_c   11.64442400
_cell_angle_alpha   90.00000000
_cell_angle_beta   90.00000000
_cell_angle_gamma   90.00000000
_symmetry_Int_Tables_number   1
_chemical_formula_structural   Ba2NF
_chemical_formula_sum   'Ba8 N4 F4'
_cell_volume   383.76598275
_cell_formula_units_Z   4
loop_
 _symmetry_equiv_pos_site_id
 _symmetry_equiv_pos_as_xyz
  1  'x, y, z'
loop_
 _atom_site_type_symbol
 _atom_site_label
 _atom_site_symmetry_multiplicity
 _atom_site_fract_x
 _atom_site_fract_y
 _atom_site_fract_z
 _atom_site_occupancy
  Ba  Ba0  1  0.50000000  0.50000000  0.26907800  1
  Ba  Ba1  1  0.00000000  0.00000000  0.23092200  1
  Ba  Ba2  1  0.00000000  0.50000000  0.48092200  1
  Ba  Ba3  1  0.00000000  0.50000000  0.01907800  1
  Ba  Ba4  1  0.00000000  0.00000000  0.76907800  1
  Ba  Ba5  1  0.50000000  0.50000000  0.73092200  1
  Ba  Ba6  1  0.50000000  0.00000000  0.98092200  1
  Ba  Ba7  1  0.50000000  0.00000000  0.51907800  1
  N  N8  1  0.00000000  0.00000000  0.00000000  1
  N  N9  1  0.00000000  0.50000000  0.25000000  1
  N  N10  1  0.50000000  0.50000000  0.50000000  1
  N  N11  1  0.50000000  0.00000000  0.75000000  1
  F  F12  1  0.50000000  0.50000000  0.00000000  1
  F  F13  1  0.50000000  0.00000000  0.25000000  1
  F  F14  1  0.00000000  0.00000000  0.50000000  1
  F  F15  1  0.00000000  0.50000000  0.75000000  1
