# generated using pymatgen
data_TaP2NCl12
_symmetry_space_group_name_H-M   'P 1'
_cell_length_a   13.92830800
_cell_length_b   8.95300000
_cell_length_c   15.84779780
_cell_angle_alpha   90.00000000
_cell_angle_beta   103.83074523
_cell_angle_gamma   90.00000000
_symmetry_Int_Tables_number   1
_chemical_formula_structural   TaP2NCl12
_chemical_formula_sum   'Ta4 P8 N4 Cl48'
_cell_volume   1918.92431012
_cell_formula_units_Z   4
loop_
 _symmetry_equiv_pos_site_id
 _symmetry_equiv_pos_as_xyz
  1  'x, y, z'
loop_
 _atom_site_type_symbol
 _atom_site_label
 _atom_site_symmetry_multiplicity
 _atom_site_fract_x
 _atom_site_fract_y
 _atom_site_fract_z
 _atom_site_occupancy
  Ta  Ta0  1  0.00000000  0.00000000  0.50000000  1
  Ta  Ta1  1  0.00000000  0.00000000  0.00000000  1
  Ta  Ta2  1  0.50000000  0.50000000  0.50000000  1
  Ta  Ta3  1  0.50000000  0.50000000  0.00000000  1
  P  P4  1  0.61072800  0.92927900  0.27048800  1
  P  P5  1  0.38927200  0.92927900  0.22951200  1
  P  P6  1  0.61072800  0.07072100  0.77048800  1
  P  P7  1  0.38927200  0.07072100  0.72951200  1
  P  P8  1  0.11072800  0.42927900  0.27048800  1
  P  P9  1  0.88927200  0.42927900  0.22951200  1
  P  P10  1  0.11072800  0.57072100  0.77048800  1
  P  P11  1  0.88927200  0.57072100  0.72951200  1
  N  N12  1  0.50000000  0.12289800  0.75000000  1
  N  N13  1  0.50000000  0.87710200  0.25000000  1
  N  N14  1  0.00000000  0.62289800  0.75000000  1
  N  N15  1  0.00000000  0.37710200  0.25000000  1
  Cl  Cl16  1  0.36811050  0.86908950  0.67629900  1
  Cl  Cl17  1  0.66454300  0.06598100  0.66554800  1
  Cl  Cl18  1  0.66454300  0.93401900  0.16554800  1
  Cl  Cl19  1  0.36811050  0.13091050  0.17629900  1
  Cl  Cl20  1  0.84244450  0.05610250  0.52590600  1
  Cl  Cl21  1  0.93314500  0.01987000  0.34798400  1
  Cl  Cl22  1  0.63188950  0.86908950  0.82370100  1
  Cl  Cl23  1  0.93314500  0.98013000  0.84798400  1
  Cl  Cl24  1  0.69591300  0.20948400  0.85175200  1
  Cl  Cl25  1  0.30408700  0.79051600  0.14824800  1
  Cl  Cl26  1  0.06685500  0.01987000  0.15201600  1
  Cl  Cl27  1  0.53810600  0.75955300  0.50791800  1
  Cl  Cl28  1  0.84244450  0.94389750  0.02590600  1
  Cl  Cl29  1  0.06685500  0.98013000  0.65201600  1
  Cl  Cl30  1  0.46189400  0.24044700  0.49208200  1
  Cl  Cl31  1  0.53810600  0.24044700  0.00791800  1
  Cl  Cl32  1  0.69591300  0.79051600  0.35175200  1
  Cl  Cl33  1  0.15755550  0.05610250  0.97409400  1
  Cl  Cl34  1  0.63188950  0.13091050  0.32370100  1
  Cl  Cl35  1  0.30408700  0.20948400  0.64824800  1
  Cl  Cl36  1  0.15755550  0.94389750  0.47409400  1
  Cl  Cl37  1  0.33545700  0.93401900  0.33445200  1
  Cl  Cl38  1  0.33545700  0.06598100  0.83445200  1
  Cl  Cl39  1  0.46189400  0.75955300  0.99208200  1
  Cl  Cl40  1  0.86811050  0.36908950  0.67629900  1
  Cl  Cl41  1  0.16454300  0.56598100  0.66554800  1
  Cl  Cl42  1  0.16454300  0.43401900  0.16554800  1
  Cl  Cl43  1  0.86811050  0.63091050  0.17629900  1
  Cl  Cl44  1  0.34244450  0.55610250  0.52590600  1
  Cl  Cl45  1  0.43314500  0.51987000  0.34798400  1
  Cl  Cl46  1  0.13188950  0.36908950  0.82370100  1
  Cl  Cl47  1  0.43314500  0.48013000  0.84798400  1
  Cl  Cl48  1  0.19591300  0.70948400  0.85175200  1
  Cl  Cl49  1  0.80408700  0.29051600  0.14824800  1
  Cl  Cl50  1  0.56685500  0.51987000  0.15201600  1
  Cl  Cl51  1  0.03810600  0.25955300  0.50791800  1
  Cl  Cl52  1  0.34244450  0.44389750  0.02590600  1
  Cl  Cl53  1  0.56685500  0.48013000  0.65201600  1
  Cl  Cl54  1  0.96189400  0.74044700  0.49208200  1
  Cl  Cl55  1  0.03810600  0.74044700  0.00791800  1
  Cl  Cl56  1  0.19591300  0.29051600  0.35175200  1
  Cl  Cl57  1  0.65755550  0.55610250  0.97409400  1
  Cl  Cl58  1  0.13188950  0.63091050  0.32370100  1
  Cl  Cl59  1  0.80408700  0.70948400  0.64824800  1
  Cl  Cl60  1  0.65755550  0.44389750  0.47409400  1
  Cl  Cl61  1  0.83545700  0.43401900  0.33445200  1
  Cl  Cl62  1  0.83545700  0.56598100  0.83445200  1
  Cl  Cl63  1  0.96189400  0.25955300  0.99208200  1
