# generated using pymatgen
data_RhSCl5
_symmetry_space_group_name_H-M   'P 1'
_cell_length_a   26.92409263
_cell_length_b   6.97717500
_cell_length_c   27.49901131
_cell_angle_alpha   90.00000000
_cell_angle_beta   119.08236439
_cell_angle_gamma   90.00000000
_symmetry_Int_Tables_number   1
_chemical_formula_structural   RhSCl5
_chemical_formula_sum   'Rh24 S24 Cl120'
_cell_volume   4514.50753341
_cell_formula_units_Z   24
loop_
 _symmetry_equiv_pos_site_id
 _symmetry_equiv_pos_as_xyz
  1  'x, y, z'
loop_
 _atom_site_type_symbol
 _atom_site_label
 _atom_site_symmetry_multiplicity
 _atom_site_fract_x
 _atom_site_fract_y
 _atom_site_fract_z
 _atom_site_occupancy
  Rh  Rh0  1  0.39116700  0.54572800  0.06222400  1
  Rh  Rh1  1  0.68948750  0.62340450  0.58383300  1
  Rh  Rh2  1  0.18948750  0.87659550  0.08383300  1
  Rh  Rh3  1  0.33076150  0.68701850  0.14781900  1
  Rh  Rh4  1  0.31124700  0.36933800  0.41512500  1
  Rh  Rh5  1  0.61067850  0.54245950  0.43753500  1
  Rh  Rh6  1  0.61067850  0.45754050  0.93753500  1
  Rh  Rh7  1  0.81124700  0.13066200  0.91512500  1
  Rh  Rh8  1  0.67140350  0.68410850  0.35187500  1
  Rh  Rh9  1  0.33076150  0.31298150  0.64781900  1
  Rh  Rh10  1  0.39116700  0.45427200  0.56222400  1
  Rh  Rh11  1  0.67140350  0.31589150  0.85187500  1
  Rh  Rh12  1  0.89116700  0.04572800  0.06222400  1
  Rh  Rh13  1  0.18948750  0.12340450  0.58383300  1
  Rh  Rh14  1  0.68948750  0.37659550  0.08383300  1
  Rh  Rh15  1  0.83076150  0.18701850  0.14781900  1
  Rh  Rh16  1  0.81124700  0.86933800  0.41512500  1
  Rh  Rh17  1  0.11067850  0.04245950  0.43753500  1
  Rh  Rh18  1  0.11067850  0.95754050  0.93753500  1
  Rh  Rh19  1  0.31124700  0.63066200  0.91512500  1
  Rh  Rh20  1  0.17140350  0.18410850  0.35187500  1
  Rh  Rh21  1  0.83076150  0.81298150  0.64781900  1
  Rh  Rh22  1  0.89116700  0.95427200  0.56222400  1
  Rh  Rh23  1  0.17140350  0.81589150  0.85187500  1
  S  S24  1  0.10921950  0.81038050  0.08674400  1
  S  S25  1  0.60921950  0.68961950  0.58674400  1
  S  S26  1  0.64893850  0.10248550  0.78164600  1
  S  S27  1  0.39236700  0.30956200  0.41297700  1
  S  S28  1  0.89236700  0.19043800  0.91297700  1
  S  S29  1  0.43240600  0.29312100  0.11839000  1
  S  S30  1  0.35249100  0.89811400  0.21754800  1
  S  S31  1  0.56990500  0.70591000  0.88095500  1
  S  S32  1  0.14893850  0.39751450  0.28164600  1
  S  S33  1  0.85249100  0.60188600  0.71754800  1
  S  S34  1  0.43240600  0.70687900  0.61839000  1
  S  S35  1  0.56990500  0.29409000  0.38095500  1
  S  S36  1  0.60921950  0.31038050  0.08674400  1
  S  S37  1  0.10921950  0.18961950  0.58674400  1
  S  S38  1  0.14893850  0.60248550  0.78164600  1
  S  S39  1  0.89236700  0.80956200  0.41297700  1
  S  S40  1  0.39236700  0.69043800  0.91297700  1
  S  S41  1  0.93240600  0.79312100  0.11839000  1
  S  S42  1  0.85249100  0.39811400  0.21754800  1
  S  S43  1  0.06990500  0.20591000  0.88095500  1
  S  S44  1  0.64893850  0.89751450  0.28164600  1
  S  S45  1  0.35249100  0.10188600  0.71754800  1
  S  S46  1  0.93240600  0.20687900  0.61839000  1
  S  S47  1  0.06990500  0.79409000  0.38095500  1
  Cl  Cl48  1  0.69591700  0.47559600  0.43225300  1
  Cl  Cl49  1  0.91326650  0.46913550  0.93152700  1
  Cl  Cl50  1  0.12701200  0.80562200  0.16750800  1
  Cl  Cl51  1  0.58815250  0.97007650  0.56635100  1
  Cl  Cl52  1  0.34163000  0.18900300  0.49837200  1
  Cl  Cl53  1  0.41326650  0.03086450  0.43152700  1
  Cl  Cl54  1  0.77691800  0.91424000  0.84000600  1
  Cl  Cl55  1  0.37470250  0.31174350  0.33197800  1
  Cl  Cl56  1  0.84163000  0.31099700  0.99837200  1
  Cl  Cl57  1  0.46483350  0.11467850  0.08242200  1
  Cl  Cl58  1  0.53742500  0.11206900  0.41749500  1
  Cl  Cl59  1  0.25980750  0.11121950  0.35793900  1
  Cl  Cl60  1  0.75980750  0.38878050  0.85793900  1
  Cl  Cl61  1  0.58902300  0.74902700  0.36079300  1
  Cl  Cl62  1  0.69591700  0.52440400  0.93225300  1
  Cl  Cl63  1  0.43970750  0.88963650  0.26520400  1
  Cl  Cl64  1  0.50446050  0.61880050  0.68666600  1
  Cl  Cl65  1  0.52895050  0.37729250  0.94302100  1
  Cl  Cl66  1  0.14427550  0.13261450  0.02128500  1
  Cl  Cl67  1  0.72347200  0.41042300  0.65972600  1
  Cl  Cl68  1  0.30540800  0.51978000  0.56700000  1
  Cl  Cl69  1  0.43970750  0.11036350  0.76520400  1
  Cl  Cl70  1  0.08815250  0.52992350  0.06635100  1
  Cl  Cl71  1  0.62701200  0.69437800  0.66750800  1
  Cl  Cl72  1  0.16951350  0.27808350  0.22590400  1
  Cl  Cl73  1  0.41210200  0.24878800  0.63851000  1
  Cl  Cl74  1  0.58902300  0.25097300  0.86079300  1
  Cl  Cl75  1  0.46483350  0.88532150  0.58242200  1
  Cl  Cl76  1  0.22347200  0.08957700  0.15972600  1
  Cl  Cl77  1  0.74138350  0.88157450  0.64234600  1
  Cl  Cl78  1  0.56108500  0.88902000  0.23435700  1
  Cl  Cl79  1  0.72265150  0.05182650  0.91590900  1
  Cl  Cl80  1  0.47338550  0.37727550  0.55778300  1
  Cl  Cl81  1  0.62640750  0.42202250  0.29449100  1
  Cl  Cl82  1  0.64427550  0.36738550  0.52128500  1
  Cl  Cl83  1  0.47338550  0.62272450  0.05778300  1
  Cl  Cl84  1  0.41210200  0.75121200  0.13851000  1
  Cl  Cl85  1  0.49733250  0.62133050  0.81308800  1
  Cl  Cl86  1  0.33020250  0.78625450  0.27246600  1
  Cl  Cl87  1  0.22265150  0.44817350  0.41590900  1
  Cl  Cl88  1  0.87470250  0.18825650  0.83197800  1
  Cl  Cl89  1  0.16136950  0.68943850  0.00214400  1
  Cl  Cl90  1  0.66951350  0.22191650  0.72590400  1
  Cl  Cl91  1  0.27691800  0.58576000  0.34000600  1
  Cl  Cl92  1  0.30540800  0.48022000  0.06700000  1
  Cl  Cl93  1  0.27889450  0.94589250  0.08402100  1
  Cl  Cl94  1  0.37534250  0.42703650  0.20618800  1
  Cl  Cl95  1  0.35741350  0.63188050  0.47761700  1
  Cl  Cl96  1  0.66136950  0.81056150  0.50214400  1
  Cl  Cl97  1  0.52895050  0.62270750  0.44302100  1
  Cl  Cl98  1  0.50446050  0.38119950  0.18666600  1
  Cl  Cl99  1  0.53742500  0.88793100  0.91749500  1
  Cl  Cl100  1  0.77889450  0.55410750  0.58402100  1
  Cl  Cl101  1  0.56108500  0.11098000  0.73435700  1
  Cl  Cl102  1  0.49733250  0.37866950  0.31308800  1
  Cl  Cl103  1  0.37534250  0.57296350  0.70618800  1
  Cl  Cl104  1  0.83020250  0.71374550  0.77246600  1
  Cl  Cl105  1  0.24138350  0.61842550  0.14234600  1
  Cl  Cl106  1  0.62640750  0.57797750  0.79449100  1
  Cl  Cl107  1  0.85741350  0.86811950  0.97761700  1
  Cl  Cl108  1  0.19591700  0.97559600  0.43225300  1
  Cl  Cl109  1  0.41326650  0.96913550  0.93152700  1
  Cl  Cl110  1  0.62701200  0.30562200  0.16750800  1
  Cl  Cl111  1  0.08815250  0.47007650  0.56635100  1
  Cl  Cl112  1  0.84163000  0.68900300  0.49837200  1
  Cl  Cl113  1  0.91326650  0.53086450  0.43152700  1
  Cl  Cl114  1  0.27691800  0.41424000  0.84000600  1
  Cl  Cl115  1  0.87470250  0.81174350  0.33197800  1
  Cl  Cl116  1  0.34163000  0.81099700  0.99837200  1
  Cl  Cl117  1  0.96483350  0.61467850  0.08242200  1
  Cl  Cl118  1  0.03742500  0.61206900  0.41749500  1
  Cl  Cl119  1  0.75980750  0.61121950  0.35793900  1
  Cl  Cl120  1  0.25980750  0.88878050  0.85793900  1
  Cl  Cl121  1  0.08902300  0.24902700  0.36079300  1
  Cl  Cl122  1  0.19591700  0.02440400  0.93225300  1
  Cl  Cl123  1  0.93970750  0.38963650  0.26520400  1
  Cl  Cl124  1  0.00446050  0.11880050  0.68666600  1
  Cl  Cl125  1  0.02895050  0.87729250  0.94302100  1
  Cl  Cl126  1  0.64427550  0.63261450  0.02128500  1
  Cl  Cl127  1  0.22347200  0.91042300  0.65972600  1
  Cl  Cl128  1  0.80540800  0.01978000  0.56700000  1
  Cl  Cl129  1  0.93970750  0.61036350  0.76520400  1
  Cl  Cl130  1  0.58815250  0.02992350  0.06635100  1
  Cl  Cl131  1  0.12701200  0.19437800  0.66750800  1
  Cl  Cl132  1  0.66951350  0.77808350  0.22590400  1
  Cl  Cl133  1  0.91210200  0.74878800  0.63851000  1
  Cl  Cl134  1  0.08902300  0.75097300  0.86079300  1
  Cl  Cl135  1  0.96483350  0.38532150  0.58242200  1
  Cl  Cl136  1  0.72347200  0.58957700  0.15972600  1
  Cl  Cl137  1  0.24138350  0.38157450  0.64234600  1
  Cl  Cl138  1  0.06108500  0.38902000  0.23435700  1
  Cl  Cl139  1  0.22265150  0.55182650  0.91590900  1
  Cl  Cl140  1  0.97338550  0.87727550  0.55778300  1
  Cl  Cl141  1  0.12640750  0.92202250  0.29449100  1
  Cl  Cl142  1  0.14427550  0.86738550  0.52128500  1
  Cl  Cl143  1  0.97338550  0.12272450  0.05778300  1
  Cl  Cl144  1  0.91210200  0.25121200  0.13851000  1
  Cl  Cl145  1  0.99733250  0.12133050  0.81308800  1
  Cl  Cl146  1  0.83020250  0.28625450  0.27246600  1
  Cl  Cl147  1  0.72265150  0.94817350  0.41590900  1
  Cl  Cl148  1  0.37470250  0.68825650  0.83197800  1
  Cl  Cl149  1  0.66136950  0.18943850  0.00214400  1
  Cl  Cl150  1  0.16951350  0.72191650  0.72590400  1
  Cl  Cl151  1  0.77691800  0.08576000  0.34000600  1
  Cl  Cl152  1  0.80540800  0.98022000  0.06700000  1
  Cl  Cl153  1  0.77889450  0.44589250  0.08402100  1
  Cl  Cl154  1  0.87534250  0.92703650  0.20618800  1
  Cl  Cl155  1  0.85741350  0.13188050  0.47761700  1
  Cl  Cl156  1  0.16136950  0.31056150  0.50214400  1
  Cl  Cl157  1  0.02895050  0.12270750  0.44302100  1
  Cl  Cl158  1  0.00446050  0.88119950  0.18666600  1
  Cl  Cl159  1  0.03742500  0.38793100  0.91749500  1
  Cl  Cl160  1  0.27889450  0.05410750  0.58402100  1
  Cl  Cl161  1  0.06108500  0.61098000  0.73435700  1
  Cl  Cl162  1  0.99733250  0.87866950  0.31308800  1
  Cl  Cl163  1  0.87534250  0.07296350  0.70618800  1
  Cl  Cl164  1  0.33020250  0.21374550  0.77246600  1
  Cl  Cl165  1  0.74138350  0.11842550  0.14234600  1
  Cl  Cl166  1  0.12640750  0.07797750  0.79449100  1
  Cl  Cl167  1  0.35741350  0.36811950  0.97761700  1
