# generated using pymatgen
data_Ca3(PO4)2
_symmetry_space_group_name_H-M   'P 1'
_cell_length_a   10.66377609
_cell_length_b   10.66377609
_cell_length_c   39.07532330
_cell_angle_alpha   90.00000000
_cell_angle_beta   90.00000000
_cell_angle_gamma   120.00000000
_symmetry_Int_Tables_number   1
_chemical_formula_structural   Ca3(PO4)2
_chemical_formula_sum   'Ca63 P42 O168'
_cell_volume   3848.17883404
_cell_formula_units_Z   21
loop_
 _symmetry_equiv_pos_site_id
 _symmetry_equiv_pos_as_xyz
  1  'x, y, z'
loop_
 _atom_site_type_symbol
 _atom_site_label
 _atom_site_symmetry_multiplicity
 _atom_site_fract_x
 _atom_site_fract_y
 _atom_site_fract_z
 _atom_site_occupancy
  Ca  Ca0  1  0.00000000  0.00000000  0.23234900  1
  Ca  Ca1  1  0.83799333  0.70229467  0.30585567  1
  Ca  Ca2  1  0.86430133  0.16200667  0.30585567  1
  Ca  Ca3  1  0.29770533  0.13569867  0.30585567  1
  Ca  Ca4  1  0.12103867  0.84900033  0.06319933  1
  Ca  Ca5  1  0.15099967  0.27203833  0.06319933  1
  Ca  Ca6  1  0.98342333  0.50085467  0.13241267  1
  Ca  Ca7  1  0.72796167  0.87896133  0.06319933  1
  Ca  Ca8  1  0.10849933  0.84000467  0.16881467  1
  Ca  Ca9  1  0.15999533  0.26849467  0.16881467  1
  Ca  Ca10  1  0.49914533  0.48256867  0.13241267  1
  Ca  Ca11  1  0.51743133  0.01657667  0.13241267  1
  Ca  Ca12  1  0.07563200  0.52702400  0.22504000  1
  Ca  Ca13  1  0.73150533  0.89150067  0.16881467  1
  Ca  Ca14  1  0.45139200  0.92436800  0.22504000  1
  Ca  Ca15  1  0.47297600  0.54860800  0.22504000  1
  Ca  Ca16  1  0.39852667  0.18095533  0.00164033  1
  Ca  Ca17  1  0.78242867  0.60147333  0.00164033  1
  Ca  Ca18  1  0.81904467  0.21757133  0.00164033  1
  Ca  Ca19  1  0.66666667  0.33333333  0.06560033  1
  Ca  Ca20  1  0.66666667  0.33333333  0.25357833  1
  Ca  Ca21  1  0.66666667  0.33333333  0.56568233  1
  Ca  Ca22  1  0.50466000  0.03562800  0.63918900  1
  Ca  Ca23  1  0.53096800  0.49534000  0.63918900  1
  Ca  Ca24  1  0.96437200  0.46903200  0.63918900  1
  Ca  Ca25  1  0.78770533  0.18233367  0.39653267  1
  Ca  Ca26  1  0.81766633  0.60537167  0.39653267  1
  Ca  Ca27  1  0.65009000  0.83418800  0.46574600  1
  Ca  Ca28  1  0.39462833  0.21229467  0.39653267  1
  Ca  Ca29  1  0.77516600  0.17333800  0.50214800  1
  Ca  Ca30  1  0.82666200  0.60182800  0.50214800  1
  Ca  Ca31  1  0.16581200  0.81590200  0.46574600  1
  Ca  Ca32  1  0.18409800  0.34991000  0.46574600  1
  Ca  Ca33  1  0.74229867  0.86035733  0.55837333  1
  Ca  Ca34  1  0.39817200  0.22483400  0.50214800  1
  Ca  Ca35  1  0.11805867  0.25770133  0.55837333  1
  Ca  Ca36  1  0.13964267  0.88194133  0.55837333  1
  Ca  Ca37  1  0.06519333  0.51428867  0.33497367  1
  Ca  Ca38  1  0.44909533  0.93480667  0.33497367  1
  Ca  Ca39  1  0.48571133  0.55090467  0.33497367  1
  Ca  Ca40  1  0.33333333  0.66666667  0.39893367  1
  Ca  Ca41  1  0.33333333  0.66666667  0.58691167  1
  Ca  Ca42  1  0.33333333  0.66666667  0.89901567  1
  Ca  Ca43  1  0.17132667  0.36896133  0.97252233  1
  Ca  Ca44  1  0.19763467  0.82867333  0.97252233  1
  Ca  Ca45  1  0.63103867  0.80236533  0.97252233  1
  Ca  Ca46  1  0.45437200  0.51566700  0.72986600  1
  Ca  Ca47  1  0.48433300  0.93870500  0.72986600  1
  Ca  Ca48  1  0.31675667  0.16752133  0.79907933  1
  Ca  Ca49  1  0.06129500  0.54562800  0.72986600  1
  Ca  Ca50  1  0.44183267  0.50667133  0.83548133  1
  Ca  Ca51  1  0.49332867  0.93516133  0.83548133  1
  Ca  Ca52  1  0.83247867  0.14923533  0.79907933  1
  Ca  Ca53  1  0.85076467  0.68324333  0.79907933  1
  Ca  Ca54  1  0.40896533  0.19369067  0.89170667  1
  Ca  Ca55  1  0.06483867  0.55816733  0.83548133  1
  Ca  Ca56  1  0.78472533  0.59103467  0.89170667  1
  Ca  Ca57  1  0.80630933  0.21527467  0.89170667  1
  Ca  Ca58  1  0.73186000  0.84762200  0.66830700  1
  Ca  Ca59  1  0.11576200  0.26814000  0.66830700  1
  Ca  Ca60  1  0.15237800  0.88423800  0.66830700  1
  Ca  Ca61  1  0.00000000  0.00000000  0.73226700  1
  Ca  Ca62  1  0.00000000  0.00000000  0.92024500  1
  P  P63  1  0.66666667  0.33333333  0.33072433  1
  P  P64  1  0.79346233  0.63193367  0.20011567  1
  P  P65  1  0.83847133  0.20653767  0.20011567  1
  P  P66  1  0.36806633  0.16152867  0.20011567  1
  P  P67  1  0.01907200  0.52343300  0.03541400  1
  P  P68  1  0.47656700  0.49563900  0.03541400  1
  P  P69  1  0.50436100  0.98092800  0.03541400  1
  P  P70  1  0.33333333  0.66666667  0.16731767  1
  P  P71  1  0.15948967  0.28789633  0.26129433  1
  P  P72  1  0.71210367  0.87159333  0.26129433  1
  P  P73  1  0.12840667  0.84051033  0.26129433  1
  P  P74  1  0.80403000  0.62610800  0.09459000  1
  P  P75  1  0.82207800  0.19597000  0.09459000  1
  P  P76  1  0.37389200  0.17792200  0.09459000  1
  P  P77  1  0.33333333  0.66666667  0.66405767  1
  P  P78  1  0.46012900  0.96526700  0.53344900  1
  P  P79  1  0.50513800  0.53987100  0.53344900  1
  P  P80  1  0.03473300  0.49486200  0.53344900  1
  P  P81  1  0.68573867  0.85676633  0.36874733  1
  P  P82  1  0.14323367  0.82897233  0.36874733  1
  P  P83  1  0.17102767  0.31426133  0.36874733  1
  P  P84  1  0.00000000  0.00000000  0.50065100  1
  P  P85  1  0.82615633  0.62122967  0.59462767  1
  P  P86  1  0.37877033  0.20492667  0.59462767  1
  P  P87  1  0.79507333  0.17384367  0.59462767  1
  P  P88  1  0.47069667  0.95944133  0.42792333  1
  P  P89  1  0.48874467  0.52930333  0.42792333  1
  P  P90  1  0.04055867  0.51125533  0.42792333  1
  P  P91  1  0.00000000  0.00000000  0.99739100  1
  P  P92  1  0.12679567  0.29860033  0.86678233  1
  P  P93  1  0.17180467  0.87320433  0.86678233  1
  P  P94  1  0.70139967  0.82819533  0.86678233  1
  P  P95  1  0.35240533  0.19009967  0.70208067  1
  P  P96  1  0.80990033  0.16230567  0.70208067  1
  P  P97  1  0.83769433  0.64759467  0.70208067  1
  P  P98  1  0.66666667  0.33333333  0.83398433  1
  P  P99  1  0.49282300  0.95456300  0.92796100  1
  P  P100  1  0.04543700  0.53826000  0.92796100  1
  P  P101  1  0.46174000  0.50717700  0.92796100  1
  P  P102  1  0.13736333  0.29277467  0.76125667  1
  P  P103  1  0.15541133  0.86263667  0.76125667  1
  P  P104  1  0.70722533  0.84458867  0.76125667  1
  O  O105  1  0.00000000  0.00000000  0.03627100  1
  O  O106  1  0.90823467  0.10602633  0.19977033  1
  O  O107  1  0.89397367  0.80220833  0.19977033  1
  O  O108  1  0.19779167  0.09176533  0.19977033  1
  O  O109  1  0.25155467  0.91479633  0.28787833  1
  O  O110  1  0.66324167  0.74844533  0.28787833  1
  O  O111  1  0.08520367  0.33675833  0.28787833  1
  O  O112  1  0.07190300  0.66545900  0.01431300  1
  O  O113  1  0.08100400  0.42465900  0.02434900  1
  O  O114  1  0.33454100  0.40644400  0.01431300  1
  O  O115  1  0.34365500  0.91899600  0.02434900  1
  O  O116  1  0.04783167  0.56616233  0.07350133  1
  O  O117  1  0.59355600  0.92809700  0.01431300  1
  O  O118  1  0.57534100  0.65634500  0.02434900  1
  O  O119  1  0.14776433  0.94085367  0.11628767  1
  O  O120  1  0.99505700  0.30060900  0.10750100  1
  O  O121  1  0.43383767  0.48166933  0.07350133  1
  O  O122  1  0.51833067  0.95216833  0.07350133  1
  O  O123  1  0.30555200  0.00494300  0.10750100  1
  O  O124  1  0.05914633  0.20691067  0.11628767  1
  O  O125  1  0.94253533  0.33717867  0.17720767  1
  O  O126  1  0.19941300  0.67644500  0.15497900  1
  O  O127  1  0.89092533  0.56973667  0.18908467  1
  O  O128  1  0.32355500  0.52296800  0.15497900  1
  O  O129  1  0.69939100  0.69444800  0.10750100  1
  O  O130  1  0.47703200  0.80058700  0.15497900  1
  O  O131  1  0.79308933  0.85223567  0.11628767  1
  O  O132  1  0.84033100  0.27357100  0.23629400  1
  O  O133  1  0.39464333  0.05746467  0.17720767  1
  O  O134  1  0.43026333  0.32118867  0.18908467  1
  O  O135  1  0.33333333  0.66666667  0.20697267  1
  O  O136  1  0.18753200  0.81547700  0.22653400  1
  O  O137  1  0.18452300  0.37205500  0.22653400  1
  O  O138  1  0.66282133  0.60535667  0.17720767  1
  O  O139  1  0.67881133  0.10907467  0.18908467  1
  O  O140  1  0.01936367  0.67012733  0.27459333  1
  O  O141  1  0.43324000  0.15966900  0.23629400  1
  O  O142  1  0.80743933  0.34316867  0.31518567  1
  O  O143  1  0.10696567  0.59524633  0.28047433  1
  O  O144  1  0.62794500  0.81246800  0.22653400  1
  O  O145  1  0.48828067  0.89303433  0.28047433  1
  O  O146  1  0.32987267  0.34923633  0.27459333  1
  O  O147  1  0.72642900  0.56676000  0.23629400  1
  O  O148  1  0.65076367  0.98063633  0.27459333  1
  O  O149  1  0.40475367  0.51171933  0.28047433  1
  O  O150  1  0.53572933  0.19256067  0.31518567  1
  O  O151  1  0.29160100  0.15467400  0.05952700  1
  O  O152  1  0.58088933  0.14929967  0.02752967  1
  O  O153  1  0.56841033  0.41911067  0.02752967  1
  O  O154  1  0.65683133  0.46427067  0.31518567  1
  O  O155  1  0.85070033  0.43158967  0.02752967  1
  O  O156  1  0.92656233  0.67782367  0.12158667  1
  O  O157  1  0.86307300  0.70839900  0.05952700  1
  O  O158  1  0.84532600  0.13692700  0.05952700  1
  O  O159  1  0.32217633  0.24873867  0.12158667  1
  O  O160  1  0.75126133  0.07343767  0.12158667  1
  O  O161  1  0.66666667  0.33333333  0.36960433  1
  O  O162  1  0.57490133  0.43935967  0.53310367  1
  O  O163  1  0.56064033  0.13554167  0.53310367  1
  O  O164  1  0.86445833  0.42509867  0.53310367  1
  O  O165  1  0.91822133  0.24812967  0.62121167  1
  O  O166  1  0.32990833  0.08177867  0.62121167  1
  O  O167  1  0.75187033  0.67009167  0.62121167  1
  O  O168  1  0.73856967  0.99879233  0.34764633  1
  O  O169  1  0.74767067  0.75799233  0.35768233  1
  O  O170  1  0.00120767  0.73977733  0.34764633  1
  O  O171  1  0.01032167  0.25232933  0.35768233  1
  O  O172  1  0.71449833  0.89949567  0.40683467  1
  O  O173  1  0.26022267  0.26143033  0.34764633  1
  O  O174  1  0.24200767  0.98967833  0.35768233  1
  O  O175  1  0.81443100  0.27418700  0.44962100  1
  O  O176  1  0.66172367  0.63394233  0.44083433  1
  O  O177  1  0.10050433  0.81500267  0.40683467  1
  O  O178  1  0.18499733  0.28550167  0.40683467  1
  O  O179  1  0.97221867  0.33827633  0.44083433  1
  O  O180  1  0.72581300  0.54024400  0.44962100  1
  O  O181  1  0.60920200  0.67051200  0.51054100  1
  O  O182  1  0.86607967  0.00977833  0.48831233  1
  O  O183  1  0.55759200  0.90307000  0.52241800  1
  O  O184  1  0.99022167  0.85630133  0.48831233  1
  O  O185  1  0.36605767  0.02778133  0.44083433  1
  O  O186  1  0.14369867  0.13392033  0.48831233  1
  O  O187  1  0.45975600  0.18556900  0.44962100  1
  O  O188  1  0.50699767  0.60690433  0.56962733  1
  O  O189  1  0.06131000  0.39079800  0.51054100  1
  O  O190  1  0.09693000  0.65452200  0.52241800  1
  O  O191  1  0.00000000  0.00000000  0.54030600  1
  O  O192  1  0.85419867  0.14881033  0.55986733  1
  O  O193  1  0.85118967  0.70538833  0.55986733  1
  O  O194  1  0.32948800  0.93869000  0.51054100  1
  O  O195  1  0.34547800  0.44240800  0.52241800  1
  O  O196  1  0.68603033  0.00346067  0.60792667  1
  O  O197  1  0.09990667  0.49300233  0.56962733  1
  O  O198  1  0.47410600  0.67650200  0.64851900  1
  O  O199  1  0.77363233  0.92857967  0.61380767  1
  O  O200  1  0.29461167  0.14580133  0.55986733  1
  O  O201  1  0.15494733  0.22636767  0.61380767  1
  O  O202  1  0.99653933  0.68256967  0.60792667  1
  O  O203  1  0.39309567  0.90009333  0.56962733  1
  O  O204  1  0.31743033  0.31396967  0.60792667  1
  O  O205  1  0.07142033  0.84505267  0.61380767  1
  O  O206  1  0.20239600  0.52589400  0.64851900  1
  O  O207  1  0.95826767  0.48800733  0.39286033  1
  O  O208  1  0.24755600  0.48263300  0.36086300  1
  O  O209  1  0.23507700  0.75244400  0.36086300  1
  O  O210  1  0.32349800  0.79760400  0.64851900  1
  O  O211  1  0.51736700  0.76492300  0.36086300  1
  O  O212  1  0.59322900  0.01115700  0.45492000  1
  O  O213  1  0.52973967  0.04173233  0.39286033  1
  O  O214  1  0.51199267  0.47026033  0.39286033  1
  O  O215  1  0.98884300  0.58207200  0.45492000  1
  O  O216  1  0.41792800  0.40677100  0.45492000  1
  O  O217  1  0.33333333  0.66666667  0.70293767  1
  O  O218  1  0.24156800  0.77269300  0.86643700  1
  O  O219  1  0.22730700  0.46887500  0.86643700  1
  O  O220  1  0.53112500  0.75843200  0.86643700  1
  O  O221  1  0.58488800  0.58146300  0.95454500  1
  O  O222  1  0.99657500  0.41511200  0.95454500  1
  O  O223  1  0.41853700  0.00342500  0.95454500  1
  O  O224  1  0.40523633  0.33212567  0.68097967  1
  O  O225  1  0.41433733  0.09132567  0.69101567  1
  O  O226  1  0.66787433  0.07311067  0.68097967  1
  O  O227  1  0.67698833  0.58566267  0.69101567  1
  O  O228  1  0.38116500  0.23282900  0.74016800  1
  O  O229  1  0.92688933  0.59476367  0.68097967  1
  O  O230  1  0.90867433  0.32301167  0.69101567  1
  O  O231  1  0.48109767  0.60752033  0.78295433  1
  O  O232  1  0.32839033  0.96727567  0.77416767  1
  O  O233  1  0.76717100  0.14833600  0.74016800  1
  O  O234  1  0.85166400  0.61883500  0.74016800  1
  O  O235  1  0.63888533  0.67160967  0.77416767  1
  O  O236  1  0.39247967  0.87357733  0.78295433  1
  O  O237  1  0.27586867  0.00384533  0.84387433  1
  O  O238  1  0.53274633  0.34311167  0.82164567  1
  O  O239  1  0.22425867  0.23640333  0.85575133  1
  O  O240  1  0.65688833  0.18963467  0.82164567  1
  O  O241  1  0.03272433  0.36111467  0.77416767  1
  O  O242  1  0.81036533  0.46725367  0.82164567  1
  O  O243  1  0.12642267  0.51890233  0.78295433  1
  O  O244  1  0.17366433  0.94023767  0.90296067  1
  O  O245  1  0.72797667  0.72413133  0.84387433  1
  O  O246  1  0.76359667  0.98785533  0.85575133  1
  O  O247  1  0.66666667  0.33333333  0.87363933  1
  O  O248  1  0.52086533  0.48214367  0.89320067  1
  O  O249  1  0.51785633  0.03872167  0.89320067  1
  O  O250  1  0.99615467  0.27202333  0.84387433  1
  O  O251  1  0.01214467  0.77574133  0.85575133  1
  O  O252  1  0.35269700  0.33679400  0.94126000  1
  O  O253  1  0.76657333  0.82633567  0.90296067  1
  O  O254  1  0.14077267  0.00983533  0.98185233  1
  O  O255  1  0.44029900  0.26191300  0.94714100  1
  O  O256  1  0.96127833  0.47913467  0.89320067  1
  O  O257  1  0.82161400  0.55970100  0.94714100  1
  O  O258  1  0.66320600  0.01590300  0.94126000  1
  O  O259  1  0.05976233  0.23342667  0.90296067  1
  O  O260  1  0.98409700  0.64730300  0.94126000  1
  O  O261  1  0.73808700  0.17838600  0.94714100  1
  O  O262  1  0.86906267  0.85922733  0.98185233  1
  O  O263  1  0.62493433  0.82134067  0.72619367  1
  O  O264  1  0.91422267  0.81596633  0.69419633  1
  O  O265  1  0.90174367  0.08577733  0.69419633  1
  O  O266  1  0.99016467  0.13093733  0.98185233  1
  O  O267  1  0.18403367  0.09825633  0.69419633  1
  O  O268  1  0.25989567  0.34449033  0.78825333  1
  O  O269  1  0.19640633  0.37506567  0.72619367  1
  O  O270  1  0.17865933  0.80359367  0.72619367  1
  O  O271  1  0.65550967  0.91540533  0.78825333  1
  O  O272  1  0.08459467  0.74010433  0.78825333  1
