# generated using pymatgen
data_NaAlSi2H2O7
_symmetry_space_group_name_H-M   'P 1'
_cell_length_a   19.59608400
_cell_length_b   13.89370600
_cell_length_c   13.74691970
_cell_angle_alpha   90.00000000
_cell_angle_beta   134.23072359
_cell_angle_gamma   90.00000000
_symmetry_Int_Tables_number   1
_chemical_formula_structural   NaAlSi2H2O7
_chemical_formula_sum   'Na16 Al16 Si32 H32 O112'
_cell_volume   2681.82979310
_cell_formula_units_Z   16
loop_
 _symmetry_equiv_pos_site_id
 _symmetry_equiv_pos_as_xyz
  1  'x, y, z'
loop_
 _atom_site_type_symbol
 _atom_site_label
 _atom_site_symmetry_multiplicity
 _atom_site_fract_x
 _atom_site_fract_y
 _atom_site_fract_z
 _atom_site_occupancy
  Na  Na0  1  0.82797800  0.74053200  0.32295500  1
  Na  Na1  1  0.00000000  0.92595300  0.25000000  1
  Na  Na2  1  0.17202200  0.74053200  0.17704500  1
  Na  Na3  1  0.50000000  0.08036200  0.75000000  1
  Na  Na4  1  0.00000000  0.41963800  0.25000000  1
  Na  Na5  1  0.32797800  0.75946800  0.82295500  1
  Na  Na6  1  0.50000000  0.57404700  0.75000000  1
  Na  Na7  1  0.67202200  0.75946800  0.67704500  1
  Na  Na8  1  0.32797800  0.24053200  0.32295500  1
  Na  Na9  1  0.50000000  0.42595300  0.25000000  1
  Na  Na10  1  0.67202200  0.24053200  0.17704500  1
  Na  Na11  1  0.00000000  0.58036200  0.75000000  1
  Na  Na12  1  0.50000000  0.91963800  0.25000000  1
  Na  Na13  1  0.82797800  0.25946800  0.82295500  1
  Na  Na14  1  0.00000000  0.07404700  0.75000000  1
  Na  Na15  1  0.17202200  0.25946800  0.67704500  1
  Al  Al16  1  0.11898950  0.90550950  0.96480500  1
  Al  Al17  1  0.11898950  0.09449050  0.46480500  1
  Al  Al18  1  0.86761850  0.59277750  0.20058900  1
  Al  Al19  1  0.13238150  0.59277750  0.29941100  1
  Al  Al20  1  0.36761850  0.90722250  0.70058900  1
  Al  Al21  1  0.63238150  0.90722250  0.79941100  1
  Al  Al22  1  0.38101050  0.40550950  0.53519500  1
  Al  Al23  1  0.38101050  0.59449050  0.03519500  1
  Al  Al24  1  0.61898950  0.40550950  0.96480500  1
  Al  Al25  1  0.61898950  0.59449050  0.46480500  1
  Al  Al26  1  0.36761850  0.09277750  0.20058900  1
  Al  Al27  1  0.63238150  0.09277750  0.29941100  1
  Al  Al28  1  0.86761850  0.40722250  0.70058900  1
  Al  Al29  1  0.13238150  0.40722250  0.79941100  1
  Al  Al30  1  0.88101050  0.90550950  0.53519500  1
  Al  Al31  1  0.88101050  0.09449050  0.03519500  1
  Si  Si32  1  0.41345200  0.33240200  0.78530600  1
  Si  Si33  1  0.65024600  0.62489200  0.06417500  1
  Si  Si34  1  0.33713000  0.12798300  0.74278900  1
  Si  Si35  1  0.33713000  0.87201700  0.24278900  1
  Si  Si36  1  0.92964950  0.66834650  0.04551900  1
  Si  Si37  1  0.08654800  0.83240200  0.71469400  1
  Si  Si38  1  0.42964950  0.83165350  0.54551900  1
  Si  Si39  1  0.15024600  0.87510800  0.56417500  1
  Si  Si40  1  0.34975400  0.62489200  0.43582500  1
  Si  Si41  1  0.07035050  0.66834650  0.45448100  1
  Si  Si42  1  0.41345200  0.66759800  0.28530600  1
  Si  Si43  1  0.57035050  0.83165350  0.95448100  1
  Si  Si44  1  0.16287000  0.62798300  0.75721100  1
  Si  Si45  1  0.16287000  0.37201700  0.25721100  1
  Si  Si46  1  0.84975400  0.87510800  0.93582500  1
  Si  Si47  1  0.08654800  0.16759800  0.21469400  1
  Si  Si48  1  0.91345200  0.83240200  0.78530600  1
  Si  Si49  1  0.15024600  0.12489200  0.06417500  1
  Si  Si50  1  0.83713000  0.62798300  0.74278900  1
  Si  Si51  1  0.83713000  0.37201700  0.24278900  1
  Si  Si52  1  0.42964950  0.16834650  0.04551900  1
  Si  Si53  1  0.58654800  0.33240200  0.71469400  1
  Si  Si54  1  0.92964950  0.33165350  0.54551900  1
  Si  Si55  1  0.65024600  0.37510800  0.56417500  1
  Si  Si56  1  0.84975400  0.12489200  0.43582500  1
  Si  Si57  1  0.57035050  0.16834650  0.45448100  1
  Si  Si58  1  0.91345200  0.16759800  0.28530600  1
  Si  Si59  1  0.07035050  0.33165350  0.95448100  1
  Si  Si60  1  0.66287000  0.12798300  0.75721100  1
  Si  Si61  1  0.66287000  0.87201700  0.25721100  1
  Si  Si62  1  0.34975400  0.37510800  0.93582500  1
  Si  Si63  1  0.58654800  0.66759800  0.21469400  1
  H  H64  1  0.13205200  0.08154800  0.73704800  1
  H  H65  1  0.55569300  0.20142100  0.94030800  1
  H  H66  1  0.13205200  0.91845200  0.23704800  1
  H  H67  1  0.93653450  0.60598650  0.49350900  1
  H  H68  1  0.94256500  0.83398900  0.32980800  1
  H  H69  1  0.06346550  0.60598650  0.00649100  1
  H  H70  1  0.94430700  0.70142100  0.55969200  1
  H  H71  1  0.05743500  0.83398900  0.17019200  1
  H  H72  1  0.44256500  0.66601100  0.82980800  1
  H  H73  1  0.55569300  0.79857900  0.44030800  1
  H  H74  1  0.43653450  0.89401350  0.99350900  1
  H  H75  1  0.55743500  0.66601100  0.67019200  1
  H  H76  1  0.56346550  0.89401350  0.50649100  1
  H  H77  1  0.36794800  0.58154800  0.76295200  1
  H  H78  1  0.94430700  0.29857900  0.05969200  1
  H  H79  1  0.36794800  0.41845200  0.26295200  1
  H  H80  1  0.63205200  0.58154800  0.73704800  1
  H  H81  1  0.05569300  0.70142100  0.94030800  1
  H  H82  1  0.63205200  0.41845200  0.23704800  1
  H  H83  1  0.43653450  0.10598650  0.49350900  1
  H  H84  1  0.44256500  0.33398900  0.32980800  1
  H  H85  1  0.56346550  0.10598650  0.00649100  1
  H  H86  1  0.44430700  0.20142100  0.55969200  1
  H  H87  1  0.55743500  0.33398900  0.17019200  1
  H  H88  1  0.94256500  0.16601100  0.82980800  1
  H  H89  1  0.05569300  0.29857900  0.44030800  1
  H  H90  1  0.93653450  0.39401350  0.99350900  1
  H  H91  1  0.05743500  0.16601100  0.67019200  1
  H  H92  1  0.06346550  0.39401350  0.50649100  1
  H  H93  1  0.86794800  0.08154800  0.76295200  1
  H  H94  1  0.44430700  0.79857900  0.05969200  1
  H  H95  1  0.86794800  0.91845200  0.26295200  1
  O  O96  1  0.11058850  0.90194950  0.82929000  1
  O  O97  1  0.09990500  0.02689500  0.97659100  1
  O  O98  1  0.22222150  0.13840150  0.62292600  1
  O  O99  1  0.75977700  0.63783900  0.13966000  1
  O  O100  1  0.38702800  0.21918900  0.73416700  1
  O  O101  1  0.52756000  0.33272100  0.92501600  1
  O  O102  1  0.65020050  0.63278050  0.18387200  1
  O  O103  1  0.61882800  0.64274400  0.75607900  1
  O  O104  1  0.97244000  0.83272100  0.57498400  1
  O  O105  1  0.91900450  0.78757950  0.04684000  1
  O  O106  1  0.11058850  0.09805050  0.32929000  1
  O  O107  1  0.22222150  0.86159850  0.12292600  1
  O  O108  1  0.36696150  0.13600650  0.88771700  1
  O  O109  1  0.91105300  0.63837400  0.52590600  1
  O  O110  1  0.58894700  0.13837400  0.97409400  1
  O  O111  1  0.11882800  0.85725600  0.25607900  1
  O  O112  1  0.89100100  0.61225000  0.10118900  1
  O  O113  1  0.36696150  0.86399350  0.38771700  1
  O  O114  1  0.04304600  0.64981900  0.13829400  1
  O  O115  1  0.09990500  0.97310500  0.47659100  1
  O  O116  1  0.11297200  0.71918900  0.76583300  1
  O  O117  1  0.37755600  0.03134300  0.73289800  1
  O  O118  1  0.34979950  0.63278050  0.31612800  1
  O  O119  1  0.24022300  0.63783900  0.36034000  1
  O  O120  1  0.39100100  0.88775000  0.60118900  1
  O  O121  1  0.08099550  0.78757950  0.45316000  1
  O  O122  1  0.95695400  0.64981900  0.36170600  1
  O  O123  1  0.87755600  0.46865700  0.23289800  1
  O  O124  1  0.62244400  0.03134300  0.76710200  1
  O  O125  1  0.54304600  0.85018100  0.63829400  1
  O  O126  1  0.41900450  0.71242050  0.54684000  1
  O  O127  1  0.10899900  0.61225000  0.39881100  1
  O  O128  1  0.25977700  0.86216100  0.63966000  1
  O  O129  1  0.15020050  0.86721950  0.68387200  1
  O  O130  1  0.12244400  0.46865700  0.26710200  1
  O  O131  1  0.38702800  0.78081100  0.23416700  1
  O  O132  1  0.40009500  0.52689500  0.52340900  1
  O  O133  1  0.45695400  0.85018100  0.86170600  1
  O  O134  1  0.13303850  0.63600650  0.61228300  1
  O  O135  1  0.60899900  0.88775000  0.89881100  1
  O  O136  1  0.38117200  0.64274400  0.74392100  1
  O  O137  1  0.91105300  0.36162600  0.02590600  1
  O  O138  1  0.58894700  0.86162600  0.47409400  1
  O  O139  1  0.13303850  0.36399350  0.11228300  1
  O  O140  1  0.27777850  0.63840150  0.87707400  1
  O  O141  1  0.38941150  0.40194950  0.67071000  1
  O  O142  1  0.58099550  0.71242050  0.95316000  1
  O  O143  1  0.52756000  0.66727900  0.42501600  1
  O  O144  1  0.88117200  0.85725600  0.24392100  1
  O  O145  1  0.84979950  0.86721950  0.81612800  1
  O  O146  1  0.97244000  0.16727900  0.07498400  1
  O  O147  1  0.11297200  0.28081100  0.26583300  1
  O  O148  1  0.74022300  0.86216100  0.86034000  1
  O  O149  1  0.27777850  0.36159850  0.37707400  1
  O  O150  1  0.40009500  0.47310500  0.02340900  1
  O  O151  1  0.38941150  0.59805050  0.17071000  1
  O  O152  1  0.61058850  0.40194950  0.82929000  1
  O  O153  1  0.59990500  0.52689500  0.97659100  1
  O  O154  1  0.72222150  0.63840150  0.62292600  1
  O  O155  1  0.25977700  0.13783900  0.13966000  1
  O  O156  1  0.88702800  0.71918900  0.73416700  1
  O  O157  1  0.02756000  0.83272100  0.92501600  1
  O  O158  1  0.15020050  0.13278050  0.18387200  1
  O  O159  1  0.11882800  0.14274400  0.75607900  1
  O  O160  1  0.47244000  0.33272100  0.57498400  1
  O  O161  1  0.41900450  0.28757950  0.04684000  1
  O  O162  1  0.61058850  0.59805050  0.32929000  1
  O  O163  1  0.72222150  0.36159850  0.12292600  1
  O  O164  1  0.86696150  0.63600650  0.88771700  1
  O  O165  1  0.41105300  0.13837400  0.52590600  1
  O  O166  1  0.08894700  0.63837400  0.97409400  1
  O  O167  1  0.61882800  0.35725600  0.25607900  1
  O  O168  1  0.39100100  0.11225000  0.10118900  1
  O  O169  1  0.86696150  0.36399350  0.38771700  1
  O  O170  1  0.54304600  0.14981900  0.13829400  1
  O  O171  1  0.59990500  0.47310500  0.47659100  1
  O  O172  1  0.61297200  0.21918900  0.76583300  1
  O  O173  1  0.87755600  0.53134300  0.73289800  1
  O  O174  1  0.84979950  0.13278050  0.31612800  1
  O  O175  1  0.74022300  0.13783900  0.36034000  1
  O  O176  1  0.89100100  0.38775000  0.60118900  1
  O  O177  1  0.58099550  0.28757950  0.45316000  1
  O  O178  1  0.45695400  0.14981900  0.36170600  1
  O  O179  1  0.37755600  0.96865700  0.23289800  1
  O  O180  1  0.12244400  0.53134300  0.76710200  1
  O  O181  1  0.04304600  0.35018100  0.63829400  1
  O  O182  1  0.91900450  0.21242050  0.54684000  1
  O  O183  1  0.60899900  0.11225000  0.39881100  1
  O  O184  1  0.75977700  0.36216100  0.63966000  1
  O  O185  1  0.65020050  0.36721950  0.68387200  1
  O  O186  1  0.62244400  0.96865700  0.26710200  1
  O  O187  1  0.88702800  0.28081100  0.23416700  1
  O  O188  1  0.90009500  0.02689500  0.52340900  1
  O  O189  1  0.95695400  0.35018100  0.86170600  1
  O  O190  1  0.63303850  0.13600650  0.61228300  1
  O  O191  1  0.10899900  0.38775000  0.89881100  1
  O  O192  1  0.88117200  0.14274400  0.74392100  1
  O  O193  1  0.41105300  0.86162600  0.02590600  1
  O  O194  1  0.08894700  0.36162600  0.47409400  1
  O  O195  1  0.63303850  0.86399350  0.11228300  1
  O  O196  1  0.77777850  0.13840150  0.87707400  1
  O  O197  1  0.88941150  0.90194950  0.67071000  1
  O  O198  1  0.08099550  0.21242050  0.95316000  1
  O  O199  1  0.02756000  0.16727900  0.42501600  1
  O  O200  1  0.38117200  0.35725600  0.24392100  1
  O  O201  1  0.34979950  0.36721950  0.81612800  1
  O  O202  1  0.47244000  0.66727900  0.07498400  1
  O  O203  1  0.61297200  0.78081100  0.26583300  1
  O  O204  1  0.24022300  0.36216100  0.86034000  1
  O  O205  1  0.77777850  0.86159850  0.37707400  1
  O  O206  1  0.90009500  0.97310500  0.02340900  1
  O  O207  1  0.88941150  0.09805050  0.17071000  1
