# generated using pymatgen
data_K3SnHF8
_symmetry_space_group_name_H-M   'P 1'
_cell_length_a   9.05945200
_cell_length_b   14.26355800
_cell_length_c   6.95966777
_cell_angle_alpha   90.00000000
_cell_angle_beta   92.39940148
_cell_angle_gamma   90.00000000
_symmetry_Int_Tables_number   1
_chemical_formula_structural   K3SnHF8
_chemical_formula_sum   'K12 Sn4 H4 F32'
_cell_volume   898.53993099
_cell_formula_units_Z   4
loop_
 _symmetry_equiv_pos_site_id
 _symmetry_equiv_pos_as_xyz
  1  'x, y, z'
loop_
 _atom_site_type_symbol
 _atom_site_label
 _atom_site_symmetry_multiplicity
 _atom_site_fract_x
 _atom_site_fract_y
 _atom_site_fract_z
 _atom_site_occupancy
  K  K0  1  0.50000000  0.84528600  0.75000000  1
  K  K1  1  0.50000000  0.15471400  0.25000000  1
  K  K2  1  0.22366700  0.09853000  0.72092000  1
  K  K3  1  0.77633300  0.09853000  0.77908000  1
  K  K4  1  0.77633300  0.90147000  0.27908000  1
  K  K5  1  0.22366700  0.90147000  0.22092000  1
  K  K6  1  0.00000000  0.34528600  0.75000000  1
  K  K7  1  0.00000000  0.65471400  0.25000000  1
  K  K8  1  0.72366700  0.59853000  0.72092000  1
  K  K9  1  0.27633300  0.59853000  0.77908000  1
  K  K10  1  0.27633300  0.40147000  0.27908000  1
  K  K11  1  0.72366700  0.40147000  0.22092000  1
  Sn  Sn12  1  0.50000000  0.67761100  0.25000000  1
  Sn  Sn13  1  0.50000000  0.32238900  0.75000000  1
  Sn  Sn14  1  0.00000000  0.17761100  0.25000000  1
  Sn  Sn15  1  0.00000000  0.82238900  0.75000000  1
  H  H16  1  0.50000000  0.00000000  0.50000000  1
  H  H17  1  0.50000000  0.00000000  0.00000000  1
  H  H18  1  0.00000000  0.50000000  0.50000000  1
  H  H19  1  0.00000000  0.50000000  0.00000000  1
  F  F20  1  0.21796350  0.18097650  0.31273300  1
  F  F21  1  0.78203650  0.18097650  0.18726700  1
  F  F22  1  0.78203650  0.81902350  0.68726700  1
  F  F23  1  0.21796350  0.81902350  0.81273300  1
  F  F24  1  0.37795050  0.01928850  0.01546100  1
  F  F25  1  0.62204950  0.01928850  0.48453900  1
  F  F26  1  0.62204950  0.98071150  0.98453900  1
  F  F27  1  0.37795050  0.98071150  0.51546100  1
  F  F28  1  0.50000000  0.53711100  0.25000000  1
  F  F29  1  0.50000000  0.46288900  0.75000000  1
  F  F30  1  0.50000000  0.81824900  0.25000000  1
  F  F31  1  0.50000000  0.18175100  0.75000000  1
  F  F32  1  0.53489850  0.67993250  0.96545700  1
  F  F33  1  0.46510150  0.67993250  0.53454300  1
  F  F34  1  0.46510150  0.32006750  0.03454300  1
  F  F35  1  0.53489850  0.32006750  0.46545700  1
  F  F36  1  0.71796350  0.68097650  0.31273300  1
  F  F37  1  0.28203650  0.68097650  0.18726700  1
  F  F38  1  0.28203650  0.31902350  0.68726700  1
  F  F39  1  0.71796350  0.31902350  0.81273300  1
  F  F40  1  0.87795050  0.51928850  0.01546100  1
  F  F41  1  0.12204950  0.51928850  0.48453900  1
  F  F42  1  0.12204950  0.48071150  0.98453900  1
  F  F43  1  0.87795050  0.48071150  0.51546100  1
  F  F44  1  0.00000000  0.03711100  0.25000000  1
  F  F45  1  0.00000000  0.96288900  0.75000000  1
  F  F46  1  0.00000000  0.31824900  0.25000000  1
  F  F47  1  0.00000000  0.68175100  0.75000000  1
  F  F48  1  0.03489850  0.17993250  0.96545700  1
  F  F49  1  0.96510150  0.17993250  0.53454300  1
  F  F50  1  0.96510150  0.82006750  0.03454300  1
  F  F51  1  0.03489850  0.82006750  0.46545700  1
