# generated using pymatgen
data_ZnH8(N2Cl)2
_symmetry_space_group_name_H-M   'P 1'
_cell_length_a   9.06890000
_cell_length_b   7.86349400
_cell_length_c   4.20228719
_cell_angle_alpha   90.00000000
_cell_angle_beta   104.80435151
_cell_angle_gamma   90.00000000
_symmetry_Int_Tables_number   1
_chemical_formula_structural   ZnH8(N2Cl)2
_chemical_formula_sum   'Zn2 H16 N8 Cl4'
_cell_volume   289.73057871
_cell_formula_units_Z   2
loop_
 _symmetry_equiv_pos_site_id
 _symmetry_equiv_pos_as_xyz
  1  'x, y, z'
loop_
 _atom_site_type_symbol
 _atom_site_label
 _atom_site_symmetry_multiplicity
 _atom_site_fract_x
 _atom_site_fract_y
 _atom_site_fract_z
 _atom_site_occupancy
  Zn  Zn0  1  0.00000000  0.00000000  0.00000000  1
  Zn  Zn1  1  0.50000000  0.50000000  0.00000000  1
  H  H2  1  0.65697500  0.66286700  0.54297500  1
  H  H3  1  0.65697500  0.33713300  0.54297500  1
  H  H4  1  0.34302500  0.33713300  0.45702500  1
  H  H5  1  0.34302500  0.66286700  0.45702500  1
  H  H6  1  0.55772800  0.81171500  0.29767900  1
  H  H7  1  0.55772800  0.18828500  0.29767900  1
  H  H8  1  0.44227200  0.18828500  0.70232100  1
  H  H9  1  0.44227200  0.81171500  0.70232100  1
  H  H10  1  0.15697500  0.16286700  0.54297500  1
  H  H11  1  0.15697500  0.83713300  0.54297500  1
  H  H12  1  0.84302500  0.83713300  0.45702500  1
  H  H13  1  0.84302500  0.16286700  0.45702500  1
  H  H14  1  0.05772800  0.31171500  0.29767900  1
  H  H15  1  0.05772800  0.68828500  0.29767900  1
  H  H16  1  0.94227200  0.68828500  0.70232100  1
  H  H17  1  0.94227200  0.31171500  0.70232100  1
  N  N18  1  0.55133300  0.69247200  0.39426800  1
  N  N19  1  0.55133300  0.30752800  0.39426800  1
  N  N20  1  0.44866700  0.30752800  0.60573200  1
  N  N21  1  0.44866700  0.69247200  0.60573200  1
  N  N22  1  0.05133300  0.19247200  0.39426800  1
  N  N23  1  0.05133300  0.80752800  0.39426800  1
  N  N24  1  0.94866700  0.80752800  0.60573200  1
  N  N25  1  0.94866700  0.19247200  0.60573200  1
  Cl  Cl26  1  0.28413200  0.00000000  0.00410800  1
  Cl  Cl27  1  0.71586800  0.00000000  0.99589200  1
  Cl  Cl28  1  0.78413200  0.50000000  0.00410800  1
  Cl  Cl29  1  0.21586800  0.50000000  0.99589200  1
