# generated using pymatgen
data_KTaPS6
_symmetry_space_group_name_H-M   'P 1'
_cell_length_a   14.22487600
_cell_length_b   18.05985800
_cell_length_c   17.82305789
_cell_angle_alpha   90.00000000
_cell_angle_beta   121.02170431
_cell_angle_gamma   90.00000000
_symmetry_Int_Tables_number   1
_chemical_formula_structural   KTaPS6
_chemical_formula_sum   'K16 Ta16 P16 S96'
_cell_volume   3923.84406305
_cell_formula_units_Z   16
loop_
 _symmetry_equiv_pos_site_id
 _symmetry_equiv_pos_as_xyz
  1  'x, y, z'
loop_
 _atom_site_type_symbol
 _atom_site_label
 _atom_site_symmetry_multiplicity
 _atom_site_fract_x
 _atom_site_fract_y
 _atom_site_fract_z
 _atom_site_occupancy
  K  K0  1  0.82545100  0.32284200  0.48431600  1
  K  K1  1  0.48520700  0.12400200  0.53685700  1
  K  K2  1  0.14731700  0.01622500  0.63187900  1
  K  K3  1  0.48520700  0.37599800  0.03685700  1
  K  K4  1  0.69722300  0.92795800  0.04036000  1
  K  K5  1  0.17454900  0.67715800  0.51568400  1
  K  K6  1  0.30277700  0.42795800  0.45964000  1
  K  K7  1  0.85268300  0.51622500  0.86812100  1
  K  K8  1  0.51479300  0.87599800  0.46314300  1
  K  K9  1  0.85268300  0.98377500  0.36812100  1
  K  K10  1  0.69722300  0.57204200  0.54036000  1
  K  K11  1  0.51479300  0.62400200  0.96314300  1
  K  K12  1  0.17454900  0.82284200  0.01568400  1
  K  K13  1  0.82545100  0.17715800  0.98431600  1
  K  K14  1  0.14731700  0.48377500  0.13187900  1
  K  K15  1  0.30277700  0.07204200  0.95964000  1
  Ta  Ta16  1  0.34117400  0.21764600  0.70110500  1
  Ta  Ta17  1  0.65882600  0.71764600  0.79889500  1
  Ta  Ta18  1  0.50124700  0.88297400  0.74973100  1
  Ta  Ta19  1  0.84599800  0.38214200  0.17306700  1
  Ta  Ta20  1  0.01897700  0.71586000  0.22702700  1
  Ta  Ta21  1  0.65882600  0.78235400  0.29889500  1
  Ta  Ta22  1  0.50124700  0.61702600  0.24973100  1
  Ta  Ta23  1  0.15400200  0.61785800  0.82693300  1
  Ta  Ta24  1  0.01897700  0.78414000  0.72702700  1
  Ta  Ta25  1  0.49875300  0.38297400  0.75026900  1
  Ta  Ta26  1  0.98102300  0.21586000  0.27297300  1
  Ta  Ta27  1  0.49875300  0.11702600  0.25026900  1
  Ta  Ta28  1  0.98102300  0.28414000  0.77297300  1
  Ta  Ta29  1  0.34117400  0.28235400  0.20110500  1
  Ta  Ta30  1  0.15400200  0.88214200  0.32693300  1
  Ta  Ta31  1  0.84599800  0.11785800  0.67306700  1
  P  P32  1  0.84664200  0.79093900  0.51125900  1
  P  P33  1  0.15335800  0.29093900  0.98874100  1
  P  P34  1  0.02860400  0.54935000  0.30922500  1
  P  P35  1  0.70651300  0.10852500  0.45676600  1
  P  P36  1  0.29348700  0.89147500  0.54323400  1
  P  P37  1  0.53006600  0.05203500  0.83550200  1
  P  P38  1  0.46993400  0.94796500  0.16449800  1
  P  P39  1  0.84664200  0.70906100  0.01125900  1
  P  P40  1  0.29348700  0.60852500  0.04323400  1
  P  P41  1  0.97139600  0.45065000  0.69077500  1
  P  P42  1  0.53006600  0.44796500  0.33550200  1
  P  P43  1  0.15335800  0.20906100  0.48874100  1
  P  P44  1  0.97139600  0.04935000  0.19077500  1
  P  P45  1  0.02860400  0.95065000  0.80922500  1
  P  P46  1  0.46993400  0.55203500  0.66449800  1
  P  P47  1  0.70651300  0.39147500  0.95676600  1
  S  S48  1  0.82323600  0.75439500  0.10641600  1
  S  S49  1  0.73421500  0.03851600  0.68177100  1
  S  S50  1  0.84730100  0.38409700  0.68718400  1
  S  S51  1  0.40072200  0.97583500  0.78658500  1
  S  S52  1  0.05158600  0.97513300  0.92571200  1
  S  S53  1  0.17347600  0.21587300  0.08248900  1
  S  S54  1  0.34093900  0.15737200  0.26970900  1
  S  S55  1  0.84831400  0.44510400  0.04404100  1
  S  S56  1  0.29509400  0.68957300  0.96113300  1
  S  S57  1  0.47940200  0.21962900  0.34209200  1
  S  S58  1  0.82323600  0.74560500  0.60641600  1
  S  S59  1  0.64219900  0.52021000  0.33081200  1
  S  S60  1  0.73421500  0.46148400  0.18177100  1
  S  S61  1  0.97132200  0.95369900  0.25758300  1
  S  S62  1  0.59927800  0.47583500  0.71341500  1
  S  S63  1  0.89805300  0.61768300  0.22635200  1
  S  S64  1  0.79730400  0.22863500  0.73829000  1
  S  S65  1  0.70490600  0.31042700  0.03886700  1
  S  S66  1  0.35780100  0.47979000  0.66918800  1
  S  S67  1  0.15269900  0.88409700  0.81281600  1
  S  S68  1  0.84730100  0.11590300  0.18718400  1
  S  S69  1  0.65906100  0.84262800  0.73029100  1
  S  S70  1  0.01077100  0.78764900  0.32847600  1
  S  S71  1  0.64219900  0.97979000  0.83081200  1
  S  S72  1  0.29389200  0.65247300  0.14976700  1
  S  S73  1  0.43411000  0.95386700  0.59902000  1
  S  S74  1  0.10194700  0.11768300  0.27364800  1
  S  S75  1  0.17347600  0.28412700  0.58248900  1
  S  S76  1  0.42157400  0.59216900  0.54654200  1
  S  S77  1  0.59927800  0.02416500  0.21341500  1
  S  S78  1  0.07250700  0.66604600  0.67242800  1
  S  S79  1  0.17676400  0.25439500  0.39358400  1
  S  S80  1  0.84831400  0.05489600  0.54404100  1
  S  S81  1  0.92749300  0.16604600  0.82757200  1
  S  S82  1  0.01077100  0.71235100  0.82847600  1
  S  S83  1  0.72452700  0.84634500  0.23022100  1
  S  S84  1  0.49324900  0.86791900  0.25751400  1
  S  S85  1  0.72165300  0.63576600  0.93270400  1
  S  S86  1  0.89805300  0.88231700  0.72635200  1
  S  S87  1  0.46491600  0.20531700  0.14761800  1
  S  S88  1  0.00086400  0.83470300  0.57901800  1
  S  S89  1  0.27547300  0.15365500  0.76977900  1
  S  S90  1  0.97132200  0.54630100  0.75758300  1
  S  S91  1  0.98922900  0.28764900  0.17152400  1
  S  S92  1  0.53508400  0.79468300  0.85238200  1
  S  S93  1  0.98922900  0.21235100  0.67152400  1
  S  S94  1  0.47940200  0.28037100  0.84209200  1
  S  S95  1  0.07250700  0.83395400  0.17242800  1
  S  S96  1  0.82652400  0.71587300  0.41751100  1
  S  S97  1  0.05158600  0.52486700  0.42571200  1
  S  S98  1  0.27547300  0.34634500  0.26977900  1
  S  S99  1  0.27834700  0.36423400  0.06729600  1
  S  S100  1  0.72165300  0.86423400  0.43270400  1
  S  S101  1  0.79730400  0.27136500  0.23829000  1
  S  S102  1  0.70610800  0.34752700  0.85023300  1
  S  S103  1  0.00086400  0.66529700  0.07901800  1
  S  S104  1  0.35780100  0.02021000  0.16918800  1
  S  S105  1  0.65906100  0.65737200  0.23029100  1
  S  S106  1  0.43411000  0.54613300  0.09902000  1
  S  S107  1  0.15168600  0.55489600  0.95595900  1
  S  S108  1  0.57842600  0.40783100  0.45345800  1
  S  S109  1  0.50675100  0.36791900  0.24248600  1
  S  S110  1  0.72452700  0.65365500  0.73022100  1
  S  S111  1  0.52059800  0.71962900  0.15790800  1
  S  S112  1  0.49324900  0.63208100  0.75751400  1
  S  S113  1  0.10194700  0.38231700  0.77364800  1
  S  S114  1  0.92749300  0.33395400  0.32757200  1
  S  S115  1  0.26578500  0.53851600  0.81822900  1
  S  S116  1  0.99913600  0.33470300  0.92098200  1
  S  S117  1  0.26578500  0.96148400  0.31822900  1
  S  S118  1  0.29509400  0.81042700  0.46113300  1
  S  S119  1  0.27834700  0.13576600  0.56729600  1
  S  S120  1  0.70610800  0.15247300  0.35023300  1
  S  S121  1  0.29389200  0.84752700  0.64976700  1
  S  S122  1  0.15168600  0.94510400  0.45595900  1
  S  S123  1  0.40072200  0.52416500  0.28658500  1
  S  S124  1  0.17676400  0.24560500  0.89358400  1
  S  S125  1  0.70490600  0.18957300  0.53886700  1
  S  S126  1  0.99913600  0.16529700  0.42098200  1
  S  S127  1  0.20269600  0.72863500  0.76171000  1
  S  S128  1  0.20269600  0.77136500  0.26171000  1
  S  S129  1  0.02867800  0.04630100  0.74241700  1
  S  S130  1  0.94841400  0.02486700  0.07428800  1
  S  S131  1  0.46491600  0.29468300  0.64761800  1
  S  S132  1  0.82652400  0.78412700  0.91751100  1
  S  S133  1  0.57842600  0.09216900  0.95345800  1
  S  S134  1  0.94841400  0.47513300  0.57428800  1
  S  S135  1  0.02867800  0.45369900  0.24241700  1
  S  S136  1  0.15269900  0.61590300  0.31281600  1
  S  S137  1  0.56589000  0.04613300  0.40098000  1
  S  S138  1  0.42157400  0.90783100  0.04654200  1
  S  S139  1  0.56589000  0.45386700  0.90098000  1
  S  S140  1  0.34093900  0.34262800  0.76970900  1
  S  S141  1  0.53508400  0.70531700  0.35238200  1
  S  S142  1  0.50675100  0.13208100  0.74248600  1
  S  S143  1  0.52059800  0.78037100  0.65790800  1
