# generated using pymatgen
data_Na6Mo10O33
_symmetry_space_group_name_H-M   'P 1'
_cell_length_a   7.68367900
_cell_length_b   8.20903348
_cell_length_c   12.34112883
_cell_angle_alpha   71.17505695
_cell_angle_beta   72.86088184
_cell_angle_gamma   79.41419267
_symmetry_Int_Tables_number   1
_chemical_formula_structural   Na6Mo10O33
_chemical_formula_sum   'Na6 Mo10 O33'
_cell_volume   700.67852463
_cell_formula_units_Z   1
loop_
 _symmetry_equiv_pos_site_id
 _symmetry_equiv_pos_as_xyz
  1  'x, y, z'
loop_
 _atom_site_type_symbol
 _atom_site_label
 _atom_site_symmetry_multiplicity
 _atom_site_fract_x
 _atom_site_fract_y
 _atom_site_fract_z
 _atom_site_occupancy
  Na  Na0  1  0.89487100  0.65873600  0.21599300  1
  Na  Na1  1  0.36696500  0.61252600  0.23934000  1
  Na  Na2  1  0.63303500  0.38747400  0.76066000  1
  Na  Na3  1  0.10512900  0.34126400  0.78400700  1
  Na  Na4  1  0.85540200  0.15278900  0.23347800  1
  Na  Na5  1  0.14459800  0.84721100  0.76652200  1
  Mo  Mo6  1  0.28758900  0.39172500  0.01777000  1
  Mo  Mo7  1  0.95164600  0.23018500  0.49279100  1
  Mo  Mo8  1  0.71241100  0.60827500  0.98223000  1
  Mo  Mo9  1  0.44943600  0.22802800  0.49914100  1
  Mo  Mo10  1  0.28118700  0.98302700  0.02614800  1
  Mo  Mo11  1  0.32381200  0.06855100  0.31793300  1
  Mo  Mo12  1  0.55056400  0.77197200  0.50085900  1
  Mo  Mo13  1  0.71881300  0.01697300  0.97385200  1
  Mo  Mo14  1  0.04835400  0.76981500  0.50720900  1
  Mo  Mo15  1  0.67618800  0.93144900  0.68206700  1
  O  O16  1  0.71086400  0.54177100  0.13296000  1
  O  O17  1  0.21775200  0.18744100  0.47184900  1
  O  O18  1  0.61002600  0.07525900  0.76803000  1
  O  O19  1  0.22042000  0.01001700  0.89534100  1
  O  O20  1  0.85152200  0.81378400  0.92643900  1
  O  O21  1  0.38997400  0.92474100  0.23197000  1
  O  O22  1  0.06287000  0.61657900  0.64086800  1
  O  O23  1  0.14847800  0.18621600  0.07356100  1
  O  O24  1  0.66531300  0.71309800  0.37337300  1
  O  O25  1  0.77958000  0.98998300  0.10465900  1
  O  O26  1  0.30082900  0.83575500  0.48090700  1
  O  O27  1  0.28913600  0.45822900  0.86704000  1
  O  O28  1  0.33468700  0.28690200  0.62662700  1
  O  O29  1  0.69917100  0.16424500  0.51909300  1
  O  O30  1  0.06320700  0.03314500  0.37860300  1
  O  O31  1  0.48784800  0.42013200  0.38779900  1
  O  O32  1  0.15161400  0.82342900  0.13494200  1
  O  O33  1  0.93713000  0.38342100  0.35913200  1
  O  O34  1  0.53538200  0.06129600  0.37605100  1
  O  O35  1  0.32758100  0.27628700  0.21199100  1
  O  O36  1  0.51215200  0.57986800  0.61220100  1
  O  O37  1  0.93679300  0.96685500  0.62139700  1
  O  O38  1  0.84838600  0.17657100  0.86505800  1
  O  O39  1  0.11321100  0.52721200  0.07872200  1
  O  O40  1  0.10027400  0.65769700  0.40246700  1
  O  O41  1  0.67241900  0.72371300  0.78800900  1
  O  O42  1  0.48386700  0.15619300  0.99229100  1
  O  O43  1  0.46461800  0.93870400  0.62394900  1
  O  O44  1  0.50000000  0.50000000  0.00000000  1
  O  O45  1  0.78224800  0.81255900  0.52815100  1
  O  O46  1  0.88678900  0.47278800  0.92127800  1
  O  O47  1  0.89972600  0.34230300  0.59753300  1
  O  O48  1  0.51613300  0.84380700  0.00770900  1
