# generated using pymatgen
data_BaCO3
_symmetry_space_group_name_H-M   'P 1'
_cell_length_a   7.52416200
_cell_length_b   5.36917600
_cell_length_c   9.06145981
_cell_angle_alpha   90.00000000
_cell_angle_beta   113.82360576
_cell_angle_gamma   90.00000000
_symmetry_Int_Tables_number   1
_chemical_formula_structural   BaCO3
_chemical_formula_sum   'Ba4 C4 O12'
_cell_volume   334.87824588
_cell_formula_units_Z   4
loop_
 _symmetry_equiv_pos_site_id
 _symmetry_equiv_pos_as_xyz
  1  'x, y, z'
loop_
 _atom_site_type_symbol
 _atom_site_label
 _atom_site_symmetry_multiplicity
 _atom_site_fract_x
 _atom_site_fract_y
 _atom_site_fract_z
 _atom_site_occupancy
  Ba  Ba0  1  0.00000000  0.50000000  0.00000000  1
  Ba  Ba1  1  0.00000000  0.00000000  0.50000000  1
  Ba  Ba2  1  0.50000000  0.00000000  0.00000000  1
  Ba  Ba3  1  0.50000000  0.50000000  0.50000000  1
  C  C4  1  0.29366600  0.00000000  0.26591200  1
  C  C5  1  0.20633400  0.50000000  0.73408800  1
  C  C6  1  0.79366600  0.50000000  0.26591200  1
  C  C7  1  0.70633400  0.00000000  0.73408800  1
  O  O8  1  0.70092000  0.79010400  0.80471400  1
  O  O9  1  0.20092000  0.70989600  0.80471400  1
  O  O10  1  0.70975400  0.00000000  0.59295600  1
  O  O11  1  0.29908000  0.79010400  0.19528600  1
  O  O12  1  0.79908000  0.70989600  0.19528600  1
  O  O13  1  0.79024600  0.50000000  0.40704400  1
  O  O14  1  0.20092000  0.29010400  0.80471400  1
  O  O15  1  0.70092000  0.20989600  0.80471400  1
  O  O16  1  0.20975400  0.50000000  0.59295600  1
  O  O17  1  0.79908000  0.29010400  0.19528600  1
  O  O18  1  0.29908000  0.20989600  0.19528600  1
  O  O19  1  0.29024600  0.00000000  0.40704400  1
