# generated using pymatgen
data_K2Na5Al7Si5O24
_symmetry_space_group_name_H-M   'P 1'
_cell_length_a   12.19603400
_cell_length_b   12.70265504
_cell_length_c   12.70633267
_cell_angle_alpha   89.77277261
_cell_angle_beta   89.69772686
_cell_angle_gamma   89.76588901
_symmetry_Int_Tables_number   1
_chemical_formula_structural   K2Na5Al7Si5O24
_chemical_formula_sum   'K4 Na10 Al14 Si10 O48'
_cell_volume   1968.43149233
_cell_formula_units_Z   2
loop_
 _symmetry_equiv_pos_site_id
 _symmetry_equiv_pos_as_xyz
  1  'x, y, z'
loop_
 _atom_site_type_symbol
 _atom_site_label
 _atom_site_symmetry_multiplicity
 _atom_site_fract_x
 _atom_site_fract_y
 _atom_site_fract_z
 _atom_site_occupancy
  K  K0  1  0.50892500  0.61380500  0.01663900  1
  K  K1  1  0.50678000  0.98515100  0.39426200  1
  K  K2  1  0.50090100  0.38034100  0.01719000  1
  K  K3  1  0.50322900  0.98111600  0.62799300  1
  Na  Na4  1  0.19659300  0.79403100  0.19860400  1
  Na  Na5  1  0.18616000  0.21404800  0.19195900  1
  Na  Na6  1  0.19710400  0.81071600  0.78899400  1
  Na  Na7  1  0.18176600  0.19790100  0.79289200  1
  Na  Na8  1  0.81039300  0.19212400  0.49407400  1
  Na  Na9  1  0.81006100  0.50394200  0.81080000  1
  Na  Na10  1  0.80112800  0.80459500  0.20199100  1
  Na  Na11  1  0.81128200  0.20316900  0.18174400  1
  Na  Na12  1  0.81385200  0.81704600  0.79860100  1
  Na  Na13  1  0.82831800  0.18690800  0.81421000  1
  Al  Al14  1  0.01049600  0.37349800  0.81425600  1
  Al  Al15  1  0.18475600  0.63206700  0.99735200  1
  Al  Al16  1  0.19093900  0.99309500  0.61797200  1
  Al  Al17  1  0.35415500  0.17236700  0.00153000  1
  Al  Al18  1  0.35728300  0.00399500  0.82788000  1
  Al  Al19  1  0.63619000  0.82669800  0.99945900  1
  Al  Al20  1  0.63199200  0.99674900  0.17891200  1
  Al  Al21  1  0.63636500  0.17499900  0.00657900  1
  Al  Al22  1  0.64060700  0.00563500  0.83055000  1
  Al  Al23  1  0.81548200  0.63357500  0.00173300  1
  Al  Al24  1  0.81493700  0.37370100  0.00155300  1
  Al  Al25  1  0.81235400  0.00110700  0.36684800  1
  Al  Al26  1  0.81737000  0.00125500  0.62627500  1
  Al  Al27  1  0.00698800  0.18385200  0.36296800  1
  Si  Si28  1  0.00041500  0.81309200  0.37097300  1
  Si  Si29  1  0.00603000  0.63572600  0.81199800  1
  Si  Si30  1  0.01078500  0.18445300  0.62391100  1
  Si  Si31  1  0.19065300  0.37924000  0.99983400  1
  Si  Si32  1  0.18400300  0.99247100  0.36406900  1
  Si  Si33  1  0.36054800  0.82596100  0.99876400  1
  Si  Si34  1  0.35708200  0.99733300  0.17376700  1
  Si  Si35  1  0.00099800  0.63096700  0.18562000  1
  Si  Si36  1  0.00452200  0.38288300  0.18440900  1
  Si  Si37  1  0.00244100  0.81206000  0.61983100  1
  O  O38  1  0.00465000  0.70939200  0.29171900  1
  O  O39  1  0.00485500  0.50717600  0.22532100  1
  O  O40  1  0.02210700  0.29804200  0.28054300  1
  O  O41  1  0.00174200  0.70903100  0.70179900  1
  O  O42  1  0.00243200  0.21940800  0.49860600  1
  O  O43  1  0.02196700  0.28500700  0.70515200  1
  O  O44  1  0.11012900  0.65904900  0.11553900  1
  O  O45  1  0.11285300  0.88167400  0.34052600  1
  O  O46  1  0.11949100  0.09942100  0.32917300  1
  O  O47  1  0.11586600  0.66873700  0.87860800  1
  O  O48  1  0.11244900  0.36372300  0.10708000  1
  O  O49  1  0.11394000  0.87665800  0.64402600  1
  O  O50  1  0.11686100  0.10901300  0.64697300  1
  O  O51  1  0.12613700  0.34423400  0.89309900  1
  O  O52  1  0.23017300  0.50142800  0.99361100  1
  O  O53  1  0.22730300  0.99222000  0.48372400  1
  O  O54  1  0.30238300  0.70973300  0.01068200  1
  O  O55  1  0.29362600  0.97793600  0.28878800  1
  O  O56  1  0.29454900  0.30148300  0.02102500  1
  O  O57  1  0.30403700  0.98476100  0.69936500  1
  O  O58  1  0.32140600  0.89027600  0.10767100  1
  O  O59  1  0.30915100  0.10297500  0.11893600  1
  O  O60  1  0.31279300  0.88701500  0.89690200  1
  O  O61  1  0.29882000  0.11358600  0.89045100  1
  O  O62  1  0.49061400  0.80619900  0.99800000  1
  O  O63  1  0.48506100  0.99803300  0.20099600  1
  O  O64  1  0.49779200  0.00695700  0.81452300  1
  O  O65  1  0.49318000  0.19314500  0.00393300  1
  O  O66  1  0.66965800  0.88129200  0.11852700  1
  O  O67  1  0.67531800  0.11235700  0.12314000  1
  O  O68  1  0.68387700  0.88775300  0.88790900  1
  O  O69  1  0.68923200  0.11766800  0.89281200  1
  O  O70  1  0.69257700  0.69981000  0.00249300  1
  O  O71  1  0.69650600  0.30134200  0.01856100  1
  O  O72  1  0.68798000  0.98373800  0.30506500  1
  O  O73  1  0.70160000  0.99980000  0.70381900  1
  O  O74  1  0.77684700  0.50439300  0.98457500  1
  O  O75  1  0.77559600  0.01761200  0.49778700  1
  O  O76  1  0.89046800  0.66015300  0.12032900  1
  O  O77  1  0.89323600  0.88290800  0.34325800  1
  O  O78  1  0.88209300  0.12173400  0.33349000  1
  O  O79  1  0.89320100  0.66449900  0.87929200  1
  O  O80  1  0.89383600  0.35596500  0.12028200  1
  O  O81  1  0.89338700  0.88101700  0.64568900  1
  O  O82  1  0.89495000  0.12223900  0.65301800  1
  O  O83  1  0.88672000  0.34502100  0.88021600  1
  O  O84  1  0.00467800  0.77320000  0.49432100  1
  O  O85  1  0.00258800  0.51101800  0.78014900  1
