# generated using pymatgen
data_Fe3O4
_symmetry_space_group_name_H-M   'P 1'
_cell_length_a   6.06196000
_cell_length_b   6.08553000
_cell_length_c   17.16227600
_cell_angle_alpha   90.00000000
_cell_angle_beta   90.00000000
_cell_angle_gamma   90.00000000
_symmetry_Int_Tables_number   1
_chemical_formula_structural   Fe3O4
_chemical_formula_sum   'Fe24 O32'
_cell_volume   633.12047095
_cell_formula_units_Z   8
loop_
 _symmetry_equiv_pos_site_id
 _symmetry_equiv_pos_as_xyz
  1  'x, y, z'
loop_
 _atom_site_type_symbol
 _atom_site_label
 _atom_site_symmetry_multiplicity
 _atom_site_fract_x
 _atom_site_fract_y
 _atom_site_fract_z
 _atom_site_occupancy
  Fe  Fe0  1  0.25000000  0.74420900  0.87653700  1
  Fe  Fe1  1  0.75000000  0.24856700  0.62213100  1
  Fe  Fe2  1  0.75000000  0.48840600  0.81161100  1
  Fe  Fe3  1  0.25000000  0.99722700  0.06363000  1
  Fe  Fe4  1  0.75000000  0.51159400  0.31161100  1
  Fe  Fe5  1  0.50000000  0.00879900  0.25000000  1
  Fe  Fe6  1  0.25000000  0.48840600  0.68838900  1
  Fe  Fe7  1  0.25000000  0.25579100  0.37653700  1
  Fe  Fe8  1  0.75000000  0.74420900  0.62346300  1
  Fe  Fe9  1  0.50000000  0.99120100  0.75000000  1
  Fe  Fe10  1  0.25000000  0.75143300  0.37786900  1
  Fe  Fe11  1  0.25000000  0.24856700  0.87786900  1
  Fe  Fe12  1  0.75000000  0.75143300  0.12213100  1
  Fe  Fe13  1  0.00000000  0.99120100  0.75000000  1
  Fe  Fe14  1  0.50000000  0.50000000  0.50000000  1
  Fe  Fe15  1  0.75000000  0.25579100  0.12346300  1
  Fe  Fe16  1  0.25000000  0.51159400  0.18838900  1
  Fe  Fe17  1  0.75000000  0.99722700  0.43637000  1
  Fe  Fe18  1  0.75000000  0.00277300  0.93637000  1
  Fe  Fe19  1  0.00000000  0.00879900  0.25000000  1
  Fe  Fe20  1  0.00000000  0.50000000  0.00000000  1
  Fe  Fe21  1  0.25000000  0.00277300  0.56363000  1
  Fe  Fe22  1  0.00000000  0.50000000  0.50000000  1
  Fe  Fe23  1  0.50000000  0.50000000  0.00000000  1
  O  O24  1  0.51414300  0.48615200  0.62741600  1
  O  O25  1  0.01234300  0.00383500  0.86905600  1
  O  O26  1  0.25000000  0.23766600  0.24887200  1
  O  O27  1  0.75000000  0.74318500  0.50120700  1
  O  O28  1  0.98585700  0.48615200  0.62741600  1
  O  O29  1  0.48585700  0.48615200  0.87258400  1
  O  O30  1  0.48585700  0.51384800  0.37258400  1
  O  O31  1  0.48765700  0.99616500  0.36905600  1
  O  O32  1  0.75000000  0.75350600  0.00502200  1
  O  O33  1  0.75000000  0.25681500  0.00120700  1
  O  O34  1  0.25000000  0.76233400  0.74887200  1
  O  O35  1  0.25000000  0.74318500  0.99879300  1
  O  O36  1  0.98765700  0.99616500  0.13094400  1
  O  O37  1  0.75000000  0.76233400  0.75112800  1
  O  O38  1  0.75000000  0.24649400  0.50502200  1
  O  O39  1  0.75000000  0.22328000  0.74514500  1
  O  O40  1  0.75000000  0.77672000  0.24514500  1
  O  O41  1  0.48765700  0.00383500  0.86905600  1
  O  O42  1  0.25000000  0.77672000  0.25485500  1
  O  O43  1  0.51414300  0.51384800  0.12741600  1
  O  O44  1  0.98765700  0.00383500  0.63094400  1
  O  O45  1  0.25000000  0.24649400  0.99497800  1
  O  O46  1  0.98585700  0.51384800  0.12741600  1
  O  O47  1  0.25000000  0.25681500  0.49879300  1
  O  O48  1  0.25000000  0.75350600  0.49497800  1
  O  O49  1  0.51234300  0.99616500  0.13094400  1
  O  O50  1  0.75000000  0.23766600  0.25112800  1
  O  O51  1  0.01414300  0.48615200  0.87258400  1
  O  O52  1  0.01234300  0.99616500  0.36905600  1
  O  O53  1  0.51234300  0.00383500  0.63094400  1
  O  O54  1  0.25000000  0.22328000  0.75485500  1
  O  O55  1  0.01414300  0.51384800  0.37258400  1
