# generated using pymatgen
data_Yb2S3
_symmetry_space_group_name_H-M   'P 1'
_cell_length_a   8.39585000
_cell_length_b   8.39585000
_cell_length_c   26.17029000
_cell_angle_alpha   90.00000000
_cell_angle_beta   90.00000000
_cell_angle_gamma   90.00000000
_symmetry_Int_Tables_number   1
_chemical_formula_structural   Yb2S3
_chemical_formula_sum   'Yb32 S48'
_cell_volume   1844.75152050
_cell_formula_units_Z   16
loop_
 _symmetry_equiv_pos_site_id
 _symmetry_equiv_pos_as_xyz
  1  'x, y, z'
loop_
 _atom_site_type_symbol
 _atom_site_label
 _atom_site_symmetry_multiplicity
 _atom_site_fract_x
 _atom_site_fract_y
 _atom_site_fract_z
 _atom_site_occupancy
  Yb  Yb0  1  0.21963450  0.12036950  0.03825500  1
  Yb  Yb1  1  0.78036550  0.87963050  0.03825500  1
  Yb  Yb2  1  0.00000000  0.50000000  0.09038500  1
  Yb  Yb3  1  0.63560450  0.25000000  0.12500000  1
  Yb  Yb4  1  0.78036550  0.62036950  0.21174500  1
  Yb  Yb5  1  0.00000000  0.00000000  0.15961500  1
  Yb  Yb6  1  0.21963450  0.37963050  0.21174500  1
  Yb  Yb7  1  0.36439550  0.75000000  0.12500000  1
  Yb  Yb8  1  0.12036950  0.71963450  0.28825500  1
  Yb  Yb9  1  0.25000000  0.13560450  0.37500000  1
  Yb  Yb10  1  0.50000000  0.50000000  0.34038500  1
  Yb  Yb11  1  0.75000000  0.86439550  0.37500000  1
  Yb  Yb12  1  0.87963050  0.28036550  0.28825500  1
  Yb  Yb13  1  0.00000000  0.50000000  0.40961500  1
  Yb  Yb14  1  0.62036950  0.28036550  0.46174500  1
  Yb  Yb15  1  0.37963050  0.71963450  0.46174500  1
  Yb  Yb16  1  0.71963450  0.62036950  0.53825500  1
  Yb  Yb17  1  0.28036550  0.37963050  0.53825500  1
  Yb  Yb18  1  0.50000000  0.00000000  0.59038500  1
  Yb  Yb19  1  0.13560450  0.75000000  0.62500000  1
  Yb  Yb20  1  0.28036550  0.12036950  0.71174500  1
  Yb  Yb21  1  0.50000000  0.50000000  0.65961500  1
  Yb  Yb22  1  0.71963450  0.87963050  0.71174500  1
  Yb  Yb23  1  0.86439550  0.25000000  0.62500000  1
  Yb  Yb24  1  0.62036950  0.21963450  0.78825500  1
  Yb  Yb25  1  0.75000000  0.63560450  0.87500000  1
  Yb  Yb26  1  0.00000000  0.00000000  0.84038500  1
  Yb  Yb27  1  0.25000000  0.36439550  0.87500000  1
  Yb  Yb28  1  0.37963050  0.78036550  0.78825500  1
  Yb  Yb29  1  0.50000000  0.00000000  0.90961500  1
  Yb  Yb30  1  0.12036950  0.78036550  0.96174500  1
  Yb  Yb31  1  0.87963050  0.21963450  0.96174500  1
  S  S32  1  0.32164750  0.36133550  0.10561000  1
  S  S33  1  0.90593150  0.18036650  0.06688400  1
  S  S34  1  0.09406850  0.81963350  0.06688400  1
  S  S35  1  0.90593150  0.31963350  0.18311600  1
  S  S36  1  0.09406850  0.68036650  0.18311600  1
  S  S37  1  0.32164750  0.13866450  0.14439000  1
  S  S38  1  0.67835250  0.63866450  0.10561000  1
  S  S39  1  0.67835250  0.86133550  0.14439000  1
  S  S40  1  0.88316450  0.95389750  0.26540500  1
  S  S41  1  0.45389750  0.61683550  0.23459500  1
  S  S42  1  0.54610250  0.38316450  0.23459500  1
  S  S43  1  0.36133550  0.82164750  0.35561000  1
  S  S44  1  0.63866450  0.17835250  0.35561000  1
  S  S45  1  0.81963350  0.59406850  0.31688400  1
  S  S46  1  0.11683550  0.04610250  0.26540500  1
  S  S47  1  0.18036650  0.40593150  0.31688400  1
  S  S48  1  0.31963350  0.40593150  0.43311600  1
  S  S49  1  0.86133550  0.17835250  0.39439000  1
  S  S50  1  0.45389750  0.88316450  0.01540500  1
  S  S51  1  0.13866450  0.82164750  0.39439000  1
  S  S52  1  0.54610250  0.11683550  0.01540500  1
  S  S53  1  0.68036650  0.59406850  0.43311600  1
  S  S54  1  0.38316450  0.04610250  0.48459500  1
  S  S55  1  0.61683550  0.95389750  0.48459500  1
  S  S56  1  0.82164750  0.86133550  0.60561000  1
  S  S57  1  0.40593150  0.68036650  0.56688400  1
  S  S58  1  0.59406850  0.31963350  0.56688400  1
  S  S59  1  0.40593150  0.81963350  0.68311600  1
  S  S60  1  0.59406850  0.18036650  0.68311600  1
  S  S61  1  0.82164750  0.63866450  0.64439000  1
  S  S62  1  0.17835250  0.13866450  0.60561000  1
  S  S63  1  0.17835250  0.36133550  0.64439000  1
  S  S64  1  0.38316450  0.45389750  0.76540500  1
  S  S65  1  0.95389750  0.11683550  0.73459500  1
  S  S66  1  0.04610250  0.88316450  0.73459500  1
  S  S67  1  0.86133550  0.32164750  0.85561000  1
  S  S68  1  0.13866450  0.67835250  0.85561000  1
  S  S69  1  0.31963350  0.09406850  0.81688400  1
  S  S70  1  0.61683550  0.54610250  0.76540500  1
  S  S71  1  0.68036650  0.90593150  0.81688400  1
  S  S72  1  0.81963350  0.90593150  0.93311600  1
  S  S73  1  0.36133550  0.67835250  0.89439000  1
  S  S74  1  0.95389750  0.38316450  0.51540500  1
  S  S75  1  0.63866450  0.32164750  0.89439000  1
  S  S76  1  0.04610250  0.61683550  0.51540500  1
  S  S77  1  0.18036650  0.09406850  0.93311600  1
  S  S78  1  0.88316450  0.54610250  0.98459500  1
  S  S79  1  0.11683550  0.45389750  0.98459500  1
