# generated using pymatgen
data_CsMg4Al9(SiO4)9
_symmetry_space_group_name_H-M   'P 1'
_cell_length_a   9.52043300
_cell_length_b   9.86174774
_cell_length_c   9.88766913
_cell_angle_alpha   119.65971729
_cell_angle_beta   89.99868461
_cell_angle_gamma   90.02218220
_symmetry_Int_Tables_number   1
_chemical_formula_structural   CsMg4Al9(SiO4)9
_chemical_formula_sum   'Cs1 Mg4 Al9 Si9 O36'
_cell_volume   806.70375027
_cell_formula_units_Z   1
loop_
 _symmetry_equiv_pos_site_id
 _symmetry_equiv_pos_as_xyz
  1  'x, y, z'
loop_
 _atom_site_type_symbol
 _atom_site_label
 _atom_site_symmetry_multiplicity
 _atom_site_fract_x
 _atom_site_fract_y
 _atom_site_fract_z
 _atom_site_occupancy
  Cs  Cs0  1  0.24318200  0.99998500  0.99331200  1
  Mg  Mg1  1  0.75245200  0.66696800  0.33233700  1
  Mg  Mg2  1  0.24756100  0.66707700  0.33235400  1
  Mg  Mg3  1  0.75239500  0.33473800  0.67662100  1
  Mg  Mg4  1  0.24724800  0.33485300  0.67752300  1
  Al  Al5  1  0.75074000  0.49748100  0.99776500  1
  Al  Al6  1  0.24929800  0.49755100  0.99807400  1
  Al  Al7  1  0.75146000  0.50169100  0.50272700  1
  Al  Al8  1  0.24852800  0.50158900  0.50305600  1
  Al  Al9  1  0.74904300  0.00111700  0.50230100  1
  Al  Al10  1  0.25093900  0.00124600  0.50330700  1
  Al  Al11  1  0.99962700  0.63103600  0.89334300  1
  Al  Al12  1  0.99934000  0.11489800  0.73705000  1
  Al  Al13  1  0.50052800  0.25964000  0.89204700  1
  Si  Si14  1  0.50024300  0.73139900  0.10447800  1
  Si  Si15  1  0.00030900  0.89659500  0.27021000  1
  Si  Si16  1  0.00029500  0.37840500  0.11311300  1
  Si  Si17  1  0.49978000  0.37325500  0.26924700  1
  Si  Si18  1  0.49979000  0.88553500  0.62132900  1
  Si  Si19  1  0.99984600  0.26858900  0.37765700  1
  Si  Si20  1  0.00075700  0.73515900  0.62132500  1
  Si  Si21  1  0.50005100  0.10231700  0.36789500  1
  Si  Si22  1  0.50024900  0.62384400  0.73360800  1
  O  O23  1  0.00461700  0.78583600  0.08631000  1
  O  O24  1  0.49751800  0.92186200  0.21931400  1
  O  O25  1  0.64203700  0.65589200  0.13641900  1
  O  O26  1  0.35816500  0.65594500  0.13626800  1
  O  O27  1  0.85823500  0.48738500  0.14318600  1
  O  O28  1  0.14203000  0.48852600  0.14414900  1
  O  O29  1  0.14208300  0.86634800  0.34908300  1
  O  O30  1  0.85819400  0.86582900  0.34818300  1
  O  O31  1  0.49532600  0.30106600  0.08576900  1
  O  O32  1  0.00268000  0.30913700  0.23522300  1
  O  O33  1  0.64057800  0.85633600  0.51132100  1
  O  O34  1  0.35934000  0.85542600  0.51032400  1
  O  O35  1  0.64059400  0.48288700  0.35018200  1
  O  O36  1  0.35936300  0.48312600  0.35099900  1
  O  O37  1  0.49738000  0.22790400  0.30637800  1
  O  O38  1  0.85952200  0.65135200  0.51004300  1
  O  O39  1  0.14098100  0.65037000  0.50846000  1
  O  O40  1  0.00497100  0.91843900  0.68584200  1
  O  O41  1  0.00261100  0.08070600  0.30924800  1
  O  O42  1  0.85684900  0.34456800  0.48174200  1
  O  O43  1  0.14324700  0.34431600  0.48177600  1
  O  O44  1  0.49733600  0.76485800  0.69129100  1
  O  O45  1  0.64182400  0.51811900  0.65567800  1
  O  O46  1  0.35822200  0.51814200  0.65598800  1
  O  O47  1  0.64048400  0.13046700  0.47304600  1
  O  O48  1  0.35911600  0.13003500  0.47267200  1
  O  O49  1  0.00519500  0.69705500  0.76054200  1
  O  O50  1  0.49754700  0.69908200  0.92346400  1
  O  O51  1  0.14951100  0.14217500  0.65032900  1
  O  O52  1  0.85065100  0.14203600  0.64921000  1
  O  O53  1  0.85190200  0.51579700  0.86214300  1
  O  O54  1  0.14884000  0.51714200  0.86274400  1
  O  O55  1  0.64588300  0.34798800  0.86267600  1
  O  O56  1  0.35350500  0.34706000  0.86333100  1
  O  O57  1  0.49503500  0.05836000  0.76625400  1
  O  O58  1  0.00497000  0.23346100  0.93973200  1
