# generated using pymatgen
data_SiO2
_symmetry_space_group_name_H-M   'P 1'
_cell_length_a   5.27814600
_cell_length_b   14.18995800
_cell_length_c   17.31648300
_cell_angle_alpha   90.00000000
_cell_angle_beta   90.00000000
_cell_angle_gamma   90.00000000
_symmetry_Int_Tables_number   1
_chemical_formula_structural   SiO2
_chemical_formula_sum   'Si24 O48'
_cell_volume   1296.94691381
_cell_formula_units_Z   24
loop_
 _symmetry_equiv_pos_site_id
 _symmetry_equiv_pos_as_xyz
  1  'x, y, z'
loop_
 _atom_site_type_symbol
 _atom_site_label
 _atom_site_symmetry_multiplicity
 _atom_site_fract_x
 _atom_site_fract_y
 _atom_site_fract_z
 _atom_site_occupancy
  Si  Si0  1  0.00000000  0.25756200  0.55371200  1
  Si  Si1  1  0.50000000  0.24243800  0.44628800  1
  Si  Si2  1  0.00000000  0.25756200  0.94628800  1
  Si  Si3  1  0.50000000  0.24243800  0.05371200  1
  Si  Si4  1  0.00000000  0.07112500  0.65761700  1
  Si  Si5  1  0.50000000  0.42887500  0.34238300  1
  Si  Si6  1  0.00000000  0.07112500  0.84238300  1
  Si  Si7  1  0.50000000  0.42887500  0.15761700  1
  Si  Si8  1  0.00000000  0.47121000  0.59072900  1
  Si  Si9  1  0.50000000  0.02879000  0.40927100  1
  Si  Si10  1  0.00000000  0.47121000  0.90927100  1
  Si  Si11  1  0.50000000  0.02879000  0.09072900  1
  Si  Si12  1  0.50000000  0.75756200  0.55371200  1
  Si  Si13  1  0.00000000  0.74243800  0.44628800  1
  Si  Si14  1  0.50000000  0.75756200  0.94628800  1
  Si  Si15  1  0.00000000  0.74243800  0.05371200  1
  Si  Si16  1  0.50000000  0.57112500  0.65761700  1
  Si  Si17  1  0.00000000  0.92887500  0.34238300  1
  Si  Si18  1  0.50000000  0.57112500  0.84238300  1
  Si  Si19  1  0.00000000  0.92887500  0.15761700  1
  Si  Si20  1  0.50000000  0.97121000  0.59072900  1
  Si  Si21  1  0.00000000  0.52879000  0.40927100  1
  Si  Si22  1  0.50000000  0.97121000  0.90927100  1
  Si  Si23  1  0.00000000  0.52879000  0.09072900  1
  O  O24  1  0.00000000  0.17389300  0.61706900  1
  O  O25  1  0.50000000  0.32610700  0.38293100  1
  O  O26  1  0.00000000  0.17389300  0.88293100  1
  O  O27  1  0.50000000  0.32610700  0.11706900  1
  O  O28  1  0.25000000  0.25000000  0.50000000  1
  O  O29  1  0.75000000  0.25000000  0.50000000  1
  O  O30  1  0.75000000  0.25000000  0.00000000  1
  O  O31  1  0.25000000  0.25000000  0.00000000  1
  O  O32  1  0.00000000  0.35733100  0.59973900  1
  O  O33  1  0.50000000  0.14266900  0.40026100  1
  O  O34  1  0.00000000  0.35733100  0.90026100  1
  O  O35  1  0.50000000  0.14266900  0.09973900  1
  O  O36  1  0.75016750  0.01253150  0.63244500  1
  O  O37  1  0.25016750  0.48746850  0.36755500  1
  O  O38  1  0.24983250  0.01253150  0.86755500  1
  O  O39  1  0.74983250  0.48746850  0.13244500  1
  O  O40  1  0.74983250  0.48746850  0.36755500  1
  O  O41  1  0.24983250  0.01253150  0.63244500  1
  O  O42  1  0.25016750  0.48746850  0.13244500  1
  O  O43  1  0.75016750  0.01253150  0.86755500  1
  O  O44  1  0.00000000  0.08606300  0.75000000  1
  O  O45  1  0.50000000  0.41393700  0.25000000  1
  O  O46  1  0.50000000  0.00000000  0.50000000  1
  O  O47  1  0.50000000  0.00000000  0.00000000  1
  O  O48  1  0.50000000  0.67389300  0.61706900  1
  O  O49  1  0.00000000  0.82610700  0.38293100  1
  O  O50  1  0.50000000  0.67389300  0.88293100  1
  O  O51  1  0.00000000  0.82610700  0.11706900  1
  O  O52  1  0.75000000  0.75000000  0.50000000  1
  O  O53  1  0.25000000  0.75000000  0.50000000  1
  O  O54  1  0.25000000  0.75000000  0.00000000  1
  O  O55  1  0.75000000  0.75000000  0.00000000  1
  O  O56  1  0.50000000  0.85733100  0.59973900  1
  O  O57  1  0.00000000  0.64266900  0.40026100  1
  O  O58  1  0.50000000  0.85733100  0.90026100  1
  O  O59  1  0.00000000  0.64266900  0.09973900  1
  O  O60  1  0.25016750  0.51253150  0.63244500  1
  O  O61  1  0.75016750  0.98746850  0.36755500  1
  O  O62  1  0.74983250  0.51253150  0.86755500  1
  O  O63  1  0.24983250  0.98746850  0.13244500  1
  O  O64  1  0.24983250  0.98746850  0.36755500  1
  O  O65  1  0.74983250  0.51253150  0.63244500  1
  O  O66  1  0.75016750  0.98746850  0.13244500  1
  O  O67  1  0.25016750  0.51253150  0.86755500  1
  O  O68  1  0.50000000  0.58606300  0.75000000  1
  O  O69  1  0.00000000  0.91393700  0.25000000  1
  O  O70  1  0.00000000  0.50000000  0.50000000  1
  O  O71  1  0.00000000  0.50000000  0.00000000  1
