# generated using pymatgen
data_Sr3Nd2(BO3)4
_symmetry_space_group_name_H-M   'P 1'
_cell_length_a   7.38948100
_cell_length_b   8.87735800
_cell_length_c   16.72462200
_cell_angle_alpha   90.00000000
_cell_angle_beta   90.00000000
_cell_angle_gamma   90.00000000
_symmetry_Int_Tables_number   1
_chemical_formula_structural   Sr3Nd2(BO3)4
_chemical_formula_sum   'Sr12 Nd8 B16 O48'
_cell_volume   1097.11962039
_cell_formula_units_Z   4
loop_
 _symmetry_equiv_pos_site_id
 _symmetry_equiv_pos_as_xyz
  1  'x, y, z'
loop_
 _atom_site_type_symbol
 _atom_site_label
 _atom_site_symmetry_multiplicity
 _atom_site_fract_x
 _atom_site_fract_y
 _atom_site_fract_z
 _atom_site_occupancy
  Sr  Sr0  1  0.67690500  0.35080900  0.91348900  1
  Sr  Sr1  1  0.32309500  0.64919100  0.41348900  1
  Sr  Sr2  1  0.82309500  0.85080900  0.41348900  1
  Sr  Sr3  1  0.17690500  0.14919100  0.91348900  1
  Sr  Sr4  1  0.96307700  0.32947600  0.70830800  1
  Sr  Sr5  1  0.03692300  0.67052400  0.20830800  1
  Sr  Sr6  1  0.53692300  0.82947600  0.20830800  1
  Sr  Sr7  1  0.46307700  0.17052400  0.70830800  1
  Sr  Sr8  1  0.69285200  0.35127800  0.16214600  1
  Sr  Sr9  1  0.30714800  0.64872200  0.66214600  1
  Sr  Sr10  1  0.80714800  0.85127800  0.66214600  1
  Sr  Sr11  1  0.19285200  0.14872200  0.16214600  1
  Nd  Nd12  1  0.97169900  0.32894900  0.37045100  1
  Nd  Nd13  1  0.02830100  0.67105100  0.87045100  1
  Nd  Nd14  1  0.52830100  0.82894900  0.87045100  1
  Nd  Nd15  1  0.47169900  0.17105100  0.37045100  1
  Nd  Nd16  1  0.68447100  0.46636100  0.54068700  1
  Nd  Nd17  1  0.31552900  0.53363900  0.04068700  1
  Nd  Nd18  1  0.81552900  0.96636100  0.04068700  1
  Nd  Nd19  1  0.18447100  0.03363900  0.54068700  1
  B  B20  1  0.98546000  0.37134400  0.03492500  1
  B  B21  1  0.01454000  0.62865600  0.53492500  1
  B  B22  1  0.51454000  0.87134400  0.53492500  1
  B  B23  1  0.48546000  0.12865600  0.03492500  1
  B  B24  1  0.27940600  0.35414200  0.53855700  1
  B  B25  1  0.72059400  0.64585800  0.03855700  1
  B  B26  1  0.22059400  0.85414200  0.03855700  1
  B  B27  1  0.77940600  0.14585800  0.53855700  1
  B  B28  1  0.33849900  0.43669200  0.24799200  1
  B  B29  1  0.66150100  0.56330800  0.74799200  1
  B  B30  1  0.16150100  0.93669200  0.74799200  1
  B  B31  1  0.83849900  0.06330800  0.24799200  1
  B  B32  1  0.32651900  0.45167700  0.83280000  1
  B  B33  1  0.67348100  0.54832300  0.33280000  1
  B  B34  1  0.17348100  0.95167700  0.33280000  1
  B  B35  1  0.82651900  0.04832300  0.83280000  1
  O  O36  1  0.38379400  0.25979200  0.03138300  1
  O  O37  1  0.61620600  0.74020800  0.53138300  1
  O  O38  1  0.11620600  0.75979200  0.53138300  1
  O  O39  1  0.88379400  0.24020800  0.03138300  1
  O  O40  1  0.04899000  0.42646200  0.10754700  1
  O  O41  1  0.95101000  0.57353800  0.60754700  1
  O  O42  1  0.45101000  0.92646200  0.60754700  1
  O  O43  1  0.54899000  0.07353800  0.10754700  1
  O  O44  1  0.03906800  0.44699600  0.96488700  1
  O  O45  1  0.96093200  0.55300400  0.46488700  1
  O  O46  1  0.46093200  0.94699600  0.46488700  1
  O  O47  1  0.53906800  0.05300400  0.96488700  1
  O  O48  1  0.23032600  0.27885600  0.60719400  1
  O  O49  1  0.76967400  0.72114400  0.10719400  1
  O  O50  1  0.26967400  0.77885600  0.10719400  1
  O  O51  1  0.73032600  0.22114400  0.60719400  1
  O  O52  1  0.25018400  0.27858200  0.46638000  1
  O  O53  1  0.74981600  0.72141800  0.96638000  1
  O  O54  1  0.24981600  0.77858200  0.96638000  1
  O  O55  1  0.75018400  0.22141800  0.46638000  1
  O  O56  1  0.63503700  0.50870400  0.03959000  1
  O  O57  1  0.36496300  0.49129600  0.53959000  1
  O  O58  1  0.86496300  0.00870400  0.53959000  1
  O  O59  1  0.13503700  0.99129600  0.03959000  1
  O  O60  1  0.20801300  0.46989000  0.30542100  1
  O  O61  1  0.79198700  0.53011000  0.80542100  1
  O  O62  1  0.29198700  0.96989000  0.80542100  1
  O  O63  1  0.70801300  0.03011000  0.30542100  1
  O  O64  1  0.41973600  0.29474900  0.24871500  1
  O  O65  1  0.58026400  0.70525100  0.74871500  1
  O  O66  1  0.08026400  0.79474900  0.74871500  1
  O  O67  1  0.91973600  0.20525100  0.24871500  1
  O  O68  1  0.61535600  0.46368700  0.68808900  1
  O  O69  1  0.38464400  0.53631300  0.18808900  1
  O  O70  1  0.88464400  0.96368700  0.18808900  1
  O  O71  1  0.11535600  0.03631300  0.68808900  1
  O  O72  1  0.81036300  0.50585900  0.28069000  1
  O  O73  1  0.18963700  0.49414100  0.78069000  1
  O  O74  1  0.68963700  0.00585900  0.78069000  1
  O  O75  1  0.31036300  0.99414100  0.28069000  1
  O  O76  1  0.39425700  0.30720000  0.83349000  1
  O  O77  1  0.60574300  0.69280000  0.33349000  1
  O  O78  1  0.10574300  0.80720000  0.33349000  1
  O  O79  1  0.89425700  0.19280000  0.83349000  1
  O  O80  1  0.61237300  0.44150300  0.38840500  1
  O  O81  1  0.38762700  0.55849700  0.88840500  1
  O  O82  1  0.88762700  0.94150300  0.88840500  1
  O  O83  1  0.11237300  0.05849700  0.38840500  1
