# generated using pymatgen
data_V2Bi8O17
_symmetry_space_group_name_H-M   'P 1'
_cell_length_a   7.50232600
_cell_length_b   3.71688200
_cell_length_c   32.17732774
_cell_angle_alpha   90.00000000
_cell_angle_beta   94.73302090
_cell_angle_gamma   90.00000000
_symmetry_Int_Tables_number   1
_chemical_formula_structural   V2Bi8O17
_chemical_formula_sum   'V4 Bi16 O34'
_cell_volume   894.21346222
_cell_formula_units_Z   2
loop_
 _symmetry_equiv_pos_site_id
 _symmetry_equiv_pos_as_xyz
  1  'x, y, z'
loop_
 _atom_site_type_symbol
 _atom_site_label
 _atom_site_symmetry_multiplicity
 _atom_site_fract_x
 _atom_site_fract_y
 _atom_site_fract_z
 _atom_site_occupancy
  V  V0  1  0.70493300  0.00000000  0.39049000  1
  V  V1  1  0.80952500  0.50000000  0.21366300  1
  V  V2  1  0.20493300  0.50000000  0.39049000  1
  V  V3  1  0.30952500  0.00000000  0.21366300  1
  Bi  Bi4  1  0.00507600  0.00000000  0.02529700  1
  Bi  Bi5  1  0.36399400  0.00000000  0.90894100  1
  Bi  Bi6  1  0.09291500  0.50000000  0.80635300  1
  Bi  Bi7  1  0.94742000  0.00000000  0.69122800  1
  Bi  Bi8  1  0.19382000  0.00000000  0.59031800  1
  Bi  Bi9  1  0.03784200  0.50000000  0.47728600  1
  Bi  Bi10  1  0.14363200  0.00000000  0.30153000  1
  Bi  Bi11  1  0.75539800  0.00000000  0.12528900  1
  Bi  Bi12  1  0.50507600  0.50000000  0.02529700  1
  Bi  Bi13  1  0.86399400  0.50000000  0.90894100  1
  Bi  Bi14  1  0.59291500  0.00000000  0.80635300  1
  Bi  Bi15  1  0.44742000  0.50000000  0.69122800  1
  Bi  Bi16  1  0.69382000  0.50000000  0.59031800  1
  Bi  Bi17  1  0.53784200  0.00000000  0.47728600  1
  Bi  Bi18  1  0.64363200  0.50000000  0.30153000  1
  Bi  Bi19  1  0.25539800  0.50000000  0.12528900  1
  O  O20  1  0.10694900  0.50000000  0.87538600  1
  O  O21  1  0.45985600  0.50000000  0.94385100  1
  O  O22  1  0.26820300  0.00000000  0.80737500  1
  O  O23  1  0.19513500  0.00000000  0.65861900  1
  O  O24  1  0.04525900  0.50000000  0.72578600  1
  O  O25  1  0.87061800  0.00000000  0.59239900  1
  O  O26  1  0.79939500  0.00000000  0.44426900  1
  O  O27  1  0.15506000  0.00000000  0.50937700  1
  O  O28  1  0.18243800  0.00000000  0.37730900  1
  O  O29  1  0.99229500  0.50000000  0.40353700  1
  O  O30  1  0.90456000  0.50000000  0.26828900  1
  O  O31  1  0.76941300  0.00000000  0.33198600  1
  O  O32  1  0.78683100  0.00000000  0.19988000  1
  O  O33  1  0.09718100  0.00000000  0.22586100  1
  O  O34  1  0.01486100  0.00000000  0.09398700  1
  O  O35  1  0.87482700  0.50000000  0.15627300  1
  O  O36  1  0.68136800  0.00000000  0.02781600  1
  O  O37  1  0.60694900  0.00000000  0.87538600  1
  O  O38  1  0.95985600  0.00000000  0.94385100  1
  O  O39  1  0.76820300  0.50000000  0.80737500  1
  O  O40  1  0.69513500  0.50000000  0.65861900  1
  O  O41  1  0.54525900  0.00000000  0.72578600  1
  O  O42  1  0.37061800  0.50000000  0.59239900  1
  O  O43  1  0.29939500  0.50000000  0.44426900  1
  O  O44  1  0.65506000  0.50000000  0.50937700  1
  O  O45  1  0.68243800  0.50000000  0.37730900  1
  O  O46  1  0.49229500  0.00000000  0.40353700  1
  O  O47  1  0.40456000  0.00000000  0.26828900  1
  O  O48  1  0.26941300  0.50000000  0.33198600  1
  O  O49  1  0.28683100  0.50000000  0.19988000  1
  O  O50  1  0.59718100  0.50000000  0.22586100  1
  O  O51  1  0.51486100  0.50000000  0.09398700  1
  O  O52  1  0.37482700  0.00000000  0.15627300  1
  O  O53  1  0.18136800  0.50000000  0.02781600  1
