# generated using pymatgen
data_Sn3(HO2)2
_symmetry_space_group_name_H-M   'P 1'
_cell_length_a   11.74099600
_cell_length_b   11.96552000
_cell_length_c   9.63485360
_cell_angle_alpha   90.00000000
_cell_angle_beta   94.89986541
_cell_angle_gamma   90.00000000
_symmetry_Int_Tables_number   1
_chemical_formula_structural   Sn3(HO2)2
_chemical_formula_sum   'Sn24 H16 O32'
_cell_volume   1348.62622169
_cell_formula_units_Z   8
loop_
 _symmetry_equiv_pos_site_id
 _symmetry_equiv_pos_as_xyz
  1  'x, y, z'
loop_
 _atom_site_type_symbol
 _atom_site_label
 _atom_site_symmetry_multiplicity
 _atom_site_fract_x
 _atom_site_fract_y
 _atom_site_fract_z
 _atom_site_occupancy
  Sn  Sn0  1  0.65866800  0.04736100  0.48698000  1
  Sn  Sn1  1  0.54622950  0.67970250  0.96709400  1
  Sn  Sn2  1  0.30103350  0.94886050  0.54940700  1
  Sn  Sn3  1  0.45076750  0.33506050  0.00439600  1
  Sn  Sn4  1  0.54622950  0.32029750  0.46709400  1
  Sn  Sn5  1  0.65866800  0.95263900  0.98698000  1
  Sn  Sn6  1  0.45076750  0.66493950  0.50439600  1
  Sn  Sn7  1  0.30103350  0.05113950  0.04940700  1
  Sn  Sn8  1  0.75909400  0.21249400  0.76836300  1
  Sn  Sn9  1  0.75090150  0.75544350  0.73415900  1
  Sn  Sn10  1  0.75090150  0.24455650  0.23415900  1
  Sn  Sn11  1  0.75909400  0.78750600  0.26836300  1
  Sn  Sn12  1  0.15866800  0.54736100  0.48698000  1
  Sn  Sn13  1  0.04622950  0.17970250  0.96709400  1
  Sn  Sn14  1  0.80103350  0.44886050  0.54940700  1
  Sn  Sn15  1  0.95076750  0.83506050  0.00439600  1
  Sn  Sn16  1  0.04622950  0.82029750  0.46709400  1
  Sn  Sn17  1  0.15866800  0.45263900  0.98698000  1
  Sn  Sn18  1  0.95076750  0.16493950  0.50439600  1
  Sn  Sn19  1  0.80103350  0.55113950  0.04940700  1
  Sn  Sn20  1  0.25909400  0.71249400  0.76836300  1
  Sn  Sn21  1  0.25090150  0.25544350  0.73415900  1
  Sn  Sn22  1  0.25090150  0.74455650  0.23415900  1
  Sn  Sn23  1  0.25909400  0.28750600  0.26836300  1
  H  H24  1  0.82275500  0.99992500  0.74450400  1
  H  H25  1  0.50651150  0.83377150  0.75126200  1
  H  H26  1  0.13595050  0.88923050  0.72410100  1
  H  H27  1  0.43141450  0.13795650  0.86280500  1
  H  H28  1  0.50651150  0.16622850  0.25126200  1
  H  H29  1  0.82275500  0.00007500  0.24450400  1
  H  H30  1  0.43141450  0.86204350  0.36280500  1
  H  H31  1  0.13595050  0.11076950  0.22410100  1
  H  H32  1  0.32275500  0.49992500  0.74450400  1
  H  H33  1  0.00651150  0.33377150  0.75126200  1
  H  H34  1  0.63595050  0.38923050  0.72410100  1
  H  H35  1  0.93141450  0.63795650  0.86280500  1
  H  H36  1  0.00651150  0.66622850  0.25126200  1
  H  H37  1  0.32275500  0.50007500  0.24450400  1
  H  H38  1  0.93141450  0.36204350  0.36280500  1
  H  H39  1  0.63595050  0.61076950  0.22410100  1
  O  O40  1  0.81215000  0.06150300  0.67504400  1
  O  O41  1  0.57545350  0.82754550  0.81849400  1
  O  O42  1  0.14050900  0.93545500  0.64054000  1
  O  O43  1  0.43202450  0.21462050  0.83001200  1
  O  O44  1  0.57545350  0.17245450  0.31849400  1
  O  O45  1  0.81215000  0.93849700  0.17504400  1
  O  O46  1  0.43202450  0.78537950  0.33001200  1
  O  O47  1  0.14050900  0.06454500  0.14054000  1
  O  O48  1  0.63193050  0.19651350  0.59711400  1
  O  O49  1  0.20535100  0.13527500  0.88609700  1
  O  O50  1  0.37377150  0.79435650  0.63427200  1
  O  O51  1  0.80002250  0.89128850  0.88136100  1
  O  O52  1  0.20535100  0.86472500  0.38609700  1
  O  O53  1  0.63193050  0.80348650  0.09711400  1
  O  O54  1  0.80002250  0.10871150  0.38136100  1
  O  O55  1  0.37377150  0.20564350  0.13427200  1
  O  O56  1  0.31215000  0.56150300  0.67504400  1
  O  O57  1  0.07545350  0.32754550  0.81849400  1
  O  O58  1  0.64050900  0.43545500  0.64054000  1
  O  O59  1  0.93202450  0.71462050  0.83001200  1
  O  O60  1  0.07545350  0.67245450  0.31849400  1
  O  O61  1  0.31215000  0.43849700  0.17504400  1
  O  O62  1  0.93202450  0.28537950  0.33001200  1
  O  O63  1  0.64050900  0.56454500  0.14054000  1
  O  O64  1  0.13193050  0.69651350  0.59711400  1
  O  O65  1  0.70535100  0.63527500  0.88609700  1
  O  O66  1  0.87377150  0.29435650  0.63427200  1
  O  O67  1  0.30002250  0.39128850  0.88136100  1
  O  O68  1  0.70535100  0.36472500  0.38609700  1
  O  O69  1  0.13193050  0.30348650  0.09711400  1
  O  O70  1  0.30002250  0.60871150  0.38136100  1
  O  O71  1  0.87377150  0.70564350  0.13427200  1
