# generated using pymatgen
data_Li3Cr2(PO4)3
_symmetry_space_group_name_H-M   'P 1'
_cell_length_a   15.11179200
_cell_length_b   8.64770000
_cell_length_c   8.68491338
_cell_angle_alpha   90.00000000
_cell_angle_beta   125.02904932
_cell_angle_gamma   90.00000000
_symmetry_Int_Tables_number   1
_chemical_formula_structural   Li3Cr2(PO4)3
_chemical_formula_sum   'Li12 Cr8 P12 O48'
_cell_volume   929.37787829
_cell_formula_units_Z   4
loop_
 _symmetry_equiv_pos_site_id
 _symmetry_equiv_pos_as_xyz
  1  'x, y, z'
loop_
 _atom_site_type_symbol
 _atom_site_label
 _atom_site_symmetry_multiplicity
 _atom_site_fract_x
 _atom_site_fract_y
 _atom_site_fract_z
 _atom_site_occupancy
  Li  Li0  1  0.18458600  0.92698100  0.17225600  1
  Li  Li1  1  0.30643900  0.34248300  0.43660600  1
  Li  Li2  1  0.18458600  0.07301900  0.67225600  1
  Li  Li3  1  0.00872650  0.37396550  0.26934700  1
  Li  Li4  1  0.00872650  0.62603450  0.76934700  1
  Li  Li5  1  0.30643900  0.65751700  0.93660600  1
  Li  Li6  1  0.68458600  0.42698100  0.17225600  1
  Li  Li7  1  0.80643900  0.84248300  0.43660600  1
  Li  Li8  1  0.68458600  0.57301900  0.67225600  1
  Li  Li9  1  0.50872650  0.87396550  0.26934700  1
  Li  Li10  1  0.50872650  0.12603450  0.76934700  1
  Li  Li11  1  0.80643900  0.15751700  0.93660600  1
  Cr  Cr12  1  0.10020800  0.25283200  0.06133100  1
  Cr  Cr13  1  0.10020800  0.74716800  0.56133100  1
  Cr  Cr14  1  0.39647850  0.24930350  0.93140700  1
  Cr  Cr15  1  0.39647850  0.75069650  0.43140700  1
  Cr  Cr16  1  0.60020800  0.75283200  0.06133100  1
  Cr  Cr17  1  0.60020800  0.24716800  0.56133100  1
  Cr  Cr18  1  0.89647850  0.74930350  0.93140700  1
  Cr  Cr19  1  0.89647850  0.25069650  0.43140700  1
  P  P20  1  0.00131800  0.04568700  0.24881100  1
  P  P21  1  0.00131800  0.95431300  0.74881100  1
  P  P22  1  0.13890250  0.61159350  0.23870800  1
  P  P23  1  0.35927400  0.88789500  0.75884800  1
  P  P24  1  0.13890250  0.38840650  0.73870800  1
  P  P25  1  0.35927400  0.11210500  0.25884800  1
  P  P26  1  0.50131800  0.54568700  0.24881100  1
  P  P27  1  0.50131800  0.45431300  0.74881100  1
  P  P28  1  0.63890250  0.11159350  0.23870800  1
  P  P29  1  0.85927400  0.38789500  0.75884800  1
  P  P30  1  0.63890250  0.88840650  0.73870800  1
  P  P31  1  0.85927400  0.61210500  0.25884800  1
  O  O32  1  0.38265750  0.86561450  0.61199400  1
  O  O33  1  0.34250950  0.06461650  0.76107100  1
  O  O34  1  0.41454150  0.34358250  0.73392500  1
  O  O35  1  0.16047100  0.43600700  0.24002000  1
  O  O36  1  0.23678900  0.29056500  0.78788800  1
  O  O37  1  0.04651300  0.67024000  0.03967000  1
  O  O38  1  0.16047100  0.56399300  0.74002000  1
  O  O39  1  0.10821500  0.37313700  0.87816800  1
  O  O40  1  0.38265750  0.13438550  0.11199400  1
  O  O41  1  0.43579950  0.55196550  0.56948900  1
  O  O42  1  0.45004200  0.17633900  0.45564800  1
  O  O43  1  0.25649550  0.19125650  0.21909000  1
  O  O44  1  0.23678900  0.70943500  0.28788800  1
  O  O45  1  0.34250950  0.93538350  0.26107100  1
  O  O46  1  0.43579950  0.44803450  0.06948900  1
  O  O47  1  0.08875200  0.14664700  0.25607000  1
  O  O48  1  0.08875200  0.85335300  0.75607000  1
  O  O49  1  0.06578250  0.04631150  0.93419600  1
  O  O50  1  0.10821500  0.62686300  0.37816800  1
  O  O51  1  0.04651300  0.32976000  0.53967000  1
  O  O52  1  0.45004200  0.82366100  0.95564800  1
  O  O53  1  0.06578250  0.95368850  0.43419600  1
  O  O54  1  0.25649550  0.80874350  0.71909000  1
  O  O55  1  0.41454150  0.65641750  0.23392500  1
  O  O56  1  0.88265750  0.36561450  0.61199400  1
  O  O57  1  0.84250950  0.56461650  0.76107100  1
  O  O58  1  0.91454150  0.84358250  0.73392500  1
  O  O59  1  0.66047100  0.93600700  0.24002000  1
  O  O60  1  0.73678900  0.79056500  0.78788800  1
  O  O61  1  0.54651300  0.17024000  0.03967000  1
  O  O62  1  0.66047100  0.06399300  0.74002000  1
  O  O63  1  0.60821500  0.87313700  0.87816800  1
  O  O64  1  0.88265750  0.63438550  0.11199400  1
  O  O65  1  0.93579950  0.05196550  0.56948900  1
  O  O66  1  0.95004200  0.67633900  0.45564800  1
  O  O67  1  0.75649550  0.69125650  0.21909000  1
  O  O68  1  0.73678900  0.20943500  0.28788800  1
  O  O69  1  0.84250950  0.43538350  0.26107100  1
  O  O70  1  0.93579950  0.94803450  0.06948900  1
  O  O71  1  0.58875200  0.64664700  0.25607000  1
  O  O72  1  0.58875200  0.35335300  0.75607000  1
  O  O73  1  0.56578250  0.54631150  0.93419600  1
  O  O74  1  0.60821500  0.12686300  0.37816800  1
  O  O75  1  0.54651300  0.82976000  0.53967000  1
  O  O76  1  0.95004200  0.32366100  0.95564800  1
  O  O77  1  0.56578250  0.45368850  0.43419600  1
  O  O78  1  0.75649550  0.30874350  0.71909000  1
  O  O79  1  0.91454150  0.15641750  0.23392500  1
