# generated using pymatgen
data_Ga3Cl7
_symmetry_space_group_name_H-M   'P 1'
_cell_length_a   9.11567000
_cell_length_b   10.77840900
_cell_length_c   12.06599900
_cell_angle_alpha   90.00000000
_cell_angle_beta   90.00000000
_cell_angle_gamma   90.00000000
_symmetry_Int_Tables_number   1
_chemical_formula_structural   Ga3Cl7
_chemical_formula_sum   'Ga12 Cl28'
_cell_volume   1185.51359627
_cell_formula_units_Z   4
loop_
 _symmetry_equiv_pos_site_id
 _symmetry_equiv_pos_as_xyz
  1  'x, y, z'
loop_
 _atom_site_type_symbol
 _atom_site_label
 _atom_site_symmetry_multiplicity
 _atom_site_fract_x
 _atom_site_fract_y
 _atom_site_fract_z
 _atom_site_occupancy
  Ga  Ga0  1  0.85790300  0.12413300  0.39062700  1
  Ga  Ga1  1  0.06957600  0.99967600  0.67372000  1
  Ga  Ga2  1  0.43042400  0.99967600  0.17372000  1
  Ga  Ga3  1  0.61767700  0.75993900  0.61425400  1
  Ga  Ga4  1  0.93042400  0.49967600  0.32628000  1
  Ga  Ga5  1  0.38232300  0.25993900  0.38574600  1
  Ga  Ga6  1  0.88232300  0.75993900  0.11425400  1
  Ga  Ga7  1  0.56957600  0.49967600  0.82628000  1
  Ga  Ga8  1  0.35790300  0.62413300  0.10937300  1
  Ga  Ga9  1  0.14209700  0.62413300  0.60937300  1
  Ga  Ga10  1  0.64209700  0.12413300  0.89062700  1
  Ga  Ga11  1  0.11767700  0.25993900  0.88574600  1
  Cl  Cl12  1  0.95273800  0.34148400  0.21602400  1
  Cl  Cl13  1  0.12728800  0.61486400  0.34516200  1
  Cl  Cl14  1  0.20341400  0.31476500  0.49412800  1
  Cl  Cl15  1  0.73940500  0.63190400  0.74267600  1
  Cl  Cl16  1  0.02025900  0.40787200  0.78903900  1
  Cl  Cl17  1  0.83504700  0.44589500  0.48391400  1
  Cl  Cl18  1  0.66495300  0.44589500  0.98391400  1
  Cl  Cl19  1  0.04309300  0.63856800  0.03339600  1
  Cl  Cl20  1  0.79658600  0.81476500  0.50587200  1
  Cl  Cl21  1  0.47974100  0.40787200  0.28903900  1
  Cl  Cl22  1  0.76059500  0.63190400  0.24267600  1
  Cl  Cl23  1  0.54309300  0.13856800  0.46660400  1
  Cl  Cl24  1  0.52025900  0.90787200  0.71096100  1
  Cl  Cl25  1  0.04726200  0.84148400  0.78397600  1
  Cl  Cl26  1  0.37271200  0.61486400  0.84516200  1
  Cl  Cl27  1  0.70341400  0.81476500  0.00587200  1
  Cl  Cl28  1  0.26059500  0.13190400  0.25732400  1
  Cl  Cl29  1  0.97974100  0.90787200  0.21096100  1
  Cl  Cl30  1  0.33504700  0.94589500  0.01608600  1
  Cl  Cl31  1  0.95690700  0.13856800  0.96660400  1
  Cl  Cl32  1  0.87271200  0.11486400  0.65483800  1
  Cl  Cl33  1  0.62728800  0.11486400  0.15483800  1
  Cl  Cl34  1  0.23940500  0.13190400  0.75732400  1
  Cl  Cl35  1  0.45273800  0.84148400  0.28397600  1
  Cl  Cl36  1  0.16495300  0.94589500  0.51608600  1
  Cl  Cl37  1  0.45690700  0.63856800  0.53339600  1
  Cl  Cl38  1  0.29658600  0.31476500  0.99412800  1
  Cl  Cl39  1  0.54726200  0.34148400  0.71602400  1
