# generated using pymatgen
data_La5V3S6O7
_symmetry_space_group_name_H-M   'P 1'
_cell_length_a   3.82626900
_cell_length_b   10.33267300
_cell_length_c   18.11131200
_cell_angle_alpha   90.00000000
_cell_angle_beta   90.00000000
_cell_angle_gamma   90.00000000
_symmetry_Int_Tables_number   1
_chemical_formula_structural   La5V3S6O7
_chemical_formula_sum   'La10 V6 S12 O14'
_cell_volume   716.04134016
_cell_formula_units_Z   2
loop_
 _symmetry_equiv_pos_site_id
 _symmetry_equiv_pos_as_xyz
  1  'x, y, z'
loop_
 _atom_site_type_symbol
 _atom_site_label
 _atom_site_symmetry_multiplicity
 _atom_site_fract_x
 _atom_site_fract_y
 _atom_site_fract_z
 _atom_site_occupancy
  La  La0  1  0.00000000  0.73002300  0.75172200  1
  La  La1  1  0.00000000  0.53147300  0.13466300  1
  La  La2  1  0.00000000  0.08404500  0.91287000  1
  La  La3  1  0.50000000  0.91066800  0.08491300  1
  La  La4  1  0.50000000  0.47440500  0.86423100  1
  La  La5  1  0.00000000  0.52559500  0.36423100  1
  La  La6  1  0.50000000  0.91595500  0.41287000  1
  La  La7  1  0.50000000  0.46852700  0.63466300  1
  La  La8  1  0.00000000  0.08933200  0.58491300  1
  La  La9  1  0.50000000  0.26997700  0.25172200  1
  V  V10  1  0.50000000  0.25260400  0.05697100  1
  V  V11  1  0.50000000  0.25131700  0.44316200  1
  V  V12  1  0.00000000  0.74739600  0.55697100  1
  V  V13  1  0.50000000  0.18826800  0.75009800  1
  V  V14  1  0.00000000  0.81173200  0.25009800  1
  V  V15  1  0.00000000  0.74868300  0.94316200  1
  S  S16  1  0.00000000  0.35049300  0.98771200  1
  S  S17  1  0.50000000  0.64235500  0.24967600  1
  S  S18  1  0.00000000  0.03907800  0.74927100  1
  S  S19  1  0.50000000  0.85405700  0.86913100  1
  S  S20  1  0.00000000  0.14594300  0.36913100  1
  S  S21  1  0.50000000  0.85174400  0.63078600  1
  S  S22  1  0.50000000  0.64564000  0.01558800  1
  S  S23  1  0.50000000  0.64950700  0.48771200  1
  S  S24  1  0.00000000  0.35764500  0.74967600  1
  S  S25  1  0.50000000  0.96092200  0.24927100  1
  S  S26  1  0.00000000  0.35436000  0.51558800  1
  S  S27  1  0.00000000  0.14825600  0.13078600  1
  O  O28  1  0.50000000  0.38722400  0.12624500  1
  O  O29  1  0.00000000  0.40334600  0.24827300  1
  O  O30  1  0.00000000  0.61277600  0.62624500  1
  O  O31  1  0.50000000  0.20760200  0.85140700  1
  O  O32  1  0.50000000  0.39571700  0.37020300  1
  O  O33  1  0.50000000  0.10891500  0.99893000  1
  O  O34  1  0.50000000  0.59665400  0.74827300  1
  O  O35  1  0.00000000  0.79239800  0.35140700  1
  O  O36  1  0.00000000  0.78845300  0.14938800  1
  O  O37  1  0.50000000  0.09611100  0.50488300  1
  O  O38  1  0.00000000  0.90388900  0.00488300  1
  O  O39  1  0.50000000  0.21154700  0.64938800  1
  O  O40  1  0.00000000  0.60428300  0.87020300  1
  O  O41  1  0.00000000  0.89108500  0.49893000  1
