# generated using pymatgen
data_Sr6Ta2O11
_symmetry_space_group_name_H-M   'P 1'
_cell_length_a   8.56732100
_cell_length_b   8.56732100
_cell_length_c   8.54643300
_cell_angle_alpha   90.00000000
_cell_angle_beta   90.00000000
_cell_angle_gamma   90.00000000
_symmetry_Int_Tables_number   1
_chemical_formula_structural   Sr6Ta2O11
_chemical_formula_sum   'Sr12 Ta4 O22'
_cell_volume   627.29954276
_cell_formula_units_Z   2
loop_
 _symmetry_equiv_pos_site_id
 _symmetry_equiv_pos_as_xyz
  1  'x, y, z'
loop_
 _atom_site_type_symbol
 _atom_site_label
 _atom_site_symmetry_multiplicity
 _atom_site_fract_x
 _atom_site_fract_y
 _atom_site_fract_z
 _atom_site_occupancy
  Sr  Sr0  1  0.25063300  0.75063300  0.72270000  1
  Sr  Sr1  1  0.00000000  0.50000000  0.52979100  1
  Sr  Sr2  1  0.50000000  0.50000000  0.00000000  1
  Sr  Sr3  1  0.75063300  0.74936700  0.27730000  1
  Sr  Sr4  1  0.50000000  0.00000000  0.47020900  1
  Sr  Sr5  1  0.74936700  0.24936700  0.72270000  1
  Sr  Sr6  1  0.75063300  0.25063300  0.27730000  1
  Sr  Sr7  1  0.00000000  0.00000000  0.00000000  1
  Sr  Sr8  1  0.25063300  0.24936700  0.72270000  1
  Sr  Sr9  1  0.24936700  0.25063300  0.27730000  1
  Sr  Sr10  1  0.24936700  0.74936700  0.27730000  1
  Sr  Sr11  1  0.74936700  0.75063300  0.72270000  1
  Ta  Ta12  1  0.50000000  0.00000000  0.02738500  1
  Ta  Ta13  1  0.00000000  0.00000000  0.50000000  1
  Ta  Ta14  1  0.00000000  0.50000000  0.97261500  1
  Ta  Ta15  1  0.50000000  0.50000000  0.50000000  1
  O  O16  1  0.00000000  0.76535500  0.49222700  1
  O  O17  1  0.26535500  0.50000000  0.49222700  1
  O  O18  1  0.50000000  0.50000000  0.72823600  1
  O  O19  1  0.50000000  0.26535500  0.50777300  1
  O  O20  1  0.78230200  0.50000000  0.89916700  1
  O  O21  1  0.50000000  0.00000000  0.80358700  1
  O  O22  1  0.00000000  0.50000000  0.19641300  1
  O  O23  1  0.71769800  0.00000000  0.10083300  1
  O  O24  1  0.00000000  0.28230200  0.89916700  1
  O  O25  1  0.76535500  0.00000000  0.50777300  1
  O  O26  1  0.00000000  0.23464500  0.49222700  1
  O  O27  1  0.00000000  0.00000000  0.27176400  1
  O  O28  1  0.00000000  0.00000000  0.72823600  1
  O  O29  1  0.23464500  0.00000000  0.50777300  1
  O  O30  1  0.28230200  0.00000000  0.10083300  1
  O  O31  1  0.00000000  0.71769800  0.89916700  1
  O  O32  1  0.21769800  0.50000000  0.89916700  1
  O  O33  1  0.50000000  0.78230200  0.10083300  1
  O  O34  1  0.50000000  0.73464500  0.50777300  1
  O  O35  1  0.50000000  0.50000000  0.27176400  1
  O  O36  1  0.73464500  0.50000000  0.49222700  1
  O  O37  1  0.50000000  0.21769800  0.10083300  1
