# generated using pymatgen
data_CsAg(BH)10
_symmetry_space_group_name_H-M   'P 1'
_cell_length_a   9.27307600
_cell_length_b   10.05732500
_cell_length_c   10.97517700
_cell_angle_alpha   90.00000000
_cell_angle_beta   90.00000000
_cell_angle_gamma   90.00000000
_symmetry_Int_Tables_number   1
_chemical_formula_structural   CsAg(BH)10
_chemical_formula_sum   'Cs4 Ag4 B40 H40'
_cell_volume   1023.57067886
_cell_formula_units_Z   4
loop_
 _symmetry_equiv_pos_site_id
 _symmetry_equiv_pos_as_xyz
  1  'x, y, z'
loop_
 _atom_site_type_symbol
 _atom_site_label
 _atom_site_symmetry_multiplicity
 _atom_site_fract_x
 _atom_site_fract_y
 _atom_site_fract_z
 _atom_site_occupancy
  Cs  Cs0  1  0.75000000  0.82114500  0.43867100  1
  Cs  Cs1  1  0.25000000  0.17885500  0.56132900  1
  Cs  Cs2  1  0.25000000  0.82114500  0.06132900  1
  Cs  Cs3  1  0.75000000  0.17885500  0.93867100  1
  Ag  Ag4  1  0.50000000  0.48930000  0.25000000  1
  Ag  Ag5  1  0.00000000  0.51070000  0.75000000  1
  Ag  Ag6  1  0.50000000  0.51070000  0.75000000  1
  Ag  Ag7  1  0.00000000  0.48930000  0.25000000  1
  B  B8  1  0.75000000  0.43111000  0.36035400  1
  B  B9  1  0.25000000  0.56889000  0.63964600  1
  B  B10  1  0.25000000  0.43111000  0.13964600  1
  B  B11  1  0.75000000  0.56889000  0.86035400  1
  B  B12  1  0.75000000  0.43065300  0.51565200  1
  B  B13  1  0.25000000  0.56934700  0.48434800  1
  B  B14  1  0.25000000  0.43065300  0.98434800  1
  B  B15  1  0.75000000  0.56934700  0.01565200  1
  B  B16  1  0.61089900  0.34599800  0.42603900  1
  B  B17  1  0.11089900  0.65400200  0.57396100  1
  B  B18  1  0.38910100  0.34599800  0.07396100  1
  B  B19  1  0.88910100  0.65400200  0.92603900  1
  B  B20  1  0.38910100  0.65400200  0.57396100  1
  B  B21  1  0.88910100  0.34599800  0.42603900  1
  B  B22  1  0.61089900  0.65400200  0.92603900  1
  B  B23  1  0.11089900  0.34599800  0.07396100  1
  B  B24  1  0.75000000  0.26149400  0.33609200  1
  B  B25  1  0.25000000  0.73850600  0.66390800  1
  B  B26  1  0.25000000  0.26149400  0.16390800  1
  B  B27  1  0.75000000  0.73850600  0.83609200  1
  B  B28  1  0.65225500  0.29348300  0.57921300  1
  B  B29  1  0.15225500  0.70651700  0.42078700  1
  B  B30  1  0.34774500  0.29348300  0.92078700  1
  B  B31  1  0.84774500  0.70651700  0.07921300  1
  B  B32  1  0.34774500  0.70651700  0.42078700  1
  B  B33  1  0.84774500  0.29348300  0.57921300  1
  B  B34  1  0.65225500  0.70651700  0.07921300  1
  B  B35  1  0.15225500  0.29348300  0.92078700  1
  B  B36  1  0.65168600  0.17377700  0.45215900  1
  B  B37  1  0.15168600  0.82622300  0.54784100  1
  B  B38  1  0.34831400  0.17377700  0.04784100  1
  B  B39  1  0.84831400  0.82622300  0.95215900  1
  B  B40  1  0.34831400  0.82622300  0.54784100  1
  B  B41  1  0.84831400  0.17377700  0.45215900  1
  B  B42  1  0.65168600  0.82622300  0.95215900  1
  B  B43  1  0.15168600  0.17377700  0.04784100  1
  B  B44  1  0.75000000  0.15061000  0.58201300  1
  B  B45  1  0.25000000  0.84939000  0.41798700  1
  B  B46  1  0.25000000  0.15061000  0.91798700  1
  B  B47  1  0.75000000  0.84939000  0.08201300  1
  H  H48  1  0.75000000  0.52719900  0.29285700  1
  H  H49  1  0.25000000  0.47280100  0.70714300  1
  H  H50  1  0.25000000  0.52719900  0.20714300  1
  H  H51  1  0.75000000  0.47280100  0.79285700  1
  H  H52  1  0.75000000  0.53388000  0.57077000  1
  H  H53  1  0.25000000  0.46612000  0.42923000  1
  H  H54  1  0.25000000  0.53388000  0.92923000  1
  H  H55  1  0.75000000  0.46612000  0.07077000  1
  H  H56  1  0.48311900  0.36922000  0.40980500  1
  H  H57  1  0.98311900  0.63078000  0.59019500  1
  H  H58  1  0.51688100  0.36922000  0.09019500  1
  H  H59  1  0.01688100  0.63078000  0.90980500  1
  H  H60  1  0.51688100  0.63078000  0.59019500  1
  H  H61  1  0.01688100  0.36922000  0.40980500  1
  H  H62  1  0.48311900  0.63078000  0.90980500  1
  H  H63  1  0.98311900  0.36922000  0.09019500  1
  H  H64  1  0.75000000  0.21771900  0.23462800  1
  H  H65  1  0.25000000  0.78228100  0.76537200  1
  H  H66  1  0.25000000  0.21771900  0.26537200  1
  H  H67  1  0.75000000  0.78228100  0.73462800  1
  H  H68  1  0.56548400  0.31440800  0.66022000  1
  H  H69  1  0.06548400  0.68559200  0.33978000  1
  H  H70  1  0.43451600  0.31440800  0.83978000  1
  H  H71  1  0.93451600  0.68559200  0.16022000  1
  H  H72  1  0.43451600  0.68559200  0.33978000  1
  H  H73  1  0.93451600  0.31440800  0.66022000  1
  H  H74  1  0.56548400  0.68559200  0.16022000  1
  H  H75  1  0.06548400  0.31440800  0.83978000  1
  H  H76  1  0.56478100  0.09156700  0.42105800  1
  H  H77  1  0.06478100  0.90843300  0.57894200  1
  H  H78  1  0.43521900  0.09156700  0.07894200  1
  H  H79  1  0.93521900  0.90843300  0.92105800  1
  H  H80  1  0.43521900  0.90843300  0.57894200  1
  H  H81  1  0.93521900  0.09156700  0.42105800  1
  H  H82  1  0.56478100  0.90843300  0.92105800  1
  H  H83  1  0.06478100  0.09156700  0.07894200  1
  H  H84  1  0.75000000  0.05874700  0.65211000  1
  H  H85  1  0.25000000  0.94125300  0.34789000  1
  H  H86  1  0.25000000  0.05874700  0.84789000  1
  H  H87  1  0.75000000  0.94125300  0.15211000  1
