# generated using pymatgen
data_Bi17P5Pb5O43
_symmetry_space_group_name_H-M   'P 1'
_cell_length_a   16.06864000
_cell_length_b   16.90935800
_cell_length_c   11.65341734
_cell_angle_alpha   90.00000000
_cell_angle_beta   133.14207656
_cell_angle_gamma   90.00000000
_symmetry_Int_Tables_number   1
_chemical_formula_structural   Bi17P5Pb5O43
_chemical_formula_sum   'Bi34 P10 Pb10 O86'
_cell_volume   2310.36319656
_cell_formula_units_Z   2
loop_
 _symmetry_equiv_pos_site_id
 _symmetry_equiv_pos_as_xyz
  1  'x, y, z'
loop_
 _atom_site_type_symbol
 _atom_site_label
 _atom_site_symmetry_multiplicity
 _atom_site_fract_x
 _atom_site_fract_y
 _atom_site_fract_z
 _atom_site_occupancy
  Bi  Bi0  1  0.64843650  0.32190750  0.66557300  1
  Bi  Bi1  1  0.97619000  0.00000000  0.29634400  1
  Bi  Bi2  1  0.82618650  0.82952950  0.33220700  1
  Bi  Bi3  1  0.33580500  0.00000000  0.66786400  1
  Bi  Bi4  1  0.82402500  0.83219200  0.66395900  1
  Bi  Bi5  1  0.64843650  0.67809250  0.66557300  1
  Bi  Bi6  1  0.66125850  0.32561250  0.02301200  1
  Bi  Bi7  1  0.50512550  0.14807550  0.67473800  1
  Bi  Bi8  1  0.82402500  0.16780800  0.66395900  1
  Bi  Bi9  1  0.50512550  0.85192450  0.67473800  1
  Bi  Bi10  1  0.32967900  0.00000000  0.02273400  1
  Bi  Bi11  1  0.99975700  0.00000000  0.01298900  1
  Bi  Bi12  1  0.67144700  0.00000000  0.35029900  1
  Bi  Bi13  1  0.48789000  0.83841200  0.32996900  1
  Bi  Bi14  1  0.66125850  0.67438750  0.02301200  1
  Bi  Bi15  1  0.48789000  0.16158800  0.32996900  1
  Bi  Bi16  1  0.82618650  0.17047050  0.33220700  1
  Bi  Bi17  1  0.14843650  0.82190750  0.66557300  1
  Bi  Bi18  1  0.47619000  0.50000000  0.29634400  1
  Bi  Bi19  1  0.32618650  0.32952950  0.33220700  1
  Bi  Bi20  1  0.83580500  0.50000000  0.66786400  1
  Bi  Bi21  1  0.32402500  0.33219200  0.66395900  1
  Bi  Bi22  1  0.14843650  0.17809250  0.66557300  1
  Bi  Bi23  1  0.16125850  0.82561250  0.02301200  1
  Bi  Bi24  1  0.00512550  0.64807550  0.67473800  1
  Bi  Bi25  1  0.32402500  0.66780800  0.66395900  1
  Bi  Bi26  1  0.00512550  0.35192450  0.67473800  1
  Bi  Bi27  1  0.82967900  0.50000000  0.02273400  1
  Bi  Bi28  1  0.49975700  0.50000000  0.01298900  1
  Bi  Bi29  1  0.17144700  0.50000000  0.35029900  1
  Bi  Bi30  1  0.98789000  0.33841200  0.32996900  1
  Bi  Bi31  1  0.16125850  0.17438750  0.02301200  1
  Bi  Bi32  1  0.98789000  0.66158800  0.32996900  1
  Bi  Bi33  1  0.32618650  0.67047050  0.33220700  1
  P  P34  1  0.17193650  0.84462850  0.35680600  1
  P  P35  1  0.49632150  0.15111150  0.97722200  1
  P  P36  1  0.49632150  0.84888850  0.97722200  1
  P  P37  1  0.99516500  0.00000000  0.64290300  1
  P  P38  1  0.17193650  0.15537150  0.35680600  1
  P  P39  1  0.67193650  0.34462850  0.35680600  1
  P  P40  1  0.99632150  0.65111150  0.97722200  1
  P  P41  1  0.99632150  0.34888850  0.97722200  1
  P  P42  1  0.49516500  0.50000000  0.64290300  1
  P  P43  1  0.67193650  0.65537150  0.35680600  1
  Pb  Pb44  1  0.33282700  0.33228100  0.99225000  1
  Pb  Pb45  1  0.66891800  0.00000000  0.00545200  1
  Pb  Pb46  1  0.68182800  0.00000000  0.69201400  1
  Pb  Pb47  1  0.34105800  0.00000000  0.35973100  1
  Pb  Pb48  1  0.33282700  0.66771900  0.99225000  1
  Pb  Pb49  1  0.83282700  0.83228100  0.99225000  1
  Pb  Pb50  1  0.16891800  0.50000000  0.00545200  1
  Pb  Pb51  1  0.18182800  0.50000000  0.69201400  1
  Pb  Pb52  1  0.84105800  0.50000000  0.35973100  1
  Pb  Pb53  1  0.83282700  0.16771900  0.99225000  1
  O  O54  1  0.88709300  0.00000000  0.05029400  1
  O  O55  1  0.50449650  0.23462250  0.92859100  1
  O  O56  1  0.49946400  0.00000000  0.24901900  1
  O  O57  1  0.10122900  0.00000000  0.82306600  1
  O  O58  1  0.72651900  0.20785400  0.71116100  1
  O  O59  1  0.45390200  0.00000000  0.64459600  1
  O  O60  1  0.49595550  0.57529550  0.56381600  1
  O  O61  1  0.57294200  0.40231400  0.23302700  1
  O  O62  1  0.39977700  0.14512100  0.97596500  1
  O  O63  1  0.48968900  0.90800300  0.48684100  1
  O  O64  1  0.49595550  0.42470450  0.56381600  1
  O  O65  1  0.67649400  0.90204200  0.47799800  1
  O  O66  1  0.61370100  0.12317400  0.13496700  1
  O  O67  1  0.63774650  0.29002550  0.42577000  1
  O  O68  1  0.88003050  0.90951850  0.84733000  1
  O  O69  1  0.50449650  0.76537750  0.92859100  1
  O  O70  1  0.30322550  0.25183250  0.16541100  1
  O  O71  1  0.46747400  0.90650100  0.84495200  1
  O  O72  1  0.88003050  0.09048150  0.84733000  1
  O  O73  1  0.49011300  0.25779700  0.48706900  1
  O  O74  1  0.20979800  0.20209400  0.28437800  1
  O  O75  1  0.88265000  0.00000000  0.60826100  1
  O  O76  1  0.63601950  0.72549950  0.82681900  1
  O  O77  1  0.67649400  0.09795800  0.47799800  1
  O  O78  1  0.39977700  0.85487900  0.97596500  1
  O  O79  1  0.57294200  0.59768600  0.23302700  1
  O  O80  1  0.66711100  0.90738800  0.84496700  1
  O  O81  1  0.49011300  0.74220300  0.48706900  1
  O  O82  1  0.48968900  0.09199700  0.48684100  1
  O  O83  1  0.20979800  0.79790600  0.28437800  1
  O  O84  1  0.63601950  0.27450050  0.82681900  1
  O  O85  1  0.31292550  0.90882950  0.13732800  1
  O  O86  1  0.27845500  0.10439500  0.49559000  1
  O  O87  1  0.63774650  0.70997450  0.42577000  1
  O  O88  1  0.84831900  0.08842900  0.21185800  1
  O  O89  1  0.66711100  0.09261200  0.84496700  1
  O  O90  1  0.46747400  0.09349900  0.84495200  1
  O  O91  1  0.84831900  0.91157100  0.21185800  1
  O  O92  1  0.27845500  0.89560500  0.49559000  1
  O  O93  1  0.61370100  0.87682600  0.13496700  1
  O  O94  1  0.30322550  0.74816750  0.16541100  1
  O  O95  1  0.31292550  0.09117050  0.13732800  1
  O  O96  1  0.72651900  0.79214600  0.71116100  1
  O  O97  1  0.38709300  0.50000000  0.05029400  1
  O  O98  1  0.00449650  0.73462250  0.92859100  1
  O  O99  1  0.99946400  0.50000000  0.24901900  1
  O  O100  1  0.60122900  0.50000000  0.82306600  1
  O  O101  1  0.22651900  0.70785400  0.71116100  1
  O  O102  1  0.95390200  0.50000000  0.64459600  1
  O  O103  1  0.99595550  0.07529550  0.56381600  1
  O  O104  1  0.07294200  0.90231400  0.23302700  1
  O  O105  1  0.89977700  0.64512100  0.97596500  1
  O  O106  1  0.98968900  0.40800300  0.48684100  1
  O  O107  1  0.99595550  0.92470450  0.56381600  1
  O  O108  1  0.17649400  0.40204200  0.47799800  1
  O  O109  1  0.11370100  0.62317400  0.13496700  1
  O  O110  1  0.13774650  0.79002550  0.42577000  1
  O  O111  1  0.38003050  0.40951850  0.84733000  1
  O  O112  1  0.00449650  0.26537750  0.92859100  1
  O  O113  1  0.80322550  0.75183250  0.16541100  1
  O  O114  1  0.96747400  0.40650100  0.84495200  1
  O  O115  1  0.38003050  0.59048150  0.84733000  1
  O  O116  1  0.99011300  0.75779700  0.48706900  1
  O  O117  1  0.70979800  0.70209400  0.28437800  1
  O  O118  1  0.38265000  0.50000000  0.60826100  1
  O  O119  1  0.13601950  0.22549950  0.82681900  1
  O  O120  1  0.17649400  0.59795800  0.47799800  1
  O  O121  1  0.89977700  0.35487900  0.97596500  1
  O  O122  1  0.07294200  0.09768600  0.23302700  1
  O  O123  1  0.16711100  0.40738800  0.84496700  1
  O  O124  1  0.99011300  0.24220300  0.48706900  1
  O  O125  1  0.98968900  0.59199700  0.48684100  1
  O  O126  1  0.70979800  0.29790600  0.28437800  1
  O  O127  1  0.13601950  0.77450050  0.82681900  1
  O  O128  1  0.81292550  0.40882950  0.13732800  1
  O  O129  1  0.77845500  0.60439500  0.49559000  1
  O  O130  1  0.13774650  0.20997450  0.42577000  1
  O  O131  1  0.34831900  0.58842900  0.21185800  1
  O  O132  1  0.16711100  0.59261200  0.84496700  1
  O  O133  1  0.96747400  0.59349900  0.84495200  1
  O  O134  1  0.34831900  0.41157100  0.21185800  1
  O  O135  1  0.77845500  0.39560500  0.49559000  1
  O  O136  1  0.11370100  0.37682600  0.13496700  1
  O  O137  1  0.80322550  0.24816750  0.16541100  1
  O  O138  1  0.81292550  0.59117050  0.13732800  1
  O  O139  1  0.22651900  0.29214600  0.71116100  1
