# generated using pymatgen
data_K4Pb9
_symmetry_space_group_name_H-M   'P 1'
_cell_length_a   9.82548300
_cell_length_b   13.46873400
_cell_length_c   16.20051711
_cell_angle_alpha   90.00000000
_cell_angle_beta   103.19432523
_cell_angle_gamma   90.00000000
_symmetry_Int_Tables_number   1
_chemical_formula_structural   K4Pb9
_chemical_formula_sum   'K16 Pb36'
_cell_volume   2087.32849853
_cell_formula_units_Z   4
loop_
 _symmetry_equiv_pos_site_id
 _symmetry_equiv_pos_as_xyz
  1  'x, y, z'
loop_
 _atom_site_type_symbol
 _atom_site_label
 _atom_site_symmetry_multiplicity
 _atom_site_fract_x
 _atom_site_fract_y
 _atom_site_fract_z
 _atom_site_occupancy
  K  K0  1  0.38112700  0.07320600  0.21290600  1
  K  K1  1  0.73907700  0.25000000  0.43207700  1
  K  K2  1  0.38112700  0.42679400  0.21290600  1
  K  K3  1  0.26092300  0.75000000  0.56792300  1
  K  K4  1  0.05232600  0.99680800  0.37021300  1
  K  K5  1  0.94767400  0.00319200  0.62978700  1
  K  K6  1  0.67526700  0.59753000  0.09098800  1
  K  K7  1  0.67526700  0.90247000  0.09098800  1
  K  K8  1  0.05232600  0.50319200  0.37021300  1
  K  K9  1  0.94767400  0.49680800  0.62978700  1
  K  K10  1  0.32473300  0.09753000  0.90901200  1
  K  K11  1  0.61887300  0.92679400  0.78709400  1
  K  K12  1  0.61887300  0.57320600  0.78709400  1
  K  K13  1  0.88569300  0.25000000  0.79702800  1
  K  K14  1  0.32473300  0.40247000  0.90901200  1
  K  K15  1  0.11430700  0.75000000  0.20297200  1
  Pb  Pb16  1  0.06652000  0.25000000  0.24643100  1
  Pb  Pb17  1  0.13128600  0.25000000  0.49380400  1
  Pb  Pb18  1  0.86871400  0.75000000  0.50619600  1
  Pb  Pb19  1  0.30820800  0.43756800  0.62302300  1
  Pb  Pb20  1  0.75368200  0.13191600  0.97095000  1
  Pb  Pb21  1  0.49724200  0.25000000  0.76077400  1
  Pb  Pb22  1  0.69179200  0.56243200  0.37697700  1
  Pb  Pb23  1  0.76635700  0.36712700  0.21822100  1
  Pb  Pb24  1  0.24631800  0.86808400  0.02905000  1
  Pb  Pb25  1  0.17110700  0.25000000  0.69262500  1
  Pb  Pb26  1  0.00032200  0.55717200  0.87765500  1
  Pb  Pb27  1  0.23364300  0.86712700  0.78177900  1
  Pb  Pb28  1  0.75368200  0.36808400  0.97095000  1
  Pb  Pb29  1  0.23364300  0.63287300  0.78177900  1
  Pb  Pb30  1  0.38433700  0.62997600  0.37808100  1
  Pb  Pb31  1  0.61154500  0.63128100  0.55087300  1
  Pb  Pb32  1  0.38433700  0.87002400  0.37808100  1
  Pb  Pb33  1  0.44023400  0.75000000  0.92826600  1
  Pb  Pb34  1  0.76635700  0.13287300  0.21822100  1
  Pb  Pb35  1  0.50275800  0.75000000  0.23922600  1
  Pb  Pb36  1  0.93477900  0.75000000  0.97102800  1
  Pb  Pb37  1  0.30820800  0.06243200  0.62302300  1
  Pb  Pb38  1  0.61154500  0.86871900  0.55087300  1
  Pb  Pb39  1  0.61566300  0.37002400  0.62191900  1
  Pb  Pb40  1  0.55976600  0.25000000  0.07173400  1
  Pb  Pb41  1  0.69179200  0.93756800  0.37697700  1
  Pb  Pb42  1  0.38845500  0.36871900  0.44912700  1
  Pb  Pb43  1  0.93348000  0.75000000  0.75356900  1
  Pb  Pb44  1  0.38845500  0.13128100  0.44912700  1
  Pb  Pb45  1  0.61566300  0.12997600  0.62191900  1
  Pb  Pb46  1  0.24631800  0.63191600  0.02905000  1
  Pb  Pb47  1  0.06522100  0.25000000  0.02897200  1
  Pb  Pb48  1  0.00032200  0.94282800  0.87765500  1
  Pb  Pb49  1  0.99967800  0.05717200  0.12234500  1
  Pb  Pb50  1  0.99967800  0.44282800  0.12234500  1
  Pb  Pb51  1  0.82889300  0.75000000  0.30737500  1
