# generated using pymatgen
data_YTi2CdO6F
_symmetry_space_group_name_H-M   'P 1'
_cell_length_a   7.09583200
_cell_length_b   7.40737600
_cell_length_c   10.17937400
_cell_angle_alpha   90.00000000
_cell_angle_beta   90.00000000
_cell_angle_gamma   90.00000000
_symmetry_Int_Tables_number   1
_chemical_formula_structural   YTi2CdO6F
_chemical_formula_sum   'Y4 Ti8 Cd4 O24 F4'
_cell_volume   535.04312229
_cell_formula_units_Z   4
loop_
 _symmetry_equiv_pos_site_id
 _symmetry_equiv_pos_as_xyz
  1  'x, y, z'
loop_
 _atom_site_type_symbol
 _atom_site_label
 _atom_site_symmetry_multiplicity
 _atom_site_fract_x
 _atom_site_fract_y
 _atom_site_fract_z
 _atom_site_occupancy
  Y  Y0  1  0.50000000  0.00000000  0.50000000  1
  Y  Y1  1  0.00000000  0.00000000  0.00000000  1
  Y  Y2  1  0.00000000  0.50000000  0.00000000  1
  Y  Y3  1  0.50000000  0.50000000  0.50000000  1
  Ti  Ti4  1  0.75000000  0.25000000  0.25000000  1
  Ti  Ti5  1  0.00000000  0.00000000  0.50000000  1
  Ti  Ti6  1  0.25000000  0.25000000  0.25000000  1
  Ti  Ti7  1  0.50000000  0.00000000  0.00000000  1
  Ti  Ti8  1  0.25000000  0.75000000  0.75000000  1
  Ti  Ti9  1  0.50000000  0.50000000  0.00000000  1
  Ti  Ti10  1  0.75000000  0.75000000  0.75000000  1
  Ti  Ti11  1  0.00000000  0.50000000  0.50000000  1
  Cd  Cd12  1  0.25000000  0.75000000  0.25000000  1
  Cd  Cd13  1  0.75000000  0.75000000  0.25000000  1
  Cd  Cd14  1  0.75000000  0.25000000  0.75000000  1
  Cd  Cd15  1  0.25000000  0.25000000  0.75000000  1
  O  O16  1  0.79084000  0.05067500  0.37751200  1
  O  O17  1  0.50000000  0.75000000  0.66540100  1
  O  O18  1  0.20916000  0.05067500  0.37751200  1
  O  O19  1  0.29084000  0.94932500  0.87751200  1
  O  O20  1  0.70916000  0.94932500  0.87751200  1
  O  O21  1  0.00000000  0.25000000  0.57910300  1
  O  O22  1  0.29084000  0.05067500  0.12248800  1
  O  O23  1  0.00000000  0.75000000  0.42089700  1
  O  O24  1  0.70916000  0.05067500  0.12248800  1
  O  O25  1  0.79084000  0.94932500  0.62248800  1
  O  O26  1  0.50000000  0.25000000  0.33459900  1
  O  O27  1  0.20916000  0.94932500  0.62248800  1
  O  O28  1  0.29084000  0.55067500  0.87751200  1
  O  O29  1  0.00000000  0.25000000  0.16540100  1
  O  O30  1  0.70916000  0.55067500  0.87751200  1
  O  O31  1  0.79084000  0.44932500  0.37751200  1
  O  O32  1  0.20916000  0.44932500  0.37751200  1
  O  O33  1  0.50000000  0.75000000  0.07910300  1
  O  O34  1  0.79084000  0.55067500  0.62248800  1
  O  O35  1  0.50000000  0.25000000  0.92089700  1
  O  O36  1  0.20916000  0.55067500  0.62248800  1
  O  O37  1  0.29084000  0.44932500  0.12248800  1
  O  O38  1  0.00000000  0.75000000  0.83459900  1
  O  O39  1  0.70916000  0.44932500  0.12248800  1
  F  F40  1  0.50000000  0.25000000  0.61624700  1
  F  F41  1  0.50000000  0.75000000  0.38375300  1
  F  F42  1  0.00000000  0.75000000  0.11624700  1
  F  F43  1  0.00000000  0.25000000  0.88375300  1
