# generated using pymatgen
data_Ni3O4
_symmetry_space_group_name_H-M   'P 1'
_cell_length_a   5.98391659
_cell_length_b   8.26297001
_cell_length_c   2.87918100
_cell_angle_alpha   90.00000000
_cell_angle_beta   90.00000000
_cell_angle_gamma   90.00000000
_symmetry_Int_Tables_number   1
_chemical_formula_structural   Ni3O4
_chemical_formula_sum   'Ni6 O8'
_cell_volume   142.36088389
_cell_formula_units_Z   2
loop_
 _symmetry_equiv_pos_site_id
 _symmetry_equiv_pos_as_xyz
  1  'x, y, z'
loop_
 _atom_site_type_symbol
 _atom_site_label
 _atom_site_symmetry_multiplicity
 _atom_site_fract_x
 _atom_site_fract_y
 _atom_site_fract_z
 _atom_site_occupancy
  Ni  Ni0  1  0.50000000  0.50000000  0.50000000  1
  Ni  Ni1  1  0.75000000  0.75000000  0.00000000  1
  Ni  Ni2  1  0.75000000  0.25000000  0.00000000  1
  Ni  Ni3  1  0.00000000  0.00000000  0.50000000  1
  Ni  Ni4  1  0.25000000  0.25000000  0.00000000  1
  Ni  Ni5  1  0.25000000  0.75000000  0.00000000  1
  O  O6  1  0.70585050  0.50000000  0.00000000  1
  O  O7  1  0.79414950  0.00000000  0.00000000  1
  O  O8  1  0.50000000  0.72712050  0.50000000  1
  O  O9  1  0.00000000  0.77287950  0.50000000  1
  O  O10  1  0.20585050  0.00000000  0.00000000  1
  O  O11  1  0.29414950  0.50000000  0.00000000  1
  O  O12  1  0.00000000  0.22712050  0.50000000  1
  O  O13  1  0.50000000  0.27287950  0.50000000  1
