# generated using pymatgen
data_Al(HO)3
_symmetry_space_group_name_H-M   'P 1'
_cell_length_a   8.88914300
_cell_length_b   5.17021500
_cell_length_c   9.87627833
_cell_angle_alpha   90.00000000
_cell_angle_beta   95.30541477
_cell_angle_gamma   90.00000000
_symmetry_Int_Tables_number   1
_chemical_formula_structural   Al(HO)3
_chemical_formula_sum   'Al8 H24 O24'
_cell_volume   451.95717652
_cell_formula_units_Z   8
loop_
 _symmetry_equiv_pos_site_id
 _symmetry_equiv_pos_as_xyz
  1  'x, y, z'
loop_
 _atom_site_type_symbol
 _atom_site_label
 _atom_site_symmetry_multiplicity
 _atom_site_fract_x
 _atom_site_fract_y
 _atom_site_fract_z
 _atom_site_occupancy
  Al  Al0  1  0.08723900  0.01485400  0.24984200  1
  Al  Al1  1  0.57495100  0.48635500  0.75517700  1
  Al  Al2  1  0.42504900  0.98635500  0.24482300  1
  Al  Al3  1  0.91276100  0.51485400  0.75015800  1
  Al  Al4  1  0.92231600  0.50702200  0.24550700  1
  Al  Al5  1  0.41249900  0.99568600  0.75226600  1
  Al  Al6  1  0.58750100  0.49568600  0.24773400  1
  Al  Al7  1  0.07768400  0.00702200  0.75449300  1
  H  H8  1  0.17741500  0.61988200  0.36907500  1
  H  H9  1  0.66723300  0.86910700  0.87237700  1
  H  H10  1  0.33276700  0.36910700  0.12762300  1
  H  H11  1  0.82258500  0.11988200  0.63092500  1
  H  H12  1  0.68022100  0.10044100  0.35945200  1
  H  H13  1  0.16901500  0.41779600  0.85941700  1
  H  H14  1  0.83098500  0.91779600  0.14058300  1
  H  H15  1  0.31977900  0.60044100  0.64054800  1
  H  H16  1  0.79814600  0.72619900  0.42811800  1
  H  H17  1  0.26559400  0.89849700  0.95181700  1
  H  H18  1  0.73440600  0.39849700  0.04818300  1
  H  H19  1  0.20185400  0.22619900  0.57188200  1
  H  H20  1  0.30327300  0.21081000  0.42834200  1
  H  H21  1  0.78977000  0.19056700  0.87102100  1
  H  H22  1  0.21023000  0.69056700  0.12897900  1
  H  H23  1  0.69672700  0.71081000  0.57165800  1
  H  H24  1  0.95768900  0.20236400  0.45311700  1
  H  H25  1  0.45742700  0.29440300  0.95842600  1
  H  H26  1  0.54257300  0.79440300  0.04157400  1
  H  H27  1  0.04231100  0.70236400  0.54688300  1
  H  H28  1  0.45199500  0.68179900  0.45119100  1
  H  H29  1  0.95287800  0.81753200  0.95701700  1
  H  H30  1  0.04712200  0.31753200  0.04298300  1
  H  H31  1  0.54800500  0.18179900  0.54880900  1
  O  O32  1  0.07779600  0.69984100  0.35550200  1
  O  O33  1  0.56622200  0.79438900  0.86226200  1
  O  O34  1  0.43377800  0.29438900  0.13773800  1
  O  O35  1  0.92220400  0.19984100  0.64449800  1
  O  O36  1  0.58126900  0.18376900  0.35520300  1
  O  O37  1  0.07236200  0.32661500  0.85708900  1
  O  O38  1  0.92763800  0.82661500  0.14291100  1
  O  O39  1  0.41873100  0.68376900  0.64479700  1
  O  O40  1  0.76813200  0.62862600  0.34772100  1
  O  O41  1  0.25469600  0.87371300  0.85254600  1
  O  O42  1  0.74530400  0.37371300  0.14745400  1
  O  O43  1  0.23186800  0.12862600  0.65227900  1
  O  O44  1  0.27305100  0.12523100  0.34355100  1
  O  O45  1  0.76426900  0.37371700  0.85923400  1
  O  O46  1  0.23573100  0.87371700  0.14076600  1
  O  O47  1  0.72694900  0.62523100  0.65644900  1
  O  O48  1  0.96064200  0.20397500  0.35403000  1
  O  O49  1  0.45116600  0.29564800  0.85832400  1
  O  O50  1  0.54883400  0.79564800  0.14167600  1
  O  O51  1  0.03935800  0.70397500  0.64597000  1
  O  O52  1  0.45349600  0.68150200  0.35200000  1
  O  O53  1  0.93760500  0.82790200  0.85677000  1
  O  O54  1  0.06239500  0.32790200  0.14323000  1
  O  O55  1  0.54650400  0.18150200  0.64800000  1
