# generated using pymatgen
data_Dy2Ti2O7
_symmetry_space_group_name_H-M   'P 1'
_cell_length_a   7.19002300
_cell_length_b   7.30162088
_cell_length_c   17.64987798
_cell_angle_alpha   89.96057607
_cell_angle_beta   90.15424539
_cell_angle_gamma   118.43801165
_symmetry_Int_Tables_number   1
_chemical_formula_structural   Dy2Ti2O7
_chemical_formula_sum   'Dy12 Ti12 O42'
_cell_volume   814.78473672
_cell_formula_units_Z   6
loop_
 _symmetry_equiv_pos_site_id
 _symmetry_equiv_pos_as_xyz
  1  'x, y, z'
loop_
 _atom_site_type_symbol
 _atom_site_label
 _atom_site_symmetry_multiplicity
 _atom_site_fract_x
 _atom_site_fract_y
 _atom_site_fract_z
 _atom_site_occupancy
  Dy  Dy0  1  0.68254700  0.35848200  0.34826000  1
  Dy  Dy1  1  0.20541600  0.85357900  0.33579200  1
  Dy  Dy2  1  0.00000000  0.00000000  0.50000000  1
  Dy  Dy3  1  0.79458400  0.14642100  0.66420800  1
  Dy  Dy4  1  0.66594400  0.35259000  0.83501500  1
  Dy  Dy5  1  0.14282700  0.31693500  0.83575600  1
  Dy  Dy6  1  0.50000000  0.50000000  0.50000000  1
  Dy  Dy7  1  0.50000000  0.50000000  0.00000000  1
  Dy  Dy8  1  0.31745300  0.64151800  0.65174000  1
  Dy  Dy9  1  0.33405600  0.64741000  0.16498500  1
  Dy  Dy10  1  0.85717300  0.68306500  0.16424400  1
  Dy  Dy11  1  0.00000000  0.00000000  0.00000000  1
  Ti  Ti12  1  0.17467800  0.32293400  0.33035800  1
  Ti  Ti13  1  0.67928000  0.88233800  0.30543400  1
  Ti  Ti14  1  0.00000000  0.50000000  0.50000000  1
  Ti  Ti15  1  0.69390500  0.83378000  0.82951900  1
  Ti  Ti16  1  0.50000000  0.00000000  0.50000000  1
  Ti  Ti17  1  0.50000000  0.00000000  0.00000000  1
  Ti  Ti18  1  0.32072000  0.11766200  0.69456600  1
  Ti  Ti19  1  0.82532200  0.67706600  0.66964200  1
  Ti  Ti20  1  0.86544200  0.16547900  0.16378100  1
  Ti  Ti21  1  0.00000000  0.50000000  0.00000000  1
  Ti  Ti22  1  0.13455800  0.83452100  0.83621900  1
  Ti  Ti23  1  0.30609500  0.16622000  0.17048100  1
  O  O24  1  0.42017000  0.43817700  0.37943800  1
  O  O25  1  0.23024400  0.76447800  0.47701000  1
  O  O26  1  0.02736700  0.44067700  0.38212700  1
  O  O27  1  0.22528100  0.81840000  0.73819000  1
  O  O28  1  0.56697600  0.01235600  0.38445700  1
  O  O29  1  0.82748800  0.61235700  0.45824300  1
  O  O30  1  0.01173500  0.04836700  0.36857100  1
  O  O31  1  0.35495800  0.15571200  0.48326000  1
  O  O32  1  0.97675300  0.96717800  0.87095500  1
  O  O33  1  0.98826500  0.95163300  0.63142900  1
  O  O34  1  0.64504200  0.84428800  0.51674000  1
  O  O35  1  0.61590500  0.82309500  0.72636000  1
  O  O36  1  0.17251200  0.38764300  0.54175700  1
  O  O37  1  0.18012800  0.31650400  0.70724300  1
  O  O38  1  0.43302400  0.98764400  0.61554300  1
  O  O39  1  0.80155900  0.14999500  0.80245300  1
  O  O40  1  0.70638300  0.04778600  0.07485800  1
  O  O41  1  0.03875300  0.56516300  0.88448900  1
  O  O42  1  0.97263300  0.55932300  0.61787300  1
  O  O43  1  0.76975600  0.23552200  0.52299000  1
  O  O44  1  0.60661200  0.29828000  0.70635600  1
  O  O45  1  0.69168400  0.30792400  0.96372400  1
  O  O46  1  0.32108100  0.14019900  0.80272200  1
  O  O47  1  0.34891000  0.11340000  0.06018000  1
  O  O48  1  0.50492300  0.45534800  0.13290900  1
  O  O49  1  0.84043800  0.67593300  0.78227900  1
  O  O50  1  0.57983000  0.56182300  0.62056200  1
  O  O51  1  0.86642200  0.66986200  0.02856300  1
  O  O52  1  0.13357800  0.33013800  0.97143700  1
  O  O53  1  0.15956200  0.32406700  0.21772100  1
  O  O54  1  0.49507700  0.54465200  0.86709100  1
  O  O55  1  0.30831600  0.69207600  0.03627600  1
  O  O56  1  0.65109000  0.88660000  0.93982000  1
  O  O57  1  0.67891900  0.85980100  0.19727800  1
  O  O58  1  0.96124700  0.43483700  0.11551100  1
  O  O59  1  0.39338800  0.70172000  0.29364400  1
  O  O60  1  0.29361700  0.95221400  0.92514200  1
  O  O61  1  0.19844100  0.85000500  0.19754700  1
  O  O62  1  0.81987200  0.68349600  0.29275700  1
  O  O63  1  0.38409500  0.17690500  0.27364000  1
  O  O64  1  0.02324700  0.03282200  0.12904500  1
  O  O65  1  0.77471900  0.18160000  0.26181000  1
