# generated using pymatgen
data_RuXeF11
_symmetry_space_group_name_H-M   'P 1'
_cell_length_a   5.71215900
_cell_length_b   8.47848600
_cell_length_c   17.14724200
_cell_angle_alpha   90.00000000
_cell_angle_beta   90.00000000
_cell_angle_gamma   90.00000000
_symmetry_Int_Tables_number   1
_chemical_formula_structural   RuXeF11
_chemical_formula_sum   'Ru4 Xe4 F44'
_cell_volume   830.44881970
_cell_formula_units_Z   4
loop_
 _symmetry_equiv_pos_site_id
 _symmetry_equiv_pos_as_xyz
  1  'x, y, z'
loop_
 _atom_site_type_symbol
 _atom_site_label
 _atom_site_symmetry_multiplicity
 _atom_site_fract_x
 _atom_site_fract_y
 _atom_site_fract_z
 _atom_site_occupancy
  Ru  Ru0  1  0.72032800  0.75000000  0.95763900  1
  Ru  Ru1  1  0.22032800  0.25000000  0.54236100  1
  Ru  Ru2  1  0.27967200  0.25000000  0.04236100  1
  Ru  Ru3  1  0.77967200  0.75000000  0.45763900  1
  Xe  Xe4  1  0.80059500  0.25000000  0.84981200  1
  Xe  Xe5  1  0.30059500  0.75000000  0.65018800  1
  Xe  Xe6  1  0.69940500  0.25000000  0.34981200  1
  Xe  Xe7  1  0.19940500  0.75000000  0.15018800  1
  F  F8  1  0.22436900  0.47309000  0.54063800  1
  F  F9  1  0.12494500  0.25000000  0.13809900  1
  F  F10  1  0.54788500  0.58552500  0.65083100  1
  F  F11  1  0.77563100  0.97309000  0.45936200  1
  F  F12  1  0.56832800  0.25000000  0.09304000  1
  F  F13  1  0.93772800  0.75000000  0.55782500  1
  F  F14  1  0.72436900  0.97309000  0.95936200  1
  F  F15  1  0.98172800  0.25000000  0.98736100  1
  F  F16  1  0.92433600  0.41337500  0.31409400  1
  F  F17  1  0.37505500  0.25000000  0.63809900  1
  F  F18  1  0.43772800  0.25000000  0.94217500  1
  F  F19  1  0.48172800  0.75000000  0.51263900  1
  F  F20  1  0.87538700  0.25000000  0.73644000  1
  F  F21  1  0.93167200  0.25000000  0.59304000  1
  F  F22  1  0.43167200  0.75000000  0.90696000  1
  F  F23  1  0.57566400  0.41337500  0.81409400  1
  F  F24  1  0.01827200  0.75000000  0.01263900  1
  F  F25  1  0.56227200  0.75000000  0.05782500  1
  F  F26  1  0.62461300  0.25000000  0.23644000  1
  F  F27  1  0.51827200  0.25000000  0.48736100  1
  F  F28  1  0.37538700  0.75000000  0.76356000  1
  F  F29  1  0.45211500  0.08552500  0.34916900  1
  F  F30  1  0.62494500  0.75000000  0.36190100  1
  F  F31  1  0.04788500  0.41447500  0.84916900  1
  F  F32  1  0.57566400  0.08662500  0.81409400  1
  F  F33  1  0.06832800  0.75000000  0.40696000  1
  F  F34  1  0.07566400  0.91337500  0.68590600  1
  F  F35  1  0.42433600  0.58662500  0.18590600  1
  F  F36  1  0.45211500  0.41447500  0.34916900  1
  F  F37  1  0.42433600  0.91337500  0.18590600  1
  F  F38  1  0.87505500  0.75000000  0.86190100  1
  F  F39  1  0.27563100  0.47309000  0.04063800  1
  F  F40  1  0.72436900  0.52691000  0.95936200  1
  F  F41  1  0.07566400  0.58662500  0.68590600  1
  F  F42  1  0.92433600  0.08662500  0.31409400  1
  F  F43  1  0.12461300  0.75000000  0.26356000  1
  F  F44  1  0.06227200  0.25000000  0.44217500  1
  F  F45  1  0.27563100  0.02691000  0.04063800  1
  F  F46  1  0.77563100  0.52691000  0.45936200  1
  F  F47  1  0.95211500  0.58552500  0.15083100  1
  F  F48  1  0.95211500  0.91447500  0.15083100  1
  F  F49  1  0.22436900  0.02691000  0.54063800  1
  F  F50  1  0.04788500  0.08552500  0.84916900  1
  F  F51  1  0.54788500  0.91447500  0.65083100  1
