# generated using pymatgen
data_LiNd(PO3)4
_symmetry_space_group_name_H-M   'P 1'
_cell_length_a   16.95675000
_cell_length_b   7.17598000
_cell_length_c   10.21243385
_cell_angle_alpha   90.00000000
_cell_angle_beta   126.94702825
_cell_angle_gamma   90.00000000
_symmetry_Int_Tables_number   1
_chemical_formula_structural   LiNd(PO3)4
_chemical_formula_sum   'Li4 Nd4 P16 O48'
_cell_volume   993.12516181
_cell_formula_units_Z   4
loop_
 _symmetry_equiv_pos_site_id
 _symmetry_equiv_pos_as_xyz
  1  'x, y, z'
loop_
 _atom_site_type_symbol
 _atom_site_label
 _atom_site_symmetry_multiplicity
 _atom_site_fract_x
 _atom_site_fract_y
 _atom_site_fract_z
 _atom_site_occupancy
  Li  Li0  1  0.00000000  0.00000000  0.00000000  1
  Li  Li1  1  0.00000000  0.00000000  0.50000000  1
  Li  Li2  1  0.50000000  0.50000000  0.00000000  1
  Li  Li3  1  0.50000000  0.50000000  0.50000000  1
  Nd  Nd4  1  0.00000000  0.77196700  0.25000000  1
  Nd  Nd5  1  0.00000000  0.22803300  0.75000000  1
  Nd  Nd6  1  0.50000000  0.27196700  0.25000000  1
  Nd  Nd7  1  0.50000000  0.72803300  0.75000000  1
  P  P8  1  0.64967350  0.66043050  0.20597000  1
  P  P9  1  0.85032650  0.16043050  0.29403000  1
  P  P10  1  0.35032650  0.33956950  0.79403000  1
  P  P11  1  0.14967350  0.83956950  0.70597000  1
  P  P12  1  0.86444450  0.55167650  0.38884400  1
  P  P13  1  0.63555550  0.05167650  0.11115600  1
  P  P14  1  0.13555550  0.44832350  0.61115600  1
  P  P15  1  0.36444450  0.94832350  0.88884400  1
  P  P16  1  0.14967350  0.16043050  0.20597000  1
  P  P17  1  0.35032650  0.66043050  0.29403000  1
  P  P18  1  0.85032650  0.83956950  0.79403000  1
  P  P19  1  0.64967350  0.33956950  0.70597000  1
  P  P20  1  0.36444450  0.05167650  0.38884400  1
  P  P21  1  0.13555550  0.55167650  0.11115600  1
  P  P22  1  0.63555550  0.94832350  0.61115600  1
  P  P23  1  0.86444450  0.44832350  0.88884400  1
  O  O24  1  0.61849250  0.61799350  0.03496200  1
  O  O25  1  0.88150750  0.11799350  0.46503800  1
  O  O26  1  0.38150750  0.38200650  0.96503800  1
  O  O27  1  0.11849250  0.88200650  0.53496200  1
  O  O28  1  0.07981050  0.07779750  0.23489200  1
  O  O29  1  0.92018950  0.07779750  0.26510800  1
  O  O30  1  0.92018950  0.92220250  0.76510800  1
  O  O31  1  0.07981050  0.92220250  0.73489200  1
  O  O32  1  0.65995400  0.88182800  0.23556600  1
  O  O33  1  0.84004600  0.38182800  0.26443400  1
  O  O34  1  0.92924100  0.49096900  0.56383600  1
  O  O35  1  0.07075900  0.49096900  0.93616400  1
  O  O36  1  0.07075900  0.50903100  0.43616400  1
  O  O37  1  0.92924100  0.50903100  0.06383600  1
  O  O38  1  0.25811350  0.90913450  0.84807500  1
  O  O39  1  0.24188650  0.40913450  0.65192500  1
  O  O40  1  0.74188650  0.09086550  0.15192500  1
  O  O41  1  0.75811350  0.59086550  0.34807500  1
  O  O42  1  0.39466250  0.78596750  0.83467500  1
  O  O43  1  0.10533750  0.28596750  0.66532500  1
  O  O44  1  0.60533750  0.21403250  0.16532500  1
  O  O45  1  0.89466250  0.71403250  0.33467500  1
  O  O46  1  0.15995400  0.61817200  0.73556600  1
  O  O47  1  0.34004600  0.11817200  0.76443400  1
  O  O48  1  0.11849250  0.11799350  0.03496200  1
  O  O49  1  0.38150750  0.61799350  0.46503800  1
  O  O50  1  0.88150750  0.88200650  0.96503800  1
  O  O51  1  0.61849250  0.38200650  0.53496200  1
  O  O52  1  0.57981050  0.57779750  0.23489200  1
  O  O53  1  0.42018950  0.57779750  0.26510800  1
  O  O54  1  0.42018950  0.42220250  0.76510800  1
  O  O55  1  0.57981050  0.42220250  0.73489200  1
  O  O56  1  0.15995400  0.38182800  0.23556600  1
  O  O57  1  0.34004600  0.88182800  0.26443400  1
  O  O58  1  0.42924100  0.99096900  0.56383600  1
  O  O59  1  0.57075900  0.99096900  0.93616400  1
  O  O60  1  0.57075900  0.00903100  0.43616400  1
  O  O61  1  0.42924100  0.00903100  0.06383600  1
  O  O62  1  0.75811350  0.40913450  0.84807500  1
  O  O63  1  0.74188650  0.90913450  0.65192500  1
  O  O64  1  0.24188650  0.59086550  0.15192500  1
  O  O65  1  0.25811350  0.09086550  0.34807500  1
  O  O66  1  0.89466250  0.28596750  0.83467500  1
  O  O67  1  0.60533750  0.78596750  0.66532500  1
  O  O68  1  0.10533750  0.71403250  0.16532500  1
  O  O69  1  0.39466250  0.21403250  0.33467500  1
  O  O70  1  0.65995400  0.11817200  0.73556600  1
  O  O71  1  0.84004600  0.61817200  0.76443400  1
