# generated using pymatgen
data_Li4H6Os
_symmetry_space_group_name_H-M   'P 1'
_cell_length_a   8.27644067
_cell_length_b   8.27644067
_cell_length_c   10.19578577
_cell_angle_alpha   90.00000000
_cell_angle_beta   90.00000000
_cell_angle_gamma   120.00000000
_symmetry_Int_Tables_number   1
_chemical_formula_structural   Li4H6Os
_chemical_formula_sum   'Li24 H36 Os6'
_cell_volume   604.83727183
_cell_formula_units_Z   6
loop_
 _symmetry_equiv_pos_site_id
 _symmetry_equiv_pos_as_xyz
  1  'x, y, z'
loop_
 _atom_site_type_symbol
 _atom_site_label
 _atom_site_symmetry_multiplicity
 _atom_site_fract_x
 _atom_site_fract_y
 _atom_site_fract_z
 _atom_site_occupancy
  Li  Li0  1  0.33333333  0.66666667  0.91666667  1
  Li  Li1  1  0.33333333  0.66666667  0.41666667  1
  Li  Li2  1  0.40832100  0.40832100  0.25000000  1
  Li  Li3  1  0.59167900  0.00000000  0.25000000  1
  Li  Li4  1  0.00000000  0.59167900  0.25000000  1
  Li  Li5  1  0.07498767  0.33333333  0.08333333  1
  Li  Li6  1  0.66666667  0.74165433  0.08333333  1
  Li  Li7  1  0.25834567  0.92501233  0.08333333  1
  Li  Li8  1  0.00000000  0.00000000  0.25000000  1
  Li  Li9  1  0.00000000  0.00000000  0.75000000  1
  Li  Li10  1  0.07498767  0.74165433  0.58333333  1
  Li  Li11  1  0.25834567  0.33333333  0.58333333  1
  Li  Li12  1  0.66666667  0.92501233  0.58333333  1
  Li  Li13  1  0.74165433  0.66666667  0.41666667  1
  Li  Li14  1  0.33333333  0.07498767  0.41666667  1
  Li  Li15  1  0.92501233  0.25834567  0.41666667  1
  Li  Li16  1  0.66666667  0.33333333  0.58333333  1
  Li  Li17  1  0.66666667  0.33333333  0.08333333  1
  Li  Li18  1  0.74165433  0.07498767  0.91666667  1
  Li  Li19  1  0.92501233  0.66666667  0.91666667  1
  Li  Li20  1  0.33333333  0.25834567  0.91666667  1
  Li  Li21  1  0.40832100  0.00000000  0.75000000  1
  Li  Li22  1  0.00000000  0.40832100  0.75000000  1
  Li  Li23  1  0.59167900  0.59167900  0.75000000  1
  H  H24  1  0.47376000  0.85610400  0.06822900  1
  H  H25  1  0.14389600  0.61765600  0.06822900  1
  H  H26  1  0.38234400  0.52624000  0.06822900  1
  H  H27  1  0.80709333  0.28432267  0.23489567  1
  H  H28  1  0.71567733  0.52277067  0.23489567  1
  H  H29  1  0.47722933  0.19290667  0.23489567  1
  H  H30  1  0.19290667  0.47722933  0.26510433  1
  H  H31  1  0.52277067  0.71567733  0.26510433  1
  H  H32  1  0.28432267  0.80709333  0.26510433  1
  H  H33  1  0.85957333  0.04901067  0.09843767  1
  H  H34  1  0.95098933  0.81056267  0.09843767  1
  H  H35  1  0.18943733  0.14042667  0.09843767  1
  H  H36  1  0.14042667  0.18943733  0.40156233  1
  H  H37  1  0.81056267  0.95098933  0.40156233  1
  H  H38  1  0.04901067  0.85957333  0.40156233  1
  H  H39  1  0.47376000  0.61765600  0.56822900  1
  H  H40  1  0.38234400  0.85610400  0.56822900  1
  H  H41  1  0.14389600  0.52624000  0.56822900  1
  H  H42  1  0.85957333  0.81056267  0.59843767  1
  H  H43  1  0.18943733  0.04901067  0.59843767  1
  H  H44  1  0.95098933  0.14042667  0.59843767  1
  H  H45  1  0.52624000  0.38234400  0.43177100  1
  H  H46  1  0.61765600  0.14389600  0.43177100  1
  H  H47  1  0.85610400  0.47376000  0.43177100  1
  H  H48  1  0.80709333  0.52277067  0.73489567  1
  H  H49  1  0.47722933  0.28432267  0.73489567  1
  H  H50  1  0.71567733  0.19290667  0.73489567  1
  H  H51  1  0.14042667  0.95098933  0.90156233  1
  H  H52  1  0.04901067  0.18943733  0.90156233  1
  H  H53  1  0.81056267  0.85957333  0.90156233  1
  H  H54  1  0.52624000  0.14389600  0.93177100  1
  H  H55  1  0.85610400  0.38234400  0.93177100  1
  H  H56  1  0.61765600  0.47376000  0.93177100  1
  H  H57  1  0.19290667  0.71567733  0.76510433  1
  H  H58  1  0.28432267  0.47722933  0.76510433  1
  H  H59  1  0.52277067  0.80709333  0.76510433  1
  Os  Os60  1  0.33333333  0.66666667  0.16666667  1
  Os  Os61  1  0.00000000  0.00000000  0.00000000  1
  Os  Os62  1  1.00000000  0.00000000  0.50000000  1
  Os  Os63  1  0.66666667  0.33333333  0.33333333  1
  Os  Os64  1  0.66666667  0.33333333  0.83333333  1
  Os  Os65  1  0.33333333  0.66666667  0.66666667  1
