# generated using pymatgen
data_Dy10Ti6O27
_symmetry_space_group_name_H-M   'P 1'
_cell_length_a   12.59555200
_cell_length_b   7.35811600
_cell_length_c   24.26862297
_cell_angle_alpha   90.00000000
_cell_angle_beta   99.29513830
_cell_angle_gamma   90.00000000
_symmetry_Int_Tables_number   1
_chemical_formula_structural   Dy10Ti6O27
_chemical_formula_sum   'Dy40 Ti24 O108'
_cell_volume   2219.67128634
_cell_formula_units_Z   4
loop_
 _symmetry_equiv_pos_site_id
 _symmetry_equiv_pos_as_xyz
  1  'x, y, z'
loop_
 _atom_site_type_symbol
 _atom_site_label
 _atom_site_symmetry_multiplicity
 _atom_site_fract_x
 _atom_site_fract_y
 _atom_site_fract_z
 _atom_site_occupancy
  Dy  Dy0  1  0.48544200  0.23459200  0.24383600  1
  Dy  Dy1  1  0.48544200  0.76540800  0.24383600  1
  Dy  Dy2  1  0.61208150  0.76106550  0.11277800  1
  Dy  Dy3  1  0.74771400  0.00000000  0.23479100  1
  Dy  Dy4  1  0.61208150  0.23893450  0.11277800  1
  Dy  Dy5  1  0.37894350  0.75656850  0.37271600  1
  Dy  Dy6  1  0.01393500  0.00000000  0.50610600  1
  Dy  Dy7  1  0.12310700  0.00000000  0.37971000  1
  Dy  Dy8  1  0.52242500  0.00000000  0.49641100  1
  Dy  Dy9  1  0.37894350  0.24343150  0.37271600  1
  Dy  Dy10  1  0.61749900  0.00000000  0.36374200  1
  Dy  Dy11  1  0.61645850  0.26809050  0.63387500  1
  Dy  Dy12  1  0.74686800  0.00000000  0.75103500  1
  Dy  Dy13  1  0.11593600  0.00000000  0.87531900  1
  Dy  Dy14  1  0.26665100  0.00000000  0.75590500  1
  Dy  Dy15  1  0.61645850  0.73190950  0.63387500  1
  Dy  Dy16  1  0.37895800  0.00000000  0.63837400  1
  Dy  Dy17  1  0.35545250  0.25567950  0.87958200  1
  Dy  Dy18  1  0.00200100  0.00000000  0.99772000  1
  Dy  Dy19  1  0.35545250  0.74432050  0.87958200  1
  Dy  Dy20  1  0.98544200  0.73459200  0.24383600  1
  Dy  Dy21  1  0.98544200  0.26540800  0.24383600  1
  Dy  Dy22  1  0.11208150  0.26106550  0.11277800  1
  Dy  Dy23  1  0.24771400  0.50000000  0.23479100  1
  Dy  Dy24  1  0.11208150  0.73893450  0.11277800  1
  Dy  Dy25  1  0.87894350  0.25656850  0.37271600  1
  Dy  Dy26  1  0.51393500  0.50000000  0.50610600  1
  Dy  Dy27  1  0.62310700  0.50000000  0.37971000  1
  Dy  Dy28  1  0.02242500  0.50000000  0.49641100  1
  Dy  Dy29  1  0.87894350  0.74343150  0.37271600  1
  Dy  Dy30  1  0.11749900  0.50000000  0.36374200  1
  Dy  Dy31  1  0.11645850  0.76809050  0.63387500  1
  Dy  Dy32  1  0.24686800  0.50000000  0.75103500  1
  Dy  Dy33  1  0.61593600  0.50000000  0.87531900  1
  Dy  Dy34  1  0.76665100  0.50000000  0.75590500  1
  Dy  Dy35  1  0.11645850  0.23190950  0.63387500  1
  Dy  Dy36  1  0.87895800  0.50000000  0.63837400  1
  Dy  Dy37  1  0.85545250  0.75567950  0.87958200  1
  Dy  Dy38  1  0.50200100  0.50000000  0.99772000  1
  Dy  Dy39  1  0.85545250  0.24432050  0.87958200  1
  Ti  Ti40  1  0.73897750  0.25217150  0.99859700  1
  Ti  Ti41  1  0.73897750  0.74782850  0.99859700  1
  Ti  Ti42  1  0.49030400  0.00000000  0.99303500  1
  Ti  Ti43  1  0.24405800  0.00000000  0.24597000  1
  Ti  Ti44  1  0.75149250  0.75287150  0.49215400  1
  Ti  Ti45  1  0.75149250  0.24712850  0.49215400  1
  Ti  Ti46  1  0.89456400  0.00000000  0.13538000  1
  Ti  Ti47  1  0.49698600  0.74537100  0.75255100  1
  Ti  Ti48  1  0.37196800  0.00000000  0.11848600  1
  Ti  Ti49  1  0.62214100  0.00000000  0.87411200  1
  Ti  Ti50  1  0.49698600  0.25462900  0.75255100  1
  Ti  Ti51  1  0.85882700  0.00000000  0.61550600  1
  Ti  Ti52  1  0.23897750  0.75217150  0.99859700  1
  Ti  Ti53  1  0.23897750  0.24782850  0.99859700  1
  Ti  Ti54  1  0.99030400  0.50000000  0.99303500  1
  Ti  Ti55  1  0.74405800  0.50000000  0.24597000  1
  Ti  Ti56  1  0.25149250  0.25287150  0.49215400  1
  Ti  Ti57  1  0.25149250  0.74712850  0.49215400  1
  Ti  Ti58  1  0.39456400  0.50000000  0.13538000  1
  Ti  Ti59  1  0.99698600  0.24537100  0.75255100  1
  Ti  Ti60  1  0.87196800  0.50000000  0.11848600  1
  Ti  Ti61  1  0.12214100  0.50000000  0.87411200  1
  Ti  Ti62  1  0.99698600  0.75462900  0.75255100  1
  Ti  Ti63  1  0.35882700  0.50000000  0.61550600  1
  O  O64  1  0.02384700  0.00000000  0.08980800  1
  O  O65  1  0.44510950  0.24929950  0.14508500  1
  O  O66  1  0.44510950  0.75070050  0.14508500  1
  O  O67  1  0.58863700  0.20504000  0.01593300  1
  O  O68  1  0.59648200  0.00000000  0.26899300  1
  O  O69  1  0.72048450  0.76309350  0.40957400  1
  O  O70  1  0.49544300  0.00000000  0.08327200  1
  O  O71  1  0.65551150  0.68524650  0.20797500  1
  O  O72  1  0.58863700  0.79496000  0.01593300  1
  O  O73  1  0.36680800  0.00000000  0.20528200  1
  O  O74  1  0.73933400  0.00000000  0.13912000  1
  O  O75  1  0.72048450  0.23690650  0.40957400  1
  O  O76  1  0.26891100  0.16981500  0.07853600  1
  O  O77  1  0.65551150  0.31475350  0.20797500  1
  O  O78  1  0.33294000  0.27940700  0.28198000  1
  O  O79  1  0.19223700  0.00000000  0.48489600  1
  O  O80  1  0.45050450  0.72679650  0.66848000  1
  O  O81  1  0.25064400  0.00000000  0.32414400  1
  O  O82  1  0.39206150  0.76842750  0.48547000  1
  O  O83  1  0.26891100  0.83018500  0.07853600  1
  O  O84  1  0.33294000  0.72059300  0.28198000  1
  O  O85  1  0.92396400  0.00000000  0.21159200  1
  O  O86  1  0.95711600  0.00000000  0.41128700  1
  O  O87  1  0.47456300  0.00000000  0.40504400  1
  O  O88  1  0.45050450  0.27320350  0.66848000  1
  O  O89  1  0.53524050  0.73353850  0.33508100  1
  O  O90  1  0.39206150  0.23157250  0.48547000  1
  O  O91  1  0.59770000  0.76128800  0.54025700  1
  O  O92  1  0.02424100  0.00000000  0.77480200  1
  O  O93  1  0.69638750  0.22229150  0.91669000  1
  O  O94  1  0.00407400  0.00000000  0.59643000  1
  O  O95  1  0.64174350  0.24722450  0.73037300  1
  O  O96  1  0.59770000  0.23871200  0.54025700  1
  O  O97  1  0.53524050  0.26646150  0.33508100  1
  O  O98  1  0.72132400  0.00000000  0.65377800  1
  O  O99  1  0.70066300  0.00000000  0.48442200  1
  O  O100  1  0.22335300  0.00000000  0.65736000  1
  O  O101  1  0.27345900  0.00000000  0.84675000  1
  O  O102  1  0.69638750  0.77770850  0.91669000  1
  O  O103  1  0.35681300  0.73193900  0.77930400  1
  O  O104  1  0.31102900  0.71182400  0.57694500  1
  O  O105  1  0.64174350  0.75277550  0.73037300  1
  O  O106  1  0.38237750  0.20127150  0.98120200  1
  O  O107  1  0.75493400  0.00000000  0.84395800  1
  O  O108  1  0.49543400  0.00000000  0.91727700  1
  O  O109  1  0.43927800  0.00000000  0.73036800  1
  O  O110  1  0.31102900  0.28817600  0.57694500  1
  O  O111  1  0.35681300  0.26806100  0.77930400  1
  O  O112  1  0.96007100  0.00000000  0.90594000  1
  O  O113  1  0.55524950  0.18727250  0.82803900  1
  O  O114  1  0.38237750  0.79872850  0.98120200  1
  O  O115  1  0.17100100  0.00000000  0.97750600  1
  O  O116  1  0.55524950  0.81272750  0.82803900  1
  O  O117  1  0.77420600  0.00000000  0.00984000  1
  O  O118  1  0.52384700  0.50000000  0.08980800  1
  O  O119  1  0.94510950  0.74929950  0.14508500  1
  O  O120  1  0.94510950  0.25070050  0.14508500  1
  O  O121  1  0.08863700  0.70504000  0.01593300  1
  O  O122  1  0.09648200  0.50000000  0.26899300  1
  O  O123  1  0.22048450  0.26309350  0.40957400  1
  O  O124  1  0.99544300  0.50000000  0.08327200  1
  O  O125  1  0.15551150  0.18524650  0.20797500  1
  O  O126  1  0.08863700  0.29496000  0.01593300  1
  O  O127  1  0.86680800  0.50000000  0.20528200  1
  O  O128  1  0.23933400  0.50000000  0.13912000  1
  O  O129  1  0.22048450  0.73690650  0.40957400  1
  O  O130  1  0.76891100  0.66981500  0.07853600  1
  O  O131  1  0.15551150  0.81475350  0.20797500  1
  O  O132  1  0.83294000  0.77940700  0.28198000  1
  O  O133  1  0.69223700  0.50000000  0.48489600  1
  O  O134  1  0.95050450  0.22679650  0.66848000  1
  O  O135  1  0.75064400  0.50000000  0.32414400  1
  O  O136  1  0.89206150  0.26842750  0.48547000  1
  O  O137  1  0.76891100  0.33018500  0.07853600  1
  O  O138  1  0.83294000  0.22059300  0.28198000  1
  O  O139  1  0.42396400  0.50000000  0.21159200  1
  O  O140  1  0.45711600  0.50000000  0.41128700  1
  O  O141  1  0.97456300  0.50000000  0.40504400  1
  O  O142  1  0.95050450  0.77320350  0.66848000  1
  O  O143  1  0.03524050  0.23353850  0.33508100  1
  O  O144  1  0.89206150  0.73157250  0.48547000  1
  O  O145  1  0.09770000  0.26128800  0.54025700  1
  O  O146  1  0.52424100  0.50000000  0.77480200  1
  O  O147  1  0.19638750  0.72229150  0.91669000  1
  O  O148  1  0.50407400  0.50000000  0.59643000  1
  O  O149  1  0.14174350  0.74722450  0.73037300  1
  O  O150  1  0.09770000  0.73871200  0.54025700  1
  O  O151  1  0.03524050  0.76646150  0.33508100  1
  O  O152  1  0.22132400  0.50000000  0.65377800  1
  O  O153  1  0.20066300  0.50000000  0.48442200  1
  O  O154  1  0.72335300  0.50000000  0.65736000  1
  O  O155  1  0.77345900  0.50000000  0.84675000  1
  O  O156  1  0.19638750  0.27770850  0.91669000  1
  O  O157  1  0.85681300  0.23193900  0.77930400  1
  O  O158  1  0.81102900  0.21182400  0.57694500  1
  O  O159  1  0.14174350  0.25277550  0.73037300  1
  O  O160  1  0.88237750  0.70127150  0.98120200  1
  O  O161  1  0.25493400  0.50000000  0.84395800  1
  O  O162  1  0.99543400  0.50000000  0.91727700  1
  O  O163  1  0.93927800  0.50000000  0.73036800  1
  O  O164  1  0.81102900  0.78817600  0.57694500  1
  O  O165  1  0.85681300  0.76806100  0.77930400  1
  O  O166  1  0.46007100  0.50000000  0.90594000  1
  O  O167  1  0.05524950  0.68727250  0.82803900  1
  O  O168  1  0.88237750  0.29872850  0.98120200  1
  O  O169  1  0.67100100  0.50000000  0.97750600  1
  O  O170  1  0.05524950  0.31272750  0.82803900  1
  O  O171  1  0.27420600  0.50000000  0.00984000  1
