# generated using pymatgen
data_Mg10Si3(H2O9)2
_symmetry_space_group_name_H-M   'P 1'
_cell_length_a   5.16371200
_cell_length_b   8.82841900
_cell_length_c   14.13420500
_cell_angle_alpha   90.00000000
_cell_angle_beta   90.00000000
_cell_angle_gamma   90.00000000
_symmetry_Int_Tables_number   1
_chemical_formula_structural   Mg10Si3(H2O9)2
_chemical_formula_sum   'Mg20 Si6 H8 O36'
_cell_volume   644.34184262
_cell_formula_units_Z   2
loop_
 _symmetry_equiv_pos_site_id
 _symmetry_equiv_pos_as_xyz
  1  'x, y, z'
loop_
 _atom_site_type_symbol
 _atom_site_label
 _atom_site_symmetry_multiplicity
 _atom_site_fract_x
 _atom_site_fract_y
 _atom_site_fract_z
 _atom_site_occupancy
  Mg  Mg0  1  0.16342400  0.00000000  0.67339500  1
  Mg  Mg1  1  0.83657600  0.00000000  0.32660500  1
  Mg  Mg2  1  0.66342400  0.50000000  0.82660500  1
  Mg  Mg3  1  0.33657600  0.50000000  0.17339500  1
  Mg  Mg4  1  0.65483600  0.17606800  0.67841200  1
  Mg  Mg5  1  0.34516400  0.17606800  0.32158800  1
  Mg  Mg6  1  0.15483600  0.67606800  0.82158800  1
  Mg  Mg7  1  0.84516400  0.67606800  0.17841200  1
  Mg  Mg8  1  0.15483600  0.32393200  0.82158800  1
  Mg  Mg9  1  0.84516400  0.32393200  0.17841200  1
  Mg  Mg10  1  0.65483600  0.82393200  0.67841200  1
  Mg  Mg11  1  0.34516400  0.82393200  0.32158800  1
  Mg  Mg12  1  0.00000000  0.81926500  0.50000000  1
  Mg  Mg13  1  0.50000000  0.31926500  0.00000000  1
  Mg  Mg14  1  0.00000000  0.18073500  0.50000000  1
  Mg  Mg15  1  0.50000000  0.68073500  0.00000000  1
  Mg  Mg16  1  0.50000000  0.65612400  0.50000000  1
  Mg  Mg17  1  0.00000000  0.15612400  0.00000000  1
  Mg  Mg18  1  0.50000000  0.34387600  0.50000000  1
  Mg  Mg19  1  0.00000000  0.84387600  0.00000000  1
  Si  Si20  1  0.50000000  0.00000000  0.50000000  1
  Si  Si21  1  0.00000000  0.50000000  0.00000000  1
  Si  Si22  1  0.48216000  0.00000000  0.87597600  1
  Si  Si23  1  0.51784000  0.00000000  0.12402400  1
  Si  Si24  1  0.98216000  0.50000000  0.62402400  1
  Si  Si25  1  0.01784000  0.50000000  0.37597600  1
  H  H26  1  0.91903600  0.09996600  0.81025300  1
  H  H27  1  0.08096400  0.09996600  0.18974700  1
  H  H28  1  0.41903600  0.59996600  0.68974700  1
  H  H29  1  0.58096400  0.59996600  0.31025300  1
  H  H30  1  0.41903600  0.40003400  0.68974700  1
  H  H31  1  0.58096400  0.40003400  0.31025300  1
  H  H32  1  0.91903600  0.90003400  0.81025300  1
  H  H33  1  0.08096400  0.90003400  0.18974700  1
  O  O34  1  0.79089300  0.00000000  0.91191900  1
  O  O35  1  0.20910700  0.00000000  0.08808100  1
  O  O36  1  0.29089300  0.50000000  0.58808100  1
  O  O37  1  0.70910700  0.50000000  0.41191900  1
  O  O38  1  0.80361200  0.00000000  0.57914800  1
  O  O39  1  0.19638800  0.00000000  0.42085200  1
  O  O40  1  0.30361200  0.50000000  0.92085200  1
  O  O41  1  0.69638800  0.50000000  0.07914800  1
  O  O42  1  0.47707300  0.33915900  0.75017400  1
  O  O43  1  0.52292700  0.33915900  0.24982600  1
  O  O44  1  0.97707300  0.83915900  0.74982600  1
  O  O45  1  0.02292700  0.83915900  0.25017400  1
  O  O46  1  0.97707300  0.16084100  0.74982600  1
  O  O47  1  0.02292700  0.16084100  0.25017400  1
  O  O48  1  0.47707300  0.66084100  0.75017400  1
  O  O49  1  0.52292700  0.66084100  0.24982600  1
  O  O50  1  0.35505500  0.14448700  0.57344600  1
  O  O51  1  0.64494500  0.14448700  0.42655400  1
  O  O52  1  0.85505500  0.64448700  0.92655400  1
  O  O53  1  0.14494500  0.64448700  0.07344600  1
  O  O54  1  0.85505500  0.35551300  0.92655400  1
  O  O55  1  0.14494500  0.35551300  0.07344600  1
  O  O56  1  0.35505500  0.85551300  0.57344600  1
  O  O57  1  0.64494500  0.85551300  0.42655400  1
  O  O58  1  0.32948500  0.15345700  0.91466500  1
  O  O59  1  0.67051500  0.15345700  0.08533500  1
  O  O60  1  0.82948500  0.65345700  0.58533500  1
  O  O61  1  0.17051500  0.65345700  0.41466500  1
  O  O62  1  0.82948500  0.34654300  0.58533500  1
  O  O63  1  0.17051500  0.34654300  0.41466500  1
  O  O64  1  0.32948500  0.84654300  0.91466500  1
  O  O65  1  0.67051500  0.84654300  0.08533500  1
  O  O66  1  0.48676500  0.00000000  0.75824100  1
  O  O67  1  0.51323500  0.00000000  0.24175900  1
  O  O68  1  0.98676500  0.50000000  0.74175900  1
  O  O69  1  0.01323500  0.50000000  0.25824100  1
