# generated using pymatgen
data_Li5TiP3
_symmetry_space_group_name_H-M   'P 1'
_cell_length_a   13.06153200
_cell_length_b   5.88108000
_cell_length_c   8.23731155
_cell_angle_alpha   90.00000000
_cell_angle_beta   108.35354283
_cell_angle_gamma   90.00000000
_symmetry_Int_Tables_number   1
_chemical_formula_structural   Li5TiP3
_chemical_formula_sum   'Li20 Ti4 P12'
_cell_volume   600.56932752
_cell_formula_units_Z   4
loop_
 _symmetry_equiv_pos_site_id
 _symmetry_equiv_pos_as_xyz
  1  'x, y, z'
loop_
 _atom_site_type_symbol
 _atom_site_label
 _atom_site_symmetry_multiplicity
 _atom_site_fract_x
 _atom_site_fract_y
 _atom_site_fract_z
 _atom_site_occupancy
  Li  Li0  1  0.67172300  0.24318200  0.09616900  1
  Li  Li1  1  0.82827700  0.74318200  0.40383100  1
  Li  Li2  1  0.67164350  0.25444550  0.57538500  1
  Li  Li3  1  0.67172300  0.75681800  0.59616900  1
  Li  Li4  1  0.00000000  0.26640600  0.75000000  1
  Li  Li5  1  0.82835650  0.75444550  0.92461500  1
  Li  Li6  1  0.82827700  0.25681800  0.90383100  1
  Li  Li7  1  0.67164350  0.74555450  0.07538500  1
  Li  Li8  1  0.00000000  0.73359400  0.25000000  1
  Li  Li9  1  0.82835650  0.24555450  0.42461500  1
  Li  Li10  1  0.17172300  0.74318200  0.09616900  1
  Li  Li11  1  0.32827700  0.24318200  0.40383100  1
  Li  Li12  1  0.17164350  0.75444550  0.57538500  1
  Li  Li13  1  0.17172300  0.25681800  0.59616900  1
  Li  Li14  1  0.50000000  0.76640600  0.75000000  1
  Li  Li15  1  0.32835650  0.25444550  0.92461500  1
  Li  Li16  1  0.32827700  0.75681800  0.90383100  1
  Li  Li17  1  0.17164350  0.24555450  0.07538500  1
  Li  Li18  1  0.50000000  0.23359400  0.25000000  1
  Li  Li19  1  0.32835650  0.74555450  0.42461500  1
  Ti  Ti20  1  0.00000000  0.23328300  0.25000000  1
  Ti  Ti21  1  0.00000000  0.76671700  0.75000000  1
  Ti  Ti22  1  0.50000000  0.73328300  0.25000000  1
  Ti  Ti23  1  0.50000000  0.26671700  0.75000000  1
  P  P24  1  0.00000000  0.00000000  0.00000000  1
  P  P25  1  0.00000000  0.00000000  0.50000000  1
  P  P26  1  0.65387450  0.02938850  0.82647500  1
  P  P27  1  0.84612550  0.47061150  0.17352500  1
  P  P28  1  0.65387450  0.97061150  0.32647500  1
  P  P29  1  0.84612550  0.52938850  0.67352500  1
  P  P30  1  0.50000000  0.50000000  0.00000000  1
  P  P31  1  0.50000000  0.50000000  0.50000000  1
  P  P32  1  0.15387450  0.52938850  0.82647500  1
  P  P33  1  0.34612550  0.97061150  0.17352500  1
  P  P34  1  0.15387450  0.47061150  0.32647500  1
  P  P35  1  0.34612550  0.02938850  0.67352500  1
