# generated using pymatgen
data_Ti3H2O7
_symmetry_space_group_name_H-M   'P 1'
_cell_length_a   3.79671000
_cell_length_b   8.40999324
_cell_length_c   9.40244528
_cell_angle_alpha   99.75864349
_cell_angle_beta   89.98491197
_cell_angle_gamma   102.72649682
_symmetry_Int_Tables_number   1
_chemical_formula_structural   Ti3H2O7
_chemical_formula_sum   'Ti6 H4 O14'
_cell_volume   288.39521102
_cell_formula_units_Z   2
loop_
 _symmetry_equiv_pos_site_id
 _symmetry_equiv_pos_as_xyz
  1  'x, y, z'
loop_
 _atom_site_type_symbol
 _atom_site_label
 _atom_site_symmetry_multiplicity
 _atom_site_fract_x
 _atom_site_fract_y
 _atom_site_fract_z
 _atom_site_occupancy
  Ti  Ti0  1  0.22187700  0.44185600  0.20707200  1
  Ti  Ti1  1  0.78223000  0.56279500  0.79405400  1
  Ti  Ti2  1  0.17280800  0.34431400  0.51225300  1
  Ti  Ti3  1  0.82211200  0.64889300  0.48376300  1
  Ti  Ti4  1  0.15104700  0.27731800  0.81864100  1
  Ti  Ti5  1  0.86716000  0.73667200  0.18471700  1
  H  H6  1  0.16660100  0.94411400  0.83865000  1
  H  H7  1  0.80022800  0.93984100  0.78708000  1
  H  H8  1  0.96712500  0.00546700  0.05608500  1
  H  H9  1  0.04319100  0.08702400  0.22667100  1
  O  O10  1  0.16332600  0.32451300  0.03361800  1
  O  O11  1  0.84168200  0.68148800  0.96602700  1
  O  O12  1  0.13384000  0.26322000  0.31897400  1
  O  O13  1  0.85690400  0.73186400  0.67877500  1
  O  O14  1  0.09399500  0.18175800  0.62350900  1
  O  O15  1  0.90793800  0.81913600  0.38195300  1
  O  O16  1  0.98837500  0.01304900  0.85654500  1
  O  O17  1  0.98504000  0.97892100  0.15284200  1
  O  O18  1  0.34058100  0.68251900  0.17302900  1
  O  O19  1  0.66209900  0.31725400  0.82922100  1
  O  O20  1  0.28949800  0.58161200  0.45680400  1
  O  O21  1  0.70722600  0.41273100  0.54269900  1
  O  O22  1  0.24931500  0.49535200  0.76048500  1
  O  O23  1  0.75444800  0.50813700  0.24343700  1
