# generated using pymatgen
data_Ca2LaF7
_symmetry_space_group_name_H-M   'P 1'
_cell_length_a   6.87973000
_cell_length_b   4.08617200
_cell_length_c   9.88750756
_cell_angle_alpha   90.00000000
_cell_angle_beta   90.98684506
_cell_angle_gamma   90.00000000
_symmetry_Int_Tables_number   1
_chemical_formula_structural   Ca2LaF7
_chemical_formula_sum   'Ca4 La2 F14'
_cell_volume   277.91401287
_cell_formula_units_Z   2
loop_
 _symmetry_equiv_pos_site_id
 _symmetry_equiv_pos_as_xyz
  1  'x, y, z'
loop_
 _atom_site_type_symbol
 _atom_site_label
 _atom_site_symmetry_multiplicity
 _atom_site_fract_x
 _atom_site_fract_y
 _atom_site_fract_z
 _atom_site_occupancy
  Ca  Ca0  1  0.34564500  0.00000000  0.66548100  1
  Ca  Ca1  1  0.65721600  0.00000000  0.35163700  1
  Ca  Ca2  1  0.84564500  0.50000000  0.66548100  1
  Ca  Ca3  1  0.15721600  0.50000000  0.35163700  1
  La  La4  1  0.96635600  0.00000000  0.00008800  1
  La  La5  1  0.46635600  0.50000000  0.00008800  1
  F  F6  1  0.66494700  0.00000000  0.58278700  1
  F  F7  1  0.63121600  0.00000000  0.87252700  1
  F  F8  1  0.98865600  0.00000000  0.74176300  1
  F  F9  1  0.98514500  0.00000000  0.26424300  1
  F  F10  1  0.32610600  0.00000000  0.42816100  1
  F  F11  1  0.30200400  0.00000000  0.98636600  1
  F  F12  1  0.64136300  0.00000000  0.12356600  1
  F  F13  1  0.16494700  0.50000000  0.58278700  1
  F  F14  1  0.13121600  0.50000000  0.87252700  1
  F  F15  1  0.48865600  0.50000000  0.74176300  1
  F  F16  1  0.48514500  0.50000000  0.26424300  1
  F  F17  1  0.82610600  0.50000000  0.42816100  1
  F  F18  1  0.80200400  0.50000000  0.98636600  1
  F  F19  1  0.14136300  0.50000000  0.12356600  1
