# generated using pymatgen
data_BaNiF6
_symmetry_space_group_name_H-M   'P 1'
_cell_length_a   7.45305484
_cell_length_b   7.45305484
_cell_length_c   7.06567448
_cell_angle_alpha   90.00000000
_cell_angle_beta   90.00000000
_cell_angle_gamma   120.00000000
_symmetry_Int_Tables_number   1
_chemical_formula_structural   BaNiF6
_chemical_formula_sum   'Ba3 Ni3 F18'
_cell_volume   339.90135092
_cell_formula_units_Z   3
loop_
 _symmetry_equiv_pos_site_id
 _symmetry_equiv_pos_as_xyz
  1  'x, y, z'
loop_
 _atom_site_type_symbol
 _atom_site_label
 _atom_site_symmetry_multiplicity
 _atom_site_fract_x
 _atom_site_fract_y
 _atom_site_fract_z
 _atom_site_occupancy
  Ba  Ba0  1  0.00000000  0.00000000  0.50000000  1
  Ba  Ba1  1  0.66666667  0.33333333  0.83333333  1
  Ba  Ba2  1  0.33333333  0.66666667  0.16666667  1
  Ni  Ni3  1  0.00000000  0.00000000  0.00000000  1
  Ni  Ni4  1  0.66666667  0.33333333  0.33333333  1
  Ni  Ni5  1  0.33333333  0.66666667  0.66666667  1
  F  F6  1  0.22138200  0.77861800  0.51429200  1
  F  F7  1  0.22138200  0.44276400  0.51429200  1
  F  F8  1  0.77861800  0.55723600  0.48570800  1
  F  F9  1  0.77861800  0.22138200  0.48570800  1
  F  F10  1  0.44276400  0.22138200  0.48570800  1
  F  F11  1  0.55723600  0.77861800  0.51429200  1
  F  F12  1  0.88804867  0.11195133  0.84762533  1
  F  F13  1  0.88804867  0.77609733  0.84762533  1
  F  F14  1  0.44528467  0.89056933  0.81904133  1
  F  F15  1  0.44528467  0.55471533  0.81904133  1
  F  F16  1  0.10943067  0.55471533  0.81904133  1
  F  F17  1  0.22390267  0.11195133  0.84762533  1
  F  F18  1  0.55471533  0.44528467  0.18095867  1
  F  F19  1  0.55471533  0.10943067  0.18095867  1
  F  F20  1  0.11195133  0.22390267  0.15237467  1
  F  F21  1  0.11195133  0.88804867  0.15237467  1
  F  F22  1  0.77609733  0.88804867  0.15237467  1
  F  F23  1  0.89056933  0.44528467  0.18095867  1
