# generated using pymatgen
data_SrH4(ClO)2
_symmetry_space_group_name_H-M   'P 1'
_cell_length_a   11.84970400
_cell_length_b   6.46341800
_cell_length_c   6.72261559
_cell_angle_alpha   90.00000000
_cell_angle_beta   105.50067329
_cell_angle_gamma   90.00000000
_symmetry_Int_Tables_number   1
_chemical_formula_structural   SrH4(ClO)2
_chemical_formula_sum   'Sr4 H16 Cl8 O8'
_cell_volume   496.15471745
_cell_formula_units_Z   4
loop_
 _symmetry_equiv_pos_site_id
 _symmetry_equiv_pos_as_xyz
  1  'x, y, z'
loop_
 _atom_site_type_symbol
 _atom_site_label
 _atom_site_symmetry_multiplicity
 _atom_site_fract_x
 _atom_site_fract_y
 _atom_site_fract_z
 _atom_site_occupancy
  Sr  Sr0  1  0.00000000  0.74318600  0.75000000  1
  Sr  Sr1  1  0.00000000  0.25681400  0.25000000  1
  Sr  Sr2  1  0.50000000  0.24318600  0.75000000  1
  Sr  Sr3  1  0.50000000  0.75681400  0.25000000  1
  H  H4  1  0.62114850  0.80465250  0.88013200  1
  H  H5  1  0.87885150  0.30465250  0.61986800  1
  H  H6  1  0.87885150  0.69534750  0.11986800  1
  H  H7  1  0.62114850  0.19534750  0.38013200  1
  H  H8  1  0.69000350  0.95883250  0.04963200  1
  H  H9  1  0.80999650  0.45883250  0.45036800  1
  H  H10  1  0.80999650  0.54116750  0.95036800  1
  H  H11  1  0.69000350  0.04116750  0.54963200  1
  H  H12  1  0.12114850  0.30465250  0.88013200  1
  H  H13  1  0.37885150  0.80465250  0.61986800  1
  H  H14  1  0.37885150  0.19534750  0.11986800  1
  H  H15  1  0.12114850  0.69534750  0.38013200  1
  H  H16  1  0.19000350  0.45883250  0.04963200  1
  H  H17  1  0.30999650  0.95883250  0.45036800  1
  H  H18  1  0.30999650  0.04116750  0.95036800  1
  H  H19  1  0.19000350  0.54116750  0.54963200  1
  Cl  Cl20  1  0.64603500  0.40624400  0.15334400  1
  Cl  Cl21  1  0.85396500  0.90624400  0.34665600  1
  Cl  Cl22  1  0.85396500  0.09375600  0.84665600  1
  Cl  Cl23  1  0.64603500  0.59375600  0.65334400  1
  Cl  Cl24  1  0.14603500  0.90624400  0.15334400  1
  Cl  Cl25  1  0.35396500  0.40624400  0.34665600  1
  Cl  Cl26  1  0.35396500  0.59375600  0.84665600  1
  Cl  Cl27  1  0.14603500  0.09375600  0.65334400  1
  O  O28  1  0.60930150  0.91842750  0.97368900  1
  O  O29  1  0.89069850  0.41842750  0.52631100  1
  O  O30  1  0.89069850  0.58157250  0.02631100  1
  O  O31  1  0.60930150  0.08157250  0.47368900  1
  O  O32  1  0.10930150  0.41842750  0.97368900  1
  O  O33  1  0.39069850  0.91842750  0.52631100  1
  O  O34  1  0.39069850  0.08157250  0.02631100  1
  O  O35  1  0.10930150  0.58157250  0.47368900  1
