# generated using pymatgen
data_K3Nb2S11
_symmetry_space_group_name_H-M   'P 1'
_cell_length_a   36.23777800
_cell_length_b   8.08301600
_cell_length_c   12.58254465
_cell_angle_alpha   90.00000000
_cell_angle_beta   100.59628426
_cell_angle_gamma   90.00000000
_symmetry_Int_Tables_number   1
_chemical_formula_structural   K3Nb2S11
_chemical_formula_sum   'K24 Nb16 S88'
_cell_volume   3622.71110700
_cell_formula_units_Z   8
loop_
 _symmetry_equiv_pos_site_id
 _symmetry_equiv_pos_as_xyz
  1  'x, y, z'
loop_
 _atom_site_type_symbol
 _atom_site_label
 _atom_site_symmetry_multiplicity
 _atom_site_fract_x
 _atom_site_fract_y
 _atom_site_fract_z
 _atom_site_occupancy
  K  K0  1  0.11805900  0.27323700  0.32837800  1
  K  K1  1  0.38194100  0.22676300  0.67162200  1
  K  K2  1  0.38194100  0.77323700  0.17162200  1
  K  K3  1  0.20923850  0.65174350  0.25633800  1
  K  K4  1  0.29076150  0.15174350  0.24366200  1
  K  K5  1  0.46770750  0.68188650  0.90704100  1
  K  K6  1  0.29076150  0.84825650  0.74366200  1
  K  K7  1  0.03229250  0.81811350  0.09295900  1
  K  K8  1  0.20923850  0.34825650  0.75633800  1
  K  K9  1  0.46770750  0.31811350  0.40704100  1
  K  K10  1  0.03229250  0.18188650  0.59295900  1
  K  K11  1  0.11805900  0.72676300  0.82837800  1
  K  K12  1  0.61805900  0.77323700  0.32837800  1
  K  K13  1  0.88194100  0.72676300  0.67162200  1
  K  K14  1  0.88194100  0.27323700  0.17162200  1
  K  K15  1  0.70923850  0.15174350  0.25633800  1
  K  K16  1  0.79076150  0.65174350  0.24366200  1
  K  K17  1  0.96770750  0.18188650  0.90704100  1
  K  K18  1  0.79076150  0.34825650  0.74366200  1
  K  K19  1  0.53229250  0.31811350  0.09295900  1
  K  K20  1  0.70923850  0.84825650  0.75633800  1
  K  K21  1  0.96770750  0.81811350  0.40704100  1
  K  K22  1  0.53229250  0.68188650  0.59295900  1
  K  K23  1  0.61805900  0.22676300  0.82837800  1
  Nb  Nb24  1  0.41803900  0.29934300  0.07347200  1
  Nb  Nb25  1  0.32239400  0.28384900  0.91791800  1
  Nb  Nb26  1  0.08196100  0.79934300  0.42652800  1
  Nb  Nb27  1  0.41803900  0.70065700  0.57347200  1
  Nb  Nb28  1  0.32239400  0.71615100  0.41791800  1
  Nb  Nb29  1  0.17760600  0.21615100  0.08208200  1
  Nb  Nb30  1  0.08196100  0.20065700  0.92652800  1
  Nb  Nb31  1  0.17760600  0.78384900  0.58208200  1
  Nb  Nb32  1  0.91803900  0.79934300  0.07347200  1
  Nb  Nb33  1  0.82239400  0.78384900  0.91791800  1
  Nb  Nb34  1  0.58196100  0.29934300  0.42652800  1
  Nb  Nb35  1  0.91803900  0.20065700  0.57347200  1
  Nb  Nb36  1  0.82239400  0.21615100  0.41791800  1
  Nb  Nb37  1  0.67760600  0.71615100  0.08208200  1
  Nb  Nb38  1  0.58196100  0.70065700  0.92652800  1
  Nb  Nb39  1  0.67760600  0.28384900  0.58208200  1
  S  S40  1  0.16408100  0.91212900  0.05277600  1
  S  S41  1  0.44978550  0.19263250  0.92792900  1
  S  S42  1  0.13270800  0.55300200  0.55221800  1
  S  S43  1  0.45494600  0.48904800  0.64613200  1
  S  S44  1  0.33591900  0.58787100  0.94722400  1
  S  S45  1  0.23460950  0.14010250  0.00544600  1
  S  S46  1  0.13270800  0.44699800  0.05221800  1
  S  S47  1  0.18363750  0.48620150  0.00086700  1
  S  S48  1  0.03922750  0.43717450  0.92861300  1
  S  S49  1  0.11951400  0.04623300  0.09290400  1
  S  S50  1  0.33591900  0.41212900  0.44722400  1
  S  S51  1  0.13948950  0.13877450  0.85679700  1
  S  S52  1  0.10538900  0.32216600  0.77371600  1
  S  S53  1  0.20250000  0.76080100  0.75908100  1
  S  S54  1  0.46077250  0.06282550  0.07138700  1
  S  S55  1  0.13948950  0.86122550  0.35679700  1
  S  S56  1  0.11951400  0.95376700  0.59290400  1
  S  S57  1  0.44978550  0.80736750  0.42792900  1
  S  S58  1  0.39461100  0.17783400  0.22628400  1
  S  S59  1  0.39461100  0.82216600  0.72628400  1
  S  S60  1  0.36729200  0.94699800  0.44778200  1
  S  S61  1  0.16408100  0.08787100  0.55277600  1
  S  S62  1  0.38048600  0.54623300  0.40709600  1
  S  S63  1  0.26539050  0.35989750  0.99455400  1
  S  S64  1  0.36051050  0.63877450  0.64320300  1
  S  S65  1  0.04505400  0.98904800  0.85386800  1
  S  S66  1  0.05021450  0.30736750  0.07207100  1
  S  S67  1  0.10538900  0.67783400  0.27371600  1
  S  S68  1  0.03922750  0.56282550  0.42861300  1
  S  S69  1  0.05021450  0.69263250  0.57207100  1
  S  S70  1  0.45494600  0.51095200  0.14613200  1
  S  S71  1  0.23460950  0.85989750  0.50544600  1
  S  S72  1  0.36729200  0.05300200  0.94778200  1
  S  S73  1  0.31636250  0.01379850  0.99913300  1
  S  S74  1  0.36051050  0.36122550  0.14320300  1
  S  S75  1  0.18363750  0.51379850  0.50086700  1
  S  S76  1  0.04505400  0.01095200  0.35386800  1
  S  S77  1  0.29750000  0.73919900  0.24091900  1
  S  S78  1  0.26539050  0.64010250  0.49455400  1
  S  S79  1  0.46077250  0.93717450  0.57138700  1
  S  S80  1  0.38048600  0.45376700  0.90709600  1
  S  S81  1  0.31636250  0.98620150  0.49913300  1
  S  S82  1  0.20250000  0.23919900  0.25908100  1
  S  S83  1  0.29750000  0.26080100  0.74091900  1
  S  S84  1  0.66408100  0.41212900  0.05277600  1
  S  S85  1  0.94978550  0.69263250  0.92792900  1
  S  S86  1  0.63270800  0.05300200  0.55221800  1
  S  S87  1  0.95494600  0.98904800  0.64613200  1
  S  S88  1  0.83591900  0.08787100  0.94722400  1
  S  S89  1  0.73460950  0.64010250  0.00544600  1
  S  S90  1  0.63270800  0.94699800  0.05221800  1
  S  S91  1  0.68363750  0.98620150  0.00086700  1
  S  S92  1  0.53922750  0.93717450  0.92861300  1
  S  S93  1  0.61951400  0.54623300  0.09290400  1
  S  S94  1  0.83591900  0.91212900  0.44722400  1
  S  S95  1  0.63948950  0.63877450  0.85679700  1
  S  S96  1  0.60538900  0.82216600  0.77371600  1
  S  S97  1  0.70250000  0.26080100  0.75908100  1
  S  S98  1  0.96077250  0.56282550  0.07138700  1
  S  S99  1  0.63948950  0.36122550  0.35679700  1
  S  S100  1  0.61951400  0.45376700  0.59290400  1
  S  S101  1  0.94978550  0.30736750  0.42792900  1
  S  S102  1  0.89461100  0.67783400  0.22628400  1
  S  S103  1  0.89461100  0.32216600  0.72628400  1
  S  S104  1  0.86729200  0.44699800  0.44778200  1
  S  S105  1  0.66408100  0.58787100  0.55277600  1
  S  S106  1  0.88048600  0.04623300  0.40709600  1
  S  S107  1  0.76539050  0.85989750  0.99455400  1
  S  S108  1  0.86051050  0.13877450  0.64320300  1
  S  S109  1  0.54505400  0.48904800  0.85386800  1
  S  S110  1  0.55021450  0.80736750  0.07207100  1
  S  S111  1  0.60538900  0.17783400  0.27371600  1
  S  S112  1  0.53922750  0.06282550  0.42861300  1
  S  S113  1  0.55021450  0.19263250  0.57207100  1
  S  S114  1  0.95494600  0.01095200  0.14613200  1
  S  S115  1  0.73460950  0.35989750  0.50544600  1
  S  S116  1  0.86729200  0.55300200  0.94778200  1
  S  S117  1  0.81636250  0.51379850  0.99913300  1
  S  S118  1  0.86051050  0.86122550  0.14320300  1
  S  S119  1  0.68363750  0.01379850  0.50086700  1
  S  S120  1  0.54505400  0.51095200  0.35386800  1
  S  S121  1  0.79750000  0.23919900  0.24091900  1
  S  S122  1  0.76539050  0.14010250  0.49455400  1
  S  S123  1  0.96077250  0.43717450  0.57138700  1
  S  S124  1  0.88048600  0.95376700  0.90709600  1
  S  S125  1  0.81636250  0.48620150  0.49913300  1
  S  S126  1  0.70250000  0.73919900  0.25908100  1
  S  S127  1  0.79750000  0.76080100  0.74091900  1
