# generated using pymatgen
data_Tm10Ti6O27
_symmetry_space_group_name_H-M   'P 1'
_cell_length_a   12.55355800
_cell_length_b   7.24365800
_cell_length_c   23.96132633
_cell_angle_alpha   90.00000000
_cell_angle_beta   99.43308133
_cell_angle_gamma   90.00000000
_symmetry_Int_Tables_number   1
_chemical_formula_structural   Tm10Ti6O27
_chemical_formula_sum   'Tm40 Ti24 O108'
_cell_volume   2149.42796708
_cell_formula_units_Z   4
loop_
 _symmetry_equiv_pos_site_id
 _symmetry_equiv_pos_as_xyz
  1  'x, y, z'
loop_
 _atom_site_type_symbol
 _atom_site_label
 _atom_site_symmetry_multiplicity
 _atom_site_fract_x
 _atom_site_fract_y
 _atom_site_fract_z
 _atom_site_occupancy
  Tm  Tm0  1  0.98836000  0.00000000  0.00256500  1
  Tm  Tm1  1  0.73627400  0.50000000  0.74501600  1
  Tm  Tm2  1  0.87439300  0.75626700  0.87573400  1
  Tm  Tm3  1  0.63342300  0.00000000  0.88722100  1
  Tm  Tm4  1  0.73082300  0.00000000  0.75525500  1
  Tm  Tm5  1  0.61336600  0.26358200  0.62345800  1
  Tm  Tm6  1  0.61230100  0.50000000  0.86567500  1
  Tm  Tm7  1  0.87439300  0.24373300  0.87573400  1
  Tm  Tm8  1  0.86736900  0.00000000  0.60726400  1
  Tm  Tm9  1  0.51160900  0.50000000  0.49517600  1
  Tm  Tm10  1  0.85977000  0.50000000  0.61050100  1
  Tm  Tm11  1  0.86781700  0.24630700  0.36980100  1
  Tm  Tm12  1  0.61336600  0.73641800  0.62345800  1
  Tm  Tm13  1  0.61743600  0.50000000  0.36522500  1
  Tm  Tm14  1  0.61612600  0.74168400  0.13296500  1
  Tm  Tm15  1  0.76805200  0.50000000  0.25001600  1
  Tm  Tm16  1  0.87349800  0.50000000  0.11986700  1
  Tm  Tm17  1  0.86781700  0.75369300  0.36980100  1
  Tm  Tm18  1  0.52206100  0.00000000  0.00928300  1
  Tm  Tm19  1  0.61612600  0.25831600  0.13296500  1
  Tm  Tm20  1  0.48836000  0.50000000  0.00256500  1
  Tm  Tm21  1  0.23627400  0.00000000  0.74501600  1
  Tm  Tm22  1  0.37439300  0.25626700  0.87573400  1
  Tm  Tm23  1  0.13342300  0.50000000  0.88722100  1
  Tm  Tm24  1  0.23082300  0.50000000  0.75525500  1
  Tm  Tm25  1  0.11336600  0.76358200  0.62345800  1
  Tm  Tm26  1  0.11230100  0.00000000  0.86567500  1
  Tm  Tm27  1  0.37439300  0.74373300  0.87573400  1
  Tm  Tm28  1  0.36736900  0.50000000  0.60726400  1
  Tm  Tm29  1  0.01160900  0.00000000  0.49517600  1
  Tm  Tm30  1  0.35977000  0.00000000  0.61050100  1
  Tm  Tm31  1  0.36781700  0.74630700  0.36980100  1
  Tm  Tm32  1  0.11336600  0.23641800  0.62345800  1
  Tm  Tm33  1  0.11743600  0.00000000  0.36522500  1
  Tm  Tm34  1  0.11612600  0.24168400  0.13296500  1
  Tm  Tm35  1  0.26805200  0.00000000  0.25001600  1
  Tm  Tm36  1  0.37349800  0.00000000  0.11986700  1
  Tm  Tm37  1  0.36781700  0.25369300  0.36980100  1
  Tm  Tm38  1  0.02206100  0.50000000  0.00928300  1
  Tm  Tm39  1  0.11612600  0.75831600  0.13296500  1
  Ti  Ti40  1  0.74521100  0.26386300  0.00019400  1
  Ti  Ti41  1  0.74521100  0.73613700  0.00019400  1
  Ti  Ti42  1  0.99463050  0.24979650  0.74512300  1
  Ti  Ti43  1  0.99463050  0.75020350  0.74512300  1
  Ti  Ti44  1  0.50167800  0.00000000  0.50040100  1
  Ti  Ti45  1  0.74512850  0.75609550  0.49772400  1
  Ti  Ti46  1  0.74512850  0.24390450  0.49772400  1
  Ti  Ti47  1  0.74328700  0.00000000  0.24869000  1
  Ti  Ti48  1  0.99648900  0.75110000  0.25072100  1
  Ti  Ti49  1  0.99648900  0.24890000  0.25072100  1
  Ti  Ti50  1  0.61944800  0.00000000  0.37565000  1
  Ti  Ti51  1  0.87935900  0.00000000  0.12375900  1
  Ti  Ti52  1  0.24521100  0.76386300  0.00019400  1
  Ti  Ti53  1  0.24521100  0.23613700  0.00019400  1
  Ti  Ti54  1  0.49463050  0.74979650  0.74512300  1
  Ti  Ti55  1  0.49463050  0.25020350  0.74512300  1
  Ti  Ti56  1  0.00167800  0.50000000  0.50040100  1
  Ti  Ti57  1  0.24512850  0.25609550  0.49772400  1
  Ti  Ti58  1  0.24512850  0.74390450  0.49772400  1
  Ti  Ti59  1  0.24328700  0.50000000  0.24869000  1
  Ti  Ti60  1  0.49648900  0.25110000  0.25072100  1
  Ti  Ti61  1  0.49648900  0.74890000  0.25072100  1
  Ti  Ti62  1  0.11944800  0.50000000  0.37565000  1
  Ti  Ti63  1  0.37935900  0.50000000  0.12375900  1
  O  O64  1  0.78518400  0.50000000  0.83864300  1
  O  O65  1  0.91415100  0.27744500  0.97047100  1
  O  O66  1  0.52972600  0.78284900  0.84478800  1
  O  O67  1  0.91415100  0.72255500  0.97047100  1
  O  O68  1  0.53381700  0.00000000  0.58995400  1
  O  O69  1  0.70795350  0.71100150  0.92264500  1
  O  O70  1  0.52979100  0.00000000  0.75456000  1
  O  O71  1  0.64983900  0.76368300  0.71443000  1
  O  O72  1  0.68912200  0.00000000  0.98245200  1
  O  O73  1  0.52972600  0.21715100  0.84478800  1
  O  O74  1  0.64983900  0.23631700  0.71443000  1
  O  O75  1  0.70795350  0.28899850  0.92264500  1
  O  O76  1  0.76796200  0.00000000  0.84521800  1
  O  O77  1  0.85655000  0.77335100  0.76160800  1
  O  O78  1  0.76294450  0.76464350  0.58418700  1
  O  O79  1  0.74341600  0.00000000  0.33131300  1
  O  O80  1  0.94577300  0.75973900  0.66422600  1
  O  O81  1  0.81618000  0.00000000  0.50944400  1
  O  O82  1  0.88785150  0.67902150  0.49906900  1
  O  O83  1  0.56000900  0.50000000  0.76793400  1
  O  O84  1  0.85655000  0.22664900  0.76160800  1
  O  O85  1  0.97345600  0.00000000  0.90989200  1
  O  O86  1  0.76294450  0.23535650  0.58418700  1
  O  O87  1  0.54515900  0.20697400  0.33445500  1
  O  O88  1  0.94577300  0.24026100  0.66422600  1
  O  O89  1  0.52409500  0.50000000  0.58513800  1
  O  O90  1  0.96483300  0.00000000  0.40251400  1
  O  O91  1  0.59039600  0.21578800  0.50460800  1
  O  O92  1  0.88785150  0.32097850  0.49906900  1
  O  O93  1  0.52289900  0.50000000  0.10110600  1
  O  O94  1  0.71324100  0.21500600  0.41492500  1
  O  O95  1  0.55489900  0.50000000  0.27116400  1
  O  O96  1  0.64707350  0.20689650  0.23120700  1
  O  O97  1  0.69827900  0.50000000  0.49508700  1
  O  O98  1  0.59039600  0.78421200  0.50460800  1
  O  O99  1  0.72490200  0.50000000  0.65380400  1
  O  O100  1  0.54515900  0.79302600  0.33445500  1
  O  O101  1  0.71324100  0.78499400  0.41492500  1
  O  O102  1  0.72873000  0.50000000  0.15851700  1
  O  O103  1  0.77823700  0.50000000  0.34136300  1
  O  O104  1  0.85499550  0.20685350  0.27305700  1
  O  O105  1  0.83359200  0.18551200  0.07263400  1
  O  O106  1  0.64707350  0.79310350  0.23120700  1
  O  O107  1  0.95532550  0.22729850  0.17085200  1
  O  O108  1  0.79466700  0.50000000  0.03052300  1
  O  O109  1  0.94403700  0.50000000  0.24095500  1
  O  O110  1  0.85499550  0.79314650  0.27305700  1
  O  O111  1  0.98725400  0.50000000  0.41458100  1
  O  O112  1  0.83359200  0.81448800  0.07263400  1
  O  O113  1  0.95532550  0.77270150  0.17085200  1
  O  O114  1  0.53587200  0.00000000  0.09964400  1
  O  O115  1  0.61808700  0.71597000  0.03354800  1
  O  O116  1  0.61808700  0.28403000  0.03354800  1
  O  O117  1  0.75847700  0.00000000  0.16726700  1
  O  O118  1  0.28518400  0.00000000  0.83864300  1
  O  O119  1  0.41415100  0.77744500  0.97047100  1
  O  O120  1  0.02972600  0.28284900  0.84478800  1
  O  O121  1  0.41415100  0.22255500  0.97047100  1
  O  O122  1  0.03381700  0.50000000  0.58995400  1
  O  O123  1  0.20795350  0.21100150  0.92264500  1
  O  O124  1  0.02979100  0.50000000  0.75456000  1
  O  O125  1  0.14983900  0.26368300  0.71443000  1
  O  O126  1  0.18912200  0.50000000  0.98245200  1
  O  O127  1  0.02972600  0.71715100  0.84478800  1
  O  O128  1  0.14983900  0.73631700  0.71443000  1
  O  O129  1  0.20795350  0.78899850  0.92264500  1
  O  O130  1  0.26796200  0.50000000  0.84521800  1
  O  O131  1  0.35655000  0.27335100  0.76160800  1
  O  O132  1  0.26294450  0.26464350  0.58418700  1
  O  O133  1  0.24341600  0.50000000  0.33131300  1
  O  O134  1  0.44577300  0.25973900  0.66422600  1
  O  O135  1  0.31618000  0.50000000  0.50944400  1
  O  O136  1  0.38785150  0.17902150  0.49906900  1
  O  O137  1  0.06000900  0.00000000  0.76793400  1
  O  O138  1  0.35655000  0.72664900  0.76160800  1
  O  O139  1  0.47345600  0.50000000  0.90989200  1
  O  O140  1  0.26294450  0.73535650  0.58418700  1
  O  O141  1  0.04515900  0.70697400  0.33445500  1
  O  O142  1  0.44577300  0.74026100  0.66422600  1
  O  O143  1  0.02409500  0.00000000  0.58513800  1
  O  O144  1  0.46483300  0.50000000  0.40251400  1
  O  O145  1  0.09039600  0.71578800  0.50460800  1
  O  O146  1  0.38785150  0.82097850  0.49906900  1
  O  O147  1  0.02289900  0.00000000  0.10110600  1
  O  O148  1  0.21324100  0.71500600  0.41492500  1
  O  O149  1  0.05489900  0.00000000  0.27116400  1
  O  O150  1  0.14707350  0.70689650  0.23120700  1
  O  O151  1  0.19827900  0.00000000  0.49508700  1
  O  O152  1  0.09039600  0.28421200  0.50460800  1
  O  O153  1  0.22490200  0.00000000  0.65380400  1
  O  O154  1  0.04515900  0.29302600  0.33445500  1
  O  O155  1  0.21324100  0.28499400  0.41492500  1
  O  O156  1  0.22873000  0.00000000  0.15851700  1
  O  O157  1  0.27823700  0.00000000  0.34136300  1
  O  O158  1  0.35499550  0.70685350  0.27305700  1
  O  O159  1  0.33359200  0.68551200  0.07263400  1
  O  O160  1  0.14707350  0.29310350  0.23120700  1
  O  O161  1  0.45532550  0.72729850  0.17085200  1
  O  O162  1  0.29466700  0.00000000  0.03052300  1
  O  O163  1  0.44403700  0.00000000  0.24095500  1
  O  O164  1  0.35499550  0.29314650  0.27305700  1
  O  O165  1  0.48725400  0.00000000  0.41458100  1
  O  O166  1  0.33359200  0.31448800  0.07263400  1
  O  O167  1  0.45532550  0.27270150  0.17085200  1
  O  O168  1  0.03587200  0.50000000  0.09964400  1
  O  O169  1  0.11808700  0.21597000  0.03354800  1
  O  O170  1  0.11808700  0.78403000  0.03354800  1
  O  O171  1  0.25847700  0.50000000  0.16726700  1
