# generated using pymatgen
data_V3(HO4)2
_symmetry_space_group_name_H-M   'P 1'
_cell_length_a   3.68967400
_cell_length_b   9.63115100
_cell_length_c   17.14094900
_cell_angle_alpha   90.00000000
_cell_angle_beta   90.00000000
_cell_angle_gamma   90.00000000
_symmetry_Int_Tables_number   1
_chemical_formula_structural   V3(HO4)2
_chemical_formula_sum   'V12 H8 O32'
_cell_volume   609.11746291
_cell_formula_units_Z   4
loop_
 _symmetry_equiv_pos_site_id
 _symmetry_equiv_pos_as_xyz
  1  'x, y, z'
loop_
 _atom_site_type_symbol
 _atom_site_label
 _atom_site_symmetry_multiplicity
 _atom_site_fract_x
 _atom_site_fract_y
 _atom_site_fract_z
 _atom_site_occupancy
  V  V0  1  0.25328400  0.37459200  0.45064100  1
  V  V1  1  0.25328400  0.12540800  0.95064100  1
  V  V2  1  0.75328400  0.62540800  0.54935900  1
  V  V3  1  0.75328400  0.87459200  0.04935900  1
  V  V4  1  0.26010000  0.44198200  0.65343600  1
  V  V5  1  0.26010000  0.05801800  0.15343600  1
  V  V6  1  0.76010000  0.55801800  0.34656400  1
  V  V7  1  0.76010000  0.94198200  0.84656400  1
  V  V8  1  0.23742900  0.40524800  0.04940600  1
  V  V9  1  0.23742900  0.09475200  0.54940600  1
  V  V10  1  0.73742900  0.59475200  0.95059400  1
  V  V11  1  0.73742900  0.90524800  0.45059400  1
  H  H12  1  0.31891300  0.25874200  0.76605100  1
  H  H13  1  0.31891300  0.24125800  0.26605100  1
  H  H14  1  0.81891300  0.74125800  0.23394900  1
  H  H15  1  0.81891300  0.75874200  0.73394900  1
  H  H16  1  0.40127000  0.57986500  0.76670100  1
  H  H17  1  0.40127000  0.92013500  0.26670100  1
  H  H18  1  0.90127000  0.42013500  0.23329900  1
  H  H19  1  0.90127000  0.07986500  0.73329900  1
  O  O20  1  0.25035600  0.57286600  0.54428700  1
  O  O21  1  0.25035600  0.92713400  0.04428700  1
  O  O22  1  0.75035600  0.42713400  0.45571300  1
  O  O23  1  0.75035600  0.07286600  0.95571300  1
  O  O24  1  0.25325100  0.23559300  0.39692800  1
  O  O25  1  0.25325100  0.26440700  0.89692800  1
  O  O26  1  0.75325100  0.76440700  0.60307200  1
  O  O27  1  0.75325100  0.73559300  0.10307200  1
  O  O28  1  0.24856700  0.52584200  0.37621000  1
  O  O29  1  0.24856700  0.97415800  0.87621000  1
  O  O30  1  0.74856700  0.47415800  0.62379000  1
  O  O31  1  0.74856700  0.02584200  0.12379000  1
  O  O32  1  0.24521800  0.28527300  0.55121400  1
  O  O33  1  0.24521800  0.21472700  0.05121400  1
  O  O34  1  0.74521800  0.71472700  0.44878600  1
  O  O35  1  0.74521800  0.78527300  0.94878600  1
  O  O36  1  0.24769200  0.29588700  0.71527700  1
  O  O37  1  0.24769200  0.20411300  0.21527700  1
  O  O38  1  0.74769200  0.70411300  0.28472300  1
  O  O39  1  0.74769200  0.79588700  0.78472300  1
  O  O40  1  0.22990800  0.58535300  0.72272400  1
  O  O41  1  0.22990800  0.91464700  0.22272400  1
  O  O42  1  0.72990800  0.41464700  0.27727600  1
  O  O43  1  0.72990800  0.08535300  0.77727600  1
  O  O44  1  0.23876000  0.57357400  0.98128800  1
  O  O45  1  0.23876000  0.92642600  0.48128800  1
  O  O46  1  0.73876000  0.42642600  0.01871200  1
  O  O47  1  0.73876000  0.07357400  0.51871200  1
  O  O48  1  0.22864500  0.45506500  0.13896200  1
  O  O49  1  0.22864500  0.04493500  0.63896200  1
  O  O50  1  0.72864500  0.54493500  0.86103800  1
  O  O51  1  0.72864500  0.95506500  0.36103800  1
