# generated using pymatgen
data_CaH2CClO3
_symmetry_space_group_name_H-M   'P 1'
_cell_length_a   9.84473600
_cell_length_b   7.49917000
_cell_length_c   7.10154953
_cell_angle_alpha   90.00000000
_cell_angle_beta   130.88676200
_cell_angle_gamma   90.00000000
_symmetry_Int_Tables_number   1
_chemical_formula_structural   CaH2CClO3
_chemical_formula_sum   'Ca4 H8 C4 Cl4 O12'
_cell_volume   396.36463975
_cell_formula_units_Z   4
loop_
 _symmetry_equiv_pos_site_id
 _symmetry_equiv_pos_as_xyz
  1  'x, y, z'
loop_
 _atom_site_type_symbol
 _atom_site_label
 _atom_site_symmetry_multiplicity
 _atom_site_fract_x
 _atom_site_fract_y
 _atom_site_fract_z
 _atom_site_occupancy
  Ca  Ca0  1  0.13664500  0.00000000  0.39110300  1
  Ca  Ca1  1  0.36335500  0.50000000  0.60889700  1
  Ca  Ca2  1  0.63664500  0.50000000  0.39110300  1
  Ca  Ca3  1  0.86335500  0.00000000  0.60889700  1
  H  H4  1  0.40876450  0.23221150  0.97027600  1
  H  H5  1  0.09123550  0.73221150  0.02972400  1
  H  H6  1  0.09123550  0.26778850  0.02972400  1
  H  H7  1  0.40876450  0.76778850  0.97027600  1
  H  H8  1  0.90876450  0.73221150  0.97027600  1
  H  H9  1  0.59123550  0.23221150  0.02972400  1
  H  H10  1  0.59123550  0.76778850  0.02972400  1
  H  H11  1  0.90876450  0.26778850  0.97027600  1
  C  C12  1  0.50000000  0.89606900  0.50000000  1
  C  C13  1  0.00000000  0.60393100  0.50000000  1
  C  C14  1  0.00000000  0.39606900  0.50000000  1
  C  C15  1  0.50000000  0.10393100  0.50000000  1
  Cl  Cl16  1  0.26197400  0.50000000  0.13030200  1
  Cl  Cl17  1  0.23802600  0.00000000  0.86969800  1
  Cl  Cl18  1  0.76197400  0.00000000  0.13030200  1
  Cl  Cl19  1  0.73802600  0.50000000  0.86969800  1
  O  O20  1  0.38848850  0.82033150  0.50726200  1
  O  O21  1  0.61151150  0.82033150  0.49273800  1
  O  O22  1  0.11151150  0.67966850  0.49273800  1
  O  O23  1  0.88848850  0.67966850  0.50726200  1
  O  O24  1  0.00000000  0.81396400  0.00000000  1
  O  O25  1  0.00000000  0.18603600  0.00000000  1
  O  O26  1  0.88848850  0.32033150  0.50726200  1
  O  O27  1  0.11151150  0.32033150  0.49273800  1
  O  O28  1  0.61151150  0.17966850  0.49273800  1
  O  O29  1  0.38848850  0.17966850  0.50726200  1
  O  O30  1  0.50000000  0.31396400  0.00000000  1
  O  O31  1  0.50000000  0.68603600  0.00000000  1
