# generated using pymatgen
data_SiO2
_symmetry_space_group_name_H-M   'P 1'
_cell_length_a   8.76249800
_cell_length_b   20.19604400
_cell_length_c   10.22483300
_cell_angle_alpha   90.00000000
_cell_angle_beta   90.00000000
_cell_angle_gamma   90.00000000
_symmetry_Int_Tables_number   1
_chemical_formula_structural   SiO2
_chemical_formula_sum   'Si32 O64'
_cell_volume   1809.46615187
_cell_formula_units_Z   32
loop_
 _symmetry_equiv_pos_site_id
 _symmetry_equiv_pos_as_xyz
  1  'x, y, z'
loop_
 _atom_site_type_symbol
 _atom_site_label
 _atom_site_symmetry_multiplicity
 _atom_site_fract_x
 _atom_site_fract_y
 _atom_site_fract_z
 _atom_site_occupancy
  Si  Si0  1  0.68213950  0.55509650  0.88909000  1
  Si  Si1  1  0.18213950  0.94490350  0.11091000  1
  Si  Si2  1  0.81786050  0.55509650  0.61091000  1
  Si  Si3  1  0.31786050  0.94490350  0.38909000  1
  Si  Si4  1  0.81786050  0.94490350  0.11091000  1
  Si  Si5  1  0.31786050  0.55509650  0.88909000  1
  Si  Si6  1  0.68213950  0.94490350  0.38909000  1
  Si  Si7  1  0.18213950  0.55509650  0.61091000  1
  Si  Si8  1  0.81600050  0.69883850  0.89318700  1
  Si  Si9  1  0.31600050  0.80116150  0.10681300  1
  Si  Si10  1  0.68399950  0.69883850  0.60681300  1
  Si  Si11  1  0.18399950  0.80116150  0.39318700  1
  Si  Si12  1  0.68399950  0.80116150  0.10681300  1
  Si  Si13  1  0.18399950  0.69883850  0.89318700  1
  Si  Si14  1  0.81600050  0.80116150  0.39318700  1
  Si  Si15  1  0.31600050  0.69883850  0.60681300  1
  Si  Si16  1  0.18213950  0.05509650  0.88909000  1
  Si  Si17  1  0.68213950  0.44490350  0.11091000  1
  Si  Si18  1  0.31786050  0.05509650  0.61091000  1
  Si  Si19  1  0.81786050  0.44490350  0.38909000  1
  Si  Si20  1  0.31786050  0.44490350  0.11091000  1
  Si  Si21  1  0.81786050  0.05509650  0.88909000  1
  Si  Si22  1  0.18213950  0.44490350  0.38909000  1
  Si  Si23  1  0.68213950  0.05509650  0.61091000  1
  Si  Si24  1  0.31600050  0.19883850  0.89318700  1
  Si  Si25  1  0.81600050  0.30116150  0.10681300  1
  Si  Si26  1  0.18399950  0.19883850  0.60681300  1
  Si  Si27  1  0.68399950  0.30116150  0.39318700  1
  Si  Si28  1  0.18399950  0.30116150  0.10681300  1
  Si  Si29  1  0.68399950  0.19883850  0.89318700  1
  Si  Si30  1  0.31600050  0.30116150  0.39318700  1
  Si  Si31  1  0.81600050  0.19883850  0.60681300  1
  O  O32  1  0.21595200  0.00000000  0.00000000  1
  O  O33  1  0.28404800  0.00000000  0.50000000  1
  O  O34  1  0.78404800  0.00000000  0.00000000  1
  O  O35  1  0.71595200  0.00000000  0.50000000  1
  O  O36  1  0.50000000  0.56787800  0.87384300  1
  O  O37  1  0.00000000  0.93212200  0.12615700  1
  O  O38  1  0.00000000  0.56787800  0.62615700  1
  O  O39  1  0.50000000  0.93212200  0.37384300  1
  O  O40  1  0.75000000  0.52892700  0.75000000  1
  O  O41  1  0.25000000  0.97107300  0.25000000  1
  O  O42  1  0.75000000  0.97107300  0.25000000  1
  O  O43  1  0.25000000  0.52892700  0.75000000  1
  O  O44  1  0.76408850  0.62395650  0.93200600  1
  O  O45  1  0.26408850  0.87604350  0.06799400  1
  O  O46  1  0.73591150  0.62395650  0.56799400  1
  O  O47  1  0.23591150  0.87604350  0.43200600  1
  O  O48  1  0.73591150  0.87604350  0.06799400  1
  O  O49  1  0.23591150  0.62395650  0.93200600  1
  O  O50  1  0.76408850  0.87604350  0.43200600  1
  O  O51  1  0.26408850  0.62395650  0.56799400  1
  O  O52  1  0.00000000  0.70305100  0.89123600  1
  O  O53  1  0.50000000  0.79694900  0.10876400  1
  O  O54  1  0.50000000  0.70305100  0.60876400  1
  O  O55  1  0.00000000  0.79694900  0.39123600  1
  O  O56  1  0.75000000  0.71900500  0.75000000  1
  O  O57  1  0.25000000  0.78099500  0.25000000  1
  O  O58  1  0.75000000  0.78099500  0.25000000  1
  O  O59  1  0.25000000  0.71900500  0.75000000  1
  O  O60  1  0.75000000  0.75000000  0.00000000  1
  O  O61  1  0.25000000  0.75000000  0.00000000  1
  O  O62  1  0.75000000  0.75000000  0.50000000  1
  O  O63  1  0.25000000  0.75000000  0.50000000  1
  O  O64  1  0.71595200  0.50000000  0.00000000  1
  O  O65  1  0.78404800  0.50000000  0.50000000  1
  O  O66  1  0.28404800  0.50000000  0.00000000  1
  O  O67  1  0.21595200  0.50000000  0.50000000  1
  O  O68  1  0.00000000  0.06787800  0.87384300  1
  O  O69  1  0.50000000  0.43212200  0.12615700  1
  O  O70  1  0.50000000  0.06787800  0.62615700  1
  O  O71  1  0.00000000  0.43212200  0.37384300  1
  O  O72  1  0.25000000  0.02892700  0.75000000  1
  O  O73  1  0.75000000  0.47107300  0.25000000  1
  O  O74  1  0.25000000  0.47107300  0.25000000  1
  O  O75  1  0.75000000  0.02892700  0.75000000  1
  O  O76  1  0.26408850  0.12395650  0.93200600  1
  O  O77  1  0.76408850  0.37604350  0.06799400  1
  O  O78  1  0.23591150  0.12395650  0.56799400  1
  O  O79  1  0.73591150  0.37604350  0.43200600  1
  O  O80  1  0.23591150  0.37604350  0.06799400  1
  O  O81  1  0.73591150  0.12395650  0.93200600  1
  O  O82  1  0.26408850  0.37604350  0.43200600  1
  O  O83  1  0.76408850  0.12395650  0.56799400  1
  O  O84  1  0.50000000  0.20305100  0.89123600  1
  O  O85  1  0.00000000  0.29694900  0.10876400  1
  O  O86  1  0.00000000  0.20305100  0.60876400  1
  O  O87  1  0.50000000  0.29694900  0.39123600  1
  O  O88  1  0.25000000  0.21900500  0.75000000  1
  O  O89  1  0.75000000  0.28099500  0.25000000  1
  O  O90  1  0.25000000  0.28099500  0.25000000  1
  O  O91  1  0.75000000  0.21900500  0.75000000  1
  O  O92  1  0.25000000  0.25000000  0.00000000  1
  O  O93  1  0.75000000  0.25000000  0.00000000  1
  O  O94  1  0.25000000  0.25000000  0.50000000  1
  O  O95  1  0.75000000  0.25000000  0.50000000  1
