# generated using pymatgen
data_SiO2
_symmetry_space_group_name_H-M   'P 1'
_cell_length_a   9.65951400
_cell_length_b   31.30499200
_cell_length_c   7.46180307
_cell_angle_alpha   90.00000000
_cell_angle_beta   91.66702430
_cell_angle_gamma   90.00000000
_symmetry_Int_Tables_number   1
_chemical_formula_structural   SiO2
_chemical_formula_sum   'Si44 O88'
_cell_volume   2255.42718355
_cell_formula_units_Z   44
loop_
 _symmetry_equiv_pos_site_id
 _symmetry_equiv_pos_as_xyz
  1  'x, y, z'
loop_
 _atom_site_type_symbol
 _atom_site_label
 _atom_site_symmetry_multiplicity
 _atom_site_fract_x
 _atom_site_fract_y
 _atom_site_fract_z
 _atom_site_occupancy
  Si  Si0  1  0.62249950  0.54925250  0.36569900  1
  Si  Si1  1  0.50000000  0.58223900  0.00000000  1
  Si  Si2  1  0.69428800  0.65310900  0.83663600  1
  Si  Si3  1  0.16019600  0.62167000  0.52191500  1
  Si  Si4  1  0.49255300  0.72939100  0.71450900  1
  Si  Si5  1  0.50744700  0.72939100  0.28549100  1
  Si  Si6  1  0.99255300  0.77060900  0.71450900  1
  Si  Si7  1  0.83980400  0.62167000  0.47808500  1
  Si  Si8  1  0.30453750  0.80261850  0.18323900  1
  Si  Si9  1  0.19546250  0.69738150  0.81676100  1
  Si  Si10  1  0.69546250  0.80261850  0.81676100  1
  Si  Si11  1  0.12249950  0.95074750  0.36569900  1
  Si  Si12  1  0.19428800  0.84689100  0.83663600  1
  Si  Si13  1  0.87750050  0.95074750  0.63430100  1
  Si  Si14  1  0.66019600  0.87833000  0.52191500  1
  Si  Si15  1  0.37750050  0.54925250  0.63430100  1
  Si  Si16  1  0.30571200  0.65310900  0.16336400  1
  Si  Si17  1  0.80453750  0.69738150  0.18323900  1
  Si  Si18  1  0.80571200  0.84689100  0.16336400  1
  Si  Si19  1  0.33980400  0.87833000  0.47808500  1
  Si  Si20  1  0.00000000  0.91776100  0.00000000  1
  Si  Si21  1  0.00744700  0.77060900  0.28549100  1
  Si  Si22  1  0.12249950  0.04925250  0.36569900  1
  Si  Si23  1  0.00000000  0.08223900  0.00000000  1
  Si  Si24  1  0.19428800  0.15310900  0.83663600  1
  Si  Si25  1  0.66019600  0.12167000  0.52191500  1
  Si  Si26  1  0.99255300  0.22939100  0.71450900  1
  Si  Si27  1  0.00744700  0.22939100  0.28549100  1
  Si  Si28  1  0.49255300  0.27060900  0.71450900  1
  Si  Si29  1  0.33980400  0.12167000  0.47808500  1
  Si  Si30  1  0.80453750  0.30261850  0.18323900  1
  Si  Si31  1  0.69546250  0.19738150  0.81676100  1
  Si  Si32  1  0.19546250  0.30261850  0.81676100  1
  Si  Si33  1  0.62249950  0.45074750  0.36569900  1
  Si  Si34  1  0.69428800  0.34689100  0.83663600  1
  Si  Si35  1  0.37750050  0.45074750  0.63430100  1
  Si  Si36  1  0.16019600  0.37833000  0.52191500  1
  Si  Si37  1  0.87750050  0.04925250  0.63430100  1
  Si  Si38  1  0.80571200  0.15310900  0.16336400  1
  Si  Si39  1  0.30453750  0.19738150  0.18323900  1
  Si  Si40  1  0.30571200  0.34689100  0.16336400  1
  Si  Si41  1  0.83980400  0.37833000  0.47808500  1
  Si  Si42  1  0.50000000  0.41776100  0.00000000  1
  Si  Si43  1  0.50744700  0.27060900  0.28549100  1
  O  O44  1  0.50000000  0.89255000  0.50000000  1
  O  O45  1  0.00000000  0.93769500  0.50000000  1
  O  O46  1  0.12341800  0.88878100  0.92349000  1
  O  O47  1  0.33308450  0.72583950  0.77632100  1
  O  O48  1  0.56514650  0.55254450  0.15902900  1
  O  O49  1  0.82505000  0.66092200  0.33515800  1
  O  O50  1  0.37658200  0.61121900  0.07651000  1
  O  O51  1  0.00000000  0.60745000  0.50000000  1
  O  O52  1  0.28459450  0.86133150  0.66819500  1
  O  O53  1  0.93497500  0.73012900  0.18897100  1
  O  O54  1  0.43497500  0.76987100  0.18897100  1
  O  O55  1  0.43485350  0.55254450  0.84097100  1
  O  O56  1  0.24784000  0.58080600  0.59532500  1
  O  O57  1  0.79443000  0.67607700  0.98651600  1
  O  O58  1  0.06514650  0.94745550  0.15902900  1
  O  O59  1  0.87658200  0.88878100  0.07651000  1
  O  O60  1  0.20557000  0.67607700  0.01348400  1
  O  O61  1  0.71540550  0.86133150  0.33180500  1
  O  O62  1  0.29443000  0.82392300  0.98651600  1
  O  O63  1  0.50000000  0.56230500  0.50000000  1
  O  O64  1  0.07107650  0.81455550  0.77357500  1
  O  O65  1  0.62341800  0.61121900  0.92349000  1
  O  O66  1  0.16691550  0.77416050  0.22367900  1
  O  O67  1  0.42892350  0.68544450  0.22642500  1
  O  O68  1  0.50000000  0.73609000  0.50000000  1
  O  O69  1  0.17495000  0.66092200  0.66484200  1
  O  O70  1  0.74784000  0.91919400  0.59532500  1
  O  O71  1  0.56502500  0.76987100  0.81102900  1
  O  O72  1  0.83308450  0.77416050  0.77632100  1
  O  O73  1  0.00000000  0.76391000  0.50000000  1
  O  O74  1  0.82839900  0.00000000  0.59783900  1
  O  O75  1  0.66691550  0.72583950  0.22367900  1
  O  O76  1  0.21540550  0.63866850  0.33180500  1
  O  O77  1  0.78459450  0.63866850  0.66819500  1
  O  O78  1  0.57107650  0.68544450  0.77357500  1
  O  O79  1  0.06502500  0.73012900  0.81102900  1
  O  O80  1  0.70557000  0.82392300  0.01348400  1
  O  O81  1  0.67495000  0.83907800  0.66484200  1
  O  O82  1  0.32505000  0.83907800  0.33515800  1
  O  O83  1  0.25216000  0.91919400  0.40467500  1
  O  O84  1  0.17160100  0.00000000  0.40216100  1
  O  O85  1  0.75216000  0.58080600  0.40467500  1
  O  O86  1  0.92892350  0.81455550  0.22642500  1
  O  O87  1  0.93485350  0.94745550  0.84097100  1
  O  O88  1  0.00000000  0.39255000  0.50000000  1
  O  O89  1  0.50000000  0.43769500  0.50000000  1
  O  O90  1  0.62341800  0.38878100  0.92349000  1
  O  O91  1  0.83308450  0.22583950  0.77632100  1
  O  O92  1  0.06514650  0.05254450  0.15902900  1
  O  O93  1  0.32505000  0.16092200  0.33515800  1
  O  O94  1  0.87658200  0.11121900  0.07651000  1
  O  O95  1  0.50000000  0.10745000  0.50000000  1
  O  O96  1  0.78459450  0.36133150  0.66819500  1
  O  O97  1  0.43497500  0.23012900  0.18897100  1
  O  O98  1  0.93497500  0.26987100  0.18897100  1
  O  O99  1  0.93485350  0.05254450  0.84097100  1
  O  O100  1  0.74784000  0.08080600  0.59532500  1
  O  O101  1  0.29443000  0.17607700  0.98651600  1
  O  O102  1  0.56514650  0.44745550  0.15902900  1
  O  O103  1  0.37658200  0.38878100  0.07651000  1
  O  O104  1  0.70557000  0.17607700  0.01348400  1
  O  O105  1  0.21540550  0.36133150  0.33180500  1
  O  O106  1  0.79443000  0.32392300  0.98651600  1
  O  O107  1  0.00000000  0.06230500  0.50000000  1
  O  O108  1  0.57107650  0.31455550  0.77357500  1
  O  O109  1  0.12341800  0.11121900  0.92349000  1
  O  O110  1  0.66691550  0.27416050  0.22367900  1
  O  O111  1  0.92892350  0.18544450  0.22642500  1
  O  O112  1  0.00000000  0.23609000  0.50000000  1
  O  O113  1  0.67495000  0.16092200  0.66484200  1
  O  O114  1  0.24784000  0.41919400  0.59532500  1
  O  O115  1  0.06502500  0.26987100  0.81102900  1
  O  O116  1  0.33308450  0.27416050  0.77632100  1
  O  O117  1  0.50000000  0.26391000  0.50000000  1
  O  O118  1  0.32839900  0.50000000  0.59783900  1
  O  O119  1  0.16691550  0.22583950  0.22367900  1
  O  O120  1  0.71540550  0.13866850  0.33180500  1
  O  O121  1  0.28459450  0.13866850  0.66819500  1
  O  O122  1  0.07107650  0.18544450  0.77357500  1
  O  O123  1  0.56502500  0.23012900  0.81102900  1
  O  O124  1  0.20557000  0.32392300  0.01348400  1
  O  O125  1  0.17495000  0.33907800  0.66484200  1
  O  O126  1  0.82505000  0.33907800  0.33515800  1
  O  O127  1  0.75216000  0.41919400  0.40467500  1
  O  O128  1  0.67160100  0.50000000  0.40216100  1
  O  O129  1  0.25216000  0.08080600  0.40467500  1
  O  O130  1  0.42892350  0.31455550  0.22642500  1
  O  O131  1  0.43485350  0.44745550  0.84097100  1
