# generated using pymatgen
data_P6(Pb2O5)5
_symmetry_space_group_name_H-M   'P 1'
_cell_length_a   10.00366700
_cell_length_b   7.47371100
_cell_length_c   17.33359448
_cell_angle_alpha   90.00000000
_cell_angle_beta   90.08138084
_cell_angle_gamma   90.00000000
_symmetry_Int_Tables_number   1
_chemical_formula_structural   P6(Pb2O5)5
_chemical_formula_sum   'P12 Pb20 O50'
_cell_volume   1295.93649666
_cell_formula_units_Z   2
loop_
 _symmetry_equiv_pos_site_id
 _symmetry_equiv_pos_as_xyz
  1  'x, y, z'
loop_
 _atom_site_type_symbol
 _atom_site_label
 _atom_site_symmetry_multiplicity
 _atom_site_fract_x
 _atom_site_fract_y
 _atom_site_fract_z
 _atom_site_occupancy
  P  P0  1  0.13890800  0.25003100  0.73498300  1
  P  P1  1  0.08237100  0.25025500  0.44865400  1
  P  P2  1  0.03444200  0.25051900  0.06629900  1
  P  P3  1  0.96555800  0.75051900  0.93370100  1
  P  P4  1  0.91762900  0.75025500  0.55134600  1
  P  P5  1  0.86109200  0.75003100  0.26501700  1
  P  P6  1  0.63540300  0.24897800  0.23602600  1
  P  P7  1  0.57375500  0.24913600  0.95215700  1
  P  P8  1  0.53562900  0.24854000  0.56155300  1
  P  P9  1  0.46437100  0.74854000  0.43844700  1
  P  P10  1  0.42624500  0.74913600  0.04784300  1
  P  P11  1  0.36459700  0.74897800  0.76397400  1
  Pb  Pb12  1  0.24438000  0.00515800  0.91647300  1
  Pb  Pb13  1  0.24379900  0.49478700  0.91851500  1
  Pb  Pb14  1  0.24389400  0.99936400  0.58474800  1
  Pb  Pb15  1  0.24470700  0.50079600  0.58263700  1
  Pb  Pb16  1  0.13652800  0.76873000  0.36281400  1
  Pb  Pb17  1  0.13757700  0.76924700  0.13686700  1
  Pb  Pb18  1  0.99427200  0.24880000  0.24769600  1
  Pb  Pb19  1  0.00572800  0.74880000  0.75230400  1
  Pb  Pb20  1  0.86242300  0.26924700  0.86313300  1
  Pb  Pb21  1  0.86347200  0.26873000  0.63718600  1
  Pb  Pb22  1  0.75529300  0.00079600  0.41736300  1
  Pb  Pb23  1  0.75610600  0.49936400  0.41525200  1
  Pb  Pb24  1  0.75620100  0.99478700  0.08148500  1
  Pb  Pb25  1  0.75562000  0.50515800  0.08352700  1
  Pb  Pb26  1  0.61510100  0.74814500  0.87630800  1
  Pb  Pb27  1  0.62633500  0.74790600  0.61996800  1
  Pb  Pb28  1  0.52118800  0.26828200  0.74859300  1
  Pb  Pb29  1  0.47881200  0.76828200  0.25140700  1
  Pb  Pb30  1  0.37366500  0.24790600  0.38003200  1
  Pb  Pb31  1  0.38489900  0.24814500  0.12369200  1
  O  O32  1  0.25130100  0.83049100  0.24955200  1
  O  O33  1  0.22275400  0.74900100  0.80451800  1
  O  O34  1  0.16394900  0.25307800  0.82332700  1
  O  O35  1  0.16278400  0.08041700  0.42200400  1
  O  O36  1  0.16529700  0.41420800  0.41989300  1
  O  O37  1  0.15682000  0.24914200  0.01105000  1
  O  O38  1  0.09925500  0.75282700  0.98001400  1
  O  O39  1  0.07912400  0.25198800  0.53870400  1
  O  O40  1  0.06133800  0.74944000  0.58539200  1
  O  O41  1  0.05904600  0.42088900  0.70895900  1
  O  O42  1  0.05488300  0.08216900  0.71136800  1
  O  O43  1  0.03680100  0.41465500  0.12214100  1
  O  O44  1  0.03431200  0.08043800  0.11976200  1
  O  O45  1  0.96568800  0.58043800  0.88023800  1
  O  O46  1  0.96319900  0.91465500  0.87785900  1
  O  O47  1  0.94095400  0.92088900  0.29104100  1
  O  O48  1  0.94511700  0.58216900  0.28863200  1
  O  O49  1  0.93866200  0.24944000  0.41460800  1
  O  O50  1  0.92087600  0.75198800  0.46129600  1
  O  O51  1  0.90074500  0.25282700  0.01998600  1
  O  O52  1  0.84318000  0.74914200  0.98895000  1
  O  O53  1  0.83721600  0.58041700  0.57799600  1
  O  O54  1  0.83470300  0.91420800  0.58010700  1
  O  O55  1  0.83605100  0.75307800  0.17667300  1
  O  O56  1  0.77724600  0.24900100  0.19548200  1
  O  O57  1  0.74869900  0.33049100  0.75044800  1
  O  O58  1  0.72727800  0.74794800  0.31142100  1
  O  O59  1  0.65496000  0.24910000  0.32446500  1
  O  O60  1  0.65489300  0.41977100  0.92900300  1
  O  O61  1  0.65296500  0.08154600  0.92472800  1
  O  O62  1  0.65593500  0.25274300  0.50605900  1
  O  O63  1  0.59918100  0.74482900  0.48678700  1
  O  O64  1  0.56964800  0.24529300  0.04359600  1
  O  O65  1  0.57014600  0.75311500  0.07980500  1
  O  O66  1  0.55523800  0.41324900  0.20602300  1
  O  O67  1  0.55763600  0.08003700  0.20705500  1
  O  O68  1  0.53685300  0.08153800  0.61506400  1
  O  O69  1  0.52982900  0.41903100  0.61379500  1
  O  O70  1  0.46314700  0.58153800  0.38493600  1
  O  O71  1  0.47017100  0.91903100  0.38620500  1
  O  O72  1  0.44476200  0.91324900  0.79397700  1
  O  O73  1  0.44236400  0.58003700  0.79294500  1
  O  O74  1  0.42985400  0.25311500  0.92019500  1
  O  O75  1  0.43035200  0.74529300  0.95640400  1
  O  O76  1  0.40081900  0.24482900  0.51321300  1
  O  O77  1  0.34406500  0.75274300  0.49394100  1
  O  O78  1  0.34703500  0.58154600  0.07527200  1
  O  O79  1  0.34510700  0.91977100  0.07099700  1
  O  O80  1  0.34504000  0.74910000  0.67553500  1
  O  O81  1  0.27272200  0.24794800  0.68857900  1
