# generated using pymatgen
data_As3Pb5ClO9
_symmetry_space_group_name_H-M   'P 1'
_cell_length_a   10.79276154
_cell_length_b   10.79276154
_cell_length_c   7.36859200
_cell_angle_alpha   90.00000000
_cell_angle_beta   90.00000000
_cell_angle_gamma   120.00000000
_symmetry_Int_Tables_number   1
_chemical_formula_structural   As3Pb5ClO9
_chemical_formula_sum   'As6 Pb10 Cl2 O18'
_cell_volume   743.32767951
_cell_formula_units_Z   2
loop_
 _symmetry_equiv_pos_site_id
 _symmetry_equiv_pos_as_xyz
  1  'x, y, z'
loop_
 _atom_site_type_symbol
 _atom_site_label
 _atom_site_symmetry_multiplicity
 _atom_site_fract_x
 _atom_site_fract_y
 _atom_site_fract_z
 _atom_site_occupancy
  As  As0  1  0.64977800  0.95366600  0.76463600  1
  As  As1  1  0.04633400  0.69611200  0.76463600  1
  As  As2  1  0.30388800  0.35022200  0.76463600  1
  As  As3  1  0.35022200  0.04633400  0.26463600  1
  As  As4  1  0.69611200  0.64977800  0.26463600  1
  As  As5  1  0.95366600  0.30388800  0.26463600  1
  Pb  Pb6  1  0.37469600  0.06234900  0.75049200  1
  Pb  Pb7  1  0.31234700  0.37469600  0.25049200  1
  Pb  Pb8  1  0.06234900  0.68765300  0.25049200  1
  Pb  Pb9  1  0.93765100  0.31234700  0.75049200  1
  Pb  Pb10  1  0.66666667  0.33333333  0.14019700  1
  Pb  Pb11  1  0.68765300  0.62530400  0.75049200  1
  Pb  Pb12  1  0.33333333  0.66666667  0.64019700  1
  Pb  Pb13  1  0.62530400  0.93765100  0.25049200  1
  Pb  Pb14  1  0.00000000  0.00000000  0.52007600  1
  Pb  Pb15  1  0.00000000  0.00000000  0.02007600  1
  Cl  Cl16  1  0.33333333  0.66666667  0.24442600  1
  Cl  Cl17  1  0.66666667  0.33333333  0.74442600  1
  O  O18  1  0.84240800  0.03493300  0.72237600  1
  O  O19  1  0.03493300  0.19252500  0.22237600  1
  O  O20  1  0.93137700  0.36961100  0.04990000  1
  O  O21  1  0.56176600  0.93137700  0.54990000  1
  O  O22  1  0.36961100  0.43823400  0.54990000  1
  O  O23  1  0.41164100  0.23247200  0.29769700  1
  O  O24  1  0.43823400  0.06862300  0.04990000  1
  O  O25  1  0.17916900  0.41164100  0.79769700  1
  O  O26  1  0.76752800  0.17916900  0.29769700  1
  O  O27  1  0.19252500  0.15759200  0.72237600  1
  O  O28  1  0.96506700  0.80747500  0.72237600  1
  O  O29  1  0.82083100  0.58835900  0.29769700  1
  O  O30  1  0.23247200  0.82083100  0.79769700  1
  O  O31  1  0.06862300  0.63038900  0.54990000  1
  O  O32  1  0.15759200  0.96506700  0.22237600  1
  O  O33  1  0.63038900  0.56176600  0.04990000  1
  O  O34  1  0.58835900  0.76752800  0.79769700  1
  O  O35  1  0.80747500  0.84240800  0.22237600  1
