# generated using pymatgen
data_Li5GeP3
_symmetry_space_group_name_H-M   'P 1'
_cell_length_a   13.02905200
_cell_length_b   5.92694600
_cell_length_c   8.54754911
_cell_angle_alpha   90.00000000
_cell_angle_beta   108.81274722
_cell_angle_gamma   90.00000000
_symmetry_Int_Tables_number   1
_chemical_formula_structural   Li5GeP3
_chemical_formula_sum   'Li20 Ge4 P12'
_cell_volume   624.80081521
_cell_formula_units_Z   4
loop_
 _symmetry_equiv_pos_site_id
 _symmetry_equiv_pos_as_xyz
  1  'x, y, z'
loop_
 _atom_site_type_symbol
 _atom_site_label
 _atom_site_symmetry_multiplicity
 _atom_site_fract_x
 _atom_site_fract_y
 _atom_site_fract_z
 _atom_site_occupancy
  Li  Li0  1  0.65990100  0.24012800  0.57515600  1
  Li  Li1  1  0.67135350  0.25099150  0.09529400  1
  Li  Li2  1  0.99670800  0.24940000  0.25309100  1
  Li  Li3  1  0.99835950  0.24268550  0.73954400  1
  Li  Li4  1  0.67135350  0.74900850  0.59529400  1
  Li  Li5  1  0.83074150  0.74026550  0.92753900  1
  Li  Li6  1  0.65990100  0.75987200  0.07515600  1
  Li  Li7  1  0.99835950  0.75731450  0.23954400  1
  Li  Li8  1  0.83074150  0.25973450  0.42753900  1
  Li  Li9  1  0.99670800  0.75060000  0.75309100  1
  Li  Li10  1  0.15990100  0.74012800  0.57515600  1
  Li  Li11  1  0.17135350  0.75099150  0.09529400  1
  Li  Li12  1  0.49670800  0.74940000  0.25309100  1
  Li  Li13  1  0.49835950  0.74268550  0.73954400  1
  Li  Li14  1  0.17135350  0.24900850  0.59529400  1
  Li  Li15  1  0.33074150  0.24026550  0.92753900  1
  Li  Li16  1  0.15990100  0.25987200  0.07515600  1
  Li  Li17  1  0.49835950  0.25731450  0.23954400  1
  Li  Li18  1  0.33074150  0.75973450  0.42753900  1
  Li  Li19  1  0.49670800  0.25060000  0.75309100  1
  Ge  Ge20  1  0.83136100  0.78969000  0.37779900  1
  Ge  Ge21  1  0.83136100  0.21031000  0.87779900  1
  Ge  Ge22  1  0.33136100  0.28969000  0.37779900  1
  Ge  Ge23  1  0.33136100  0.71031000  0.87779900  1
  P  P24  1  0.99047250  0.02018850  0.99320900  1
  P  P25  1  0.67202800  0.97786800  0.34347200  1
  P  P26  1  0.99047250  0.97981150  0.49320900  1
  P  P27  1  0.83145200  0.48548700  0.68961900  1
  P  P28  1  0.67202800  0.02213200  0.84347200  1
  P  P29  1  0.83145200  0.51451300  0.18961900  1
  P  P30  1  0.49047250  0.52018850  0.99320900  1
  P  P31  1  0.17202800  0.47786800  0.34347200  1
  P  P32  1  0.49047250  0.47981150  0.49320900  1
  P  P33  1  0.33145200  0.98548700  0.68961900  1
  P  P34  1  0.17202800  0.52213200  0.84347200  1
  P  P35  1  0.33145200  0.01451300  0.18961900  1
