# generated using pymatgen
data_B4C
_symmetry_space_group_name_H-M   'P 1'
_cell_length_a   5.64590034
_cell_length_b   5.64590034
_cell_length_c   12.09461221
_cell_angle_alpha   90.00000000
_cell_angle_beta   90.00000000
_cell_angle_gamma   120.00000000
_symmetry_Int_Tables_number   1
_chemical_formula_structural   B4C
_chemical_formula_sum   'B36 C9'
_cell_volume   333.87891631
_cell_formula_units_Z   9
loop_
 _symmetry_equiv_pos_site_id
 _symmetry_equiv_pos_as_xyz
  1  'x, y, z'
loop_
 _atom_site_type_symbol
 _atom_site_label
 _atom_site_symmetry_multiplicity
 _atom_site_fract_x
 _atom_site_fract_y
 _atom_site_fract_z
 _atom_site_occupancy
  B  B0  1  0.49928733  0.50071267  0.30718467  1
  B  B1  1  0.49928733  0.99857467  0.30718467  1
  B  B2  1  0.00142533  0.50071267  0.30718467  1
  B  B3  1  0.16737933  0.83262067  0.02614867  1
  B  B4  1  0.16737933  0.33475867  0.02614867  1
  B  B5  1  0.66524133  0.83262067  0.02614867  1
  B  B6  1  0.44113433  0.55886567  0.55269567  1
  B  B7  1  0.44113433  0.88226867  0.55269567  1
  B  B8  1  0.11773133  0.55886567  0.55269567  1
  B  B9  1  0.22553233  0.77446767  0.78063767  1
  B  B10  1  0.22553233  0.45106467  0.78063767  1
  B  B11  1  0.54893533  0.77446767  0.78063767  1
  B  B12  1  0.16595400  0.83404600  0.64051800  1
  B  B13  1  0.16595400  0.33190800  0.64051800  1
  B  B14  1  0.66809200  0.83404600  0.64051800  1
  B  B15  1  0.83404600  0.16595400  0.35948200  1
  B  B16  1  0.83404600  0.66809200  0.35948200  1
  B  B17  1  0.33190800  0.16595400  0.35948200  1
  B  B18  1  0.10780100  0.89219900  0.88602900  1
  B  B19  1  0.10780100  0.21560200  0.88602900  1
  B  B20  1  0.78439800  0.89219900  0.88602900  1
  B  B21  1  0.89219900  0.10780100  0.11397100  1
  B  B22  1  0.89219900  0.78439800  0.11397100  1
  B  B23  1  0.21560200  0.10780100  0.11397100  1
  B  B24  1  0.83262067  0.16737933  0.97385133  1
  B  B25  1  0.83262067  0.66524133  0.97385133  1
  B  B26  1  0.33475867  0.16737933  0.97385133  1
  B  B27  1  0.50071267  0.49928733  0.69281533  1
  B  B28  1  0.50071267  0.00142533  0.69281533  1
  B  B29  1  0.99857467  0.49928733  0.69281533  1
  B  B30  1  0.77446767  0.22553233  0.21936233  1
  B  B31  1  0.77446767  0.54893533  0.21936233  1
  B  B32  1  0.45106467  0.22553233  0.21936233  1
  B  B33  1  0.55886567  0.44113433  0.44730433  1
  B  B34  1  0.55886567  0.11773133  0.44730433  1
  B  B35  1  0.88226867  0.44113433  0.44730433  1
  C  C36  1  0.33333333  0.66666667  0.27685567  1
  C  C37  1  0.33333333  0.66666667  0.05647767  1
  C  C38  1  0.33333333  0.66666667  0.16666667  1
  C  C39  1  0.00000000  0.00000000  0.61018900  1
  C  C40  1  0.00000000  0.00000000  0.38981100  1
  C  C41  1  1.00000000  1.00000000  0.50000000  1
  C  C42  1  0.66666667  0.33333333  0.94352233  1
  C  C43  1  0.66666667  0.33333333  0.72314433  1
  C  C44  1  0.66666667  0.33333333  0.83333333  1
