# generated using pymatgen
data_SiO2
_symmetry_space_group_name_H-M   'P 1'
_cell_length_a   13.24649600
_cell_length_b   21.71240800
_cell_length_c   5.28514000
_cell_angle_alpha   90.00000000
_cell_angle_beta   90.00000000
_cell_angle_gamma   90.00000000
_symmetry_Int_Tables_number   1
_chemical_formula_structural   SiO2
_chemical_formula_sum   'Si24 O48'
_cell_volume   1520.07669231
_cell_formula_units_Z   24
loop_
 _symmetry_equiv_pos_site_id
 _symmetry_equiv_pos_as_xyz
  1  'x, y, z'
loop_
 _atom_site_type_symbol
 _atom_site_label
 _atom_site_symmetry_multiplicity
 _atom_site_fract_x
 _atom_site_fract_y
 _atom_site_fract_z
 _atom_site_occupancy
  Si  Si0  1  0.61816750  0.04041050  0.75000000  1
  Si  Si1  1  0.61816750  0.95958950  0.25000000  1
  Si  Si2  1  0.38183250  0.04041050  0.75000000  1
  Si  Si3  1  0.38183250  0.95958950  0.25000000  1
  Si  Si4  1  0.30796200  0.17564300  0.75000000  1
  Si  Si5  1  0.30796200  0.82435700  0.25000000  1
  Si  Si6  1  0.69203800  0.17564300  0.75000000  1
  Si  Si7  1  0.69203800  0.82435700  0.25000000  1
  Si  Si8  1  0.61574900  0.24306000  0.25000000  1
  Si  Si9  1  0.61574900  0.75694000  0.75000000  1
  Si  Si10  1  0.38425100  0.24306000  0.25000000  1
  Si  Si11  1  0.38425100  0.75694000  0.75000000  1
  Si  Si12  1  0.11816750  0.54041050  0.75000000  1
  Si  Si13  1  0.11816750  0.45958950  0.25000000  1
  Si  Si14  1  0.88183250  0.54041050  0.75000000  1
  Si  Si15  1  0.88183250  0.45958950  0.25000000  1
  Si  Si16  1  0.80796200  0.67564300  0.75000000  1
  Si  Si17  1  0.80796200  0.32435700  0.25000000  1
  Si  Si18  1  0.19203800  0.67564300  0.75000000  1
  Si  Si19  1  0.19203800  0.32435700  0.25000000  1
  Si  Si20  1  0.11574900  0.74306000  0.25000000  1
  Si  Si21  1  0.11574900  0.25694000  0.75000000  1
  Si  Si22  1  0.88425100  0.74306000  0.25000000  1
  Si  Si23  1  0.88425100  0.25694000  0.75000000  1
  O  O24  1  0.68959500  0.10107800  0.75000000  1
  O  O25  1  0.68959500  0.89892200  0.25000000  1
  O  O26  1  0.31040500  0.10107800  0.75000000  1
  O  O27  1  0.31040500  0.89892200  0.25000000  1
  O  O28  1  0.64305300  0.00000000  0.50000000  1
  O  O29  1  0.35694700  0.00000000  0.00000000  1
  O  O30  1  0.35694700  0.00000000  0.50000000  1
  O  O31  1  0.64305300  0.00000000  0.00000000  1
  O  O32  1  0.50000000  0.06196200  0.75000000  1
  O  O33  1  0.50000000  0.93803800  0.25000000  1
  O  O34  1  0.36535800  0.20105700  0.00036200  1
  O  O35  1  0.36535800  0.79894300  0.99963800  1
  O  O36  1  0.63464200  0.20105700  0.49963800  1
  O  O37  1  0.63464200  0.79894300  0.50036200  1
  O  O38  1  0.63464200  0.79894300  0.99963800  1
  O  O39  1  0.63464200  0.20105700  0.00036200  1
  O  O40  1  0.36535800  0.79894300  0.50036200  1
  O  O41  1  0.36535800  0.20105700  0.49963800  1
  O  O42  1  0.69017750  0.69725350  0.75000000  1
  O  O43  1  0.69017750  0.30274650  0.25000000  1
  O  O44  1  0.30982250  0.69725350  0.75000000  1
  O  O45  1  0.30982250  0.30274650  0.25000000  1
  O  O46  1  0.50000000  0.26760800  0.25000000  1
  O  O47  1  0.50000000  0.73239200  0.75000000  1
  O  O48  1  0.18959500  0.60107800  0.75000000  1
  O  O49  1  0.18959500  0.39892200  0.25000000  1
  O  O50  1  0.81040500  0.60107800  0.75000000  1
  O  O51  1  0.81040500  0.39892200  0.25000000  1
  O  O52  1  0.14305300  0.50000000  0.50000000  1
  O  O53  1  0.85694700  0.50000000  0.00000000  1
  O  O54  1  0.85694700  0.50000000  0.50000000  1
  O  O55  1  0.14305300  0.50000000  0.00000000  1
  O  O56  1  0.00000000  0.56196200  0.75000000  1
  O  O57  1  0.00000000  0.43803800  0.25000000  1
  O  O58  1  0.86535800  0.70105700  0.00036200  1
  O  O59  1  0.86535800  0.29894300  0.99963800  1
  O  O60  1  0.13464200  0.70105700  0.49963800  1
  O  O61  1  0.13464200  0.29894300  0.50036200  1
  O  O62  1  0.13464200  0.29894300  0.99963800  1
  O  O63  1  0.13464200  0.70105700  0.00036200  1
  O  O64  1  0.86535800  0.29894300  0.50036200  1
  O  O65  1  0.86535800  0.70105700  0.49963800  1
  O  O66  1  0.19017750  0.19725350  0.75000000  1
  O  O67  1  0.19017750  0.80274650  0.25000000  1
  O  O68  1  0.80982250  0.19725350  0.75000000  1
  O  O69  1  0.80982250  0.80274650  0.25000000  1
  O  O70  1  0.00000000  0.76760800  0.25000000  1
  O  O71  1  0.00000000  0.23239200  0.75000000  1
