# generated using pymatgen
data_HPb3ClO3
_symmetry_space_group_name_H-M   'P 1'
_cell_length_a   5.94097600
_cell_length_b   6.99672300
_cell_length_c   15.58106000
_cell_angle_alpha   90.00000000
_cell_angle_beta   90.00000000
_cell_angle_gamma   90.00000000
_symmetry_Int_Tables_number   1
_chemical_formula_structural   HPb3ClO3
_chemical_formula_sum   'H4 Pb12 Cl4 O12'
_cell_volume   647.66358351
_cell_formula_units_Z   4
loop_
 _symmetry_equiv_pos_site_id
 _symmetry_equiv_pos_as_xyz
  1  'x, y, z'
loop_
 _atom_site_type_symbol
 _atom_site_label
 _atom_site_symmetry_multiplicity
 _atom_site_fract_x
 _atom_site_fract_y
 _atom_site_fract_z
 _atom_site_occupancy
  H  H0  1  0.50000000  0.78529800  0.22854100  1
  H  H1  1  0.50000000  0.21470200  0.72854100  1
  H  H2  1  0.00000000  0.79610700  0.94203700  1
  H  H3  1  0.00000000  0.20389300  0.44203700  1
  Pb  Pb4  1  0.50000000  0.58522200  0.80113800  1
  Pb  Pb5  1  0.50000000  0.41477800  0.30113800  1
  Pb  Pb6  1  0.50000000  0.79287200  0.59250100  1
  Pb  Pb7  1  0.50000000  0.20712800  0.09250100  1
  Pb  Pb8  1  0.50000000  0.70914400  0.03971700  1
  Pb  Pb9  1  0.50000000  0.29085600  0.53971700  1
  Pb  Pb10  1  0.00000000  0.53277900  0.16166100  1
  Pb  Pb11  1  0.00000000  0.46722100  0.66166100  1
  Pb  Pb12  1  0.00000000  0.61111200  0.43847300  1
  Pb  Pb13  1  0.00000000  0.38888800  0.93847300  1
  Pb  Pb14  1  0.00000000  0.92673500  0.77331400  1
  Pb  Pb15  1  0.00000000  0.07326500  0.27331400  1
  Cl  Cl16  1  0.00000000  0.97130700  0.06035900  1
  Cl  Cl17  1  0.00000000  0.02869300  0.56035900  1
  Cl  Cl18  1  0.50000000  0.94678000  0.36346800  1
  Cl  Cl19  1  0.50000000  0.05322000  0.86346800  1
  O  O20  1  0.24960800  0.54099300  0.54243100  1
  O  O21  1  0.75039200  0.54099300  0.54243100  1
  O  O22  1  0.75039200  0.45900700  0.04243100  1
  O  O23  1  0.24960800  0.45900700  0.04243100  1
  O  O24  1  0.24978200  0.71537300  0.71266400  1
  O  O25  1  0.75021800  0.71537300  0.71266400  1
  O  O26  1  0.75021800  0.28462700  0.21266400  1
  O  O27  1  0.24978200  0.28462700  0.21266400  1
  O  O28  1  0.50000000  0.66866300  0.19302400  1
  O  O29  1  0.50000000  0.33133700  0.69302400  1
  O  O30  1  0.00000000  0.71282500  0.89102700  1
  O  O31  1  0.00000000  0.28717500  0.39102700  1
