# generated using pymatgen
data_CaZr4O9
_symmetry_space_group_name_H-M   'P 1'
_cell_length_a   31.36789600
_cell_length_b   3.50705000
_cell_length_c   6.50253640
_cell_angle_alpha   90.00000000
_cell_angle_beta   93.46560457
_cell_angle_gamma   90.00000000
_symmetry_Int_Tables_number   1
_chemical_formula_structural   CaZr4O9
_chemical_formula_sum   'Ca4 Zr16 O36'
_cell_volume   714.02793570
_cell_formula_units_Z   4
loop_
 _symmetry_equiv_pos_site_id
 _symmetry_equiv_pos_as_xyz
  1  'x, y, z'
loop_
 _atom_site_type_symbol
 _atom_site_label
 _atom_site_symmetry_multiplicity
 _atom_site_fract_x
 _atom_site_fract_y
 _atom_site_fract_z
 _atom_site_occupancy
  Ca  Ca0  1  0.00000000  0.50000000  0.00000000  1
  Ca  Ca1  1  0.00000000  0.00000000  0.50000000  1
  Ca  Ca2  1  0.50000000  0.00000000  0.00000000  1
  Ca  Ca3  1  0.50000000  0.50000000  0.50000000  1
  Zr  Zr4  1  0.90685700  0.00000000  0.82090300  1
  Zr  Zr5  1  0.89462400  0.50000000  0.29684000  1
  Zr  Zr6  1  0.59314300  0.50000000  0.17909700  1
  Zr  Zr7  1  0.79734100  0.50000000  0.60094900  1
  Zr  Zr8  1  0.60537600  0.00000000  0.70316000  1
  Zr  Zr9  1  0.70265900  0.00000000  0.39905100  1
  Zr  Zr10  1  0.80038400  0.00000000  0.10041500  1
  Zr  Zr11  1  0.69961600  0.50000000  0.89958500  1
  Zr  Zr12  1  0.40685700  0.50000000  0.82090300  1
  Zr  Zr13  1  0.39462400  0.00000000  0.29684000  1
  Zr  Zr14  1  0.09314300  0.00000000  0.17909700  1
  Zr  Zr15  1  0.29734100  0.00000000  0.60094900  1
  Zr  Zr16  1  0.10537600  0.50000000  0.70316000  1
  Zr  Zr17  1  0.20265900  0.50000000  0.39905100  1
  Zr  Zr18  1  0.30038400  0.50000000  0.10041500  1
  Zr  Zr19  1  0.19961600  0.00000000  0.89958500  1
  O  O20  1  0.92749200  0.50000000  0.02862300  1
  O  O21  1  0.52838500  0.50000000  0.20407100  1
  O  O22  1  0.92853900  0.00000000  0.39348200  1
  O  O23  1  0.61216600  0.00000000  0.34981600  1
  O  O24  1  0.57146100  0.50000000  0.60651800  1
  O  O25  1  0.97161500  0.00000000  0.79592900  1
  O  O26  1  0.63312000  0.50000000  0.91215800  1
  O  O27  1  0.73119600  0.50000000  0.61754300  1
  O  O28  1  0.67153500  0.00000000  0.68133100  1
  O  O29  1  0.81907400  0.00000000  0.73392000  1
  O  O30  1  0.57250800  0.00000000  0.97137700  1
  O  O31  1  0.71990500  0.00000000  0.03934500  1
  O  O32  1  0.78009500  0.50000000  0.96065500  1
  O  O33  1  0.68092600  0.50000000  0.26608000  1
  O  O34  1  0.82846500  0.50000000  0.31866900  1
  O  O35  1  0.86688000  0.00000000  0.08784200  1
  O  O36  1  0.76880400  0.00000000  0.38245700  1
  O  O37  1  0.88783400  0.50000000  0.65018400  1
  O  O38  1  0.42749200  0.00000000  0.02862300  1
  O  O39  1  0.02838500  0.00000000  0.20407100  1
  O  O40  1  0.42853900  0.50000000  0.39348200  1
  O  O41  1  0.11216600  0.50000000  0.34981600  1
  O  O42  1  0.07146100  0.00000000  0.60651800  1
  O  O43  1  0.47161500  0.50000000  0.79592900  1
  O  O44  1  0.13312000  0.00000000  0.91215800  1
  O  O45  1  0.23119600  0.00000000  0.61754300  1
  O  O46  1  0.17153500  0.50000000  0.68133100  1
  O  O47  1  0.31907400  0.50000000  0.73392000  1
  O  O48  1  0.07250800  0.50000000  0.97137700  1
  O  O49  1  0.21990500  0.50000000  0.03934500  1
  O  O50  1  0.28009500  0.00000000  0.96065500  1
  O  O51  1  0.18092600  0.00000000  0.26608000  1
  O  O52  1  0.32846500  0.00000000  0.31866900  1
  O  O53  1  0.36688000  0.50000000  0.08784200  1
  O  O54  1  0.26880400  0.50000000  0.38245700  1
  O  O55  1  0.38783400  0.00000000  0.65018400  1
