# generated using pymatgen
data_CsSbOF4
_symmetry_space_group_name_H-M   'P 1'
_cell_length_a   11.02384600
_cell_length_b   14.55326600
_cell_length_c   21.07829700
_cell_angle_alpha   90.00000000
_cell_angle_beta   90.00000000
_cell_angle_gamma   90.00000000
_symmetry_Int_Tables_number   1
_chemical_formula_structural   CsSbOF4
_chemical_formula_sum   'Cs24 Sb24 O24 F96'
_cell_volume   3381.65364652
_cell_formula_units_Z   24
loop_
 _symmetry_equiv_pos_site_id
 _symmetry_equiv_pos_as_xyz
  1  'x, y, z'
loop_
 _atom_site_type_symbol
 _atom_site_label
 _atom_site_symmetry_multiplicity
 _atom_site_fract_x
 _atom_site_fract_y
 _atom_site_fract_z
 _atom_site_occupancy
  Cs  Cs0  1  0.66932000  0.00000000  0.39173900  1
  Cs  Cs1  1  0.55692400  0.25000000  0.25000000  1
  Cs  Cs2  1  0.50000000  0.19711500  0.00000000  1
  Cs  Cs3  1  0.44307600  0.25000000  0.75000000  1
  Cs  Cs4  1  0.55692400  0.75000000  0.25000000  1
  Cs  Cs5  1  0.50000000  0.30288500  0.50000000  1
  Cs  Cs6  1  0.83068000  0.00000000  0.89173900  1
  Cs  Cs7  1  0.33068000  0.00000000  0.60826100  1
  Cs  Cs8  1  0.50000000  0.80288500  0.00000000  1
  Cs  Cs9  1  0.44307600  0.75000000  0.75000000  1
  Cs  Cs10  1  0.16932000  0.00000000  0.10826100  1
  Cs  Cs11  1  0.50000000  0.69711500  0.50000000  1
  Cs  Cs12  1  0.16932000  0.50000000  0.39173900  1
  Cs  Cs13  1  0.05692400  0.75000000  0.25000000  1
  Cs  Cs14  1  0.00000000  0.69711500  0.00000000  1
  Cs  Cs15  1  0.94307600  0.75000000  0.75000000  1
  Cs  Cs16  1  0.05692400  0.25000000  0.25000000  1
  Cs  Cs17  1  0.00000000  0.80288500  0.50000000  1
  Cs  Cs18  1  0.33068000  0.50000000  0.89173900  1
  Cs  Cs19  1  0.83068000  0.50000000  0.60826100  1
  Cs  Cs20  1  0.00000000  0.30288500  0.00000000  1
  Cs  Cs21  1  0.94307600  0.25000000  0.75000000  1
  Cs  Cs22  1  0.66932000  0.50000000  0.10826100  1
  Cs  Cs23  1  0.00000000  0.19711500  0.50000000  1
  Sb  Sb24  1  0.69297550  0.12337650  0.61602500  1
  Sb  Sb25  1  0.46899200  0.00000000  0.85174500  1
  Sb  Sb26  1  0.30702450  0.87662350  0.38397500  1
  Sb  Sb27  1  0.19297550  0.87662350  0.88397500  1
  Sb  Sb28  1  0.53100800  0.00000000  0.14825500  1
  Sb  Sb29  1  0.30702450  0.12337650  0.38397500  1
  Sb  Sb30  1  0.69297550  0.87662350  0.61602500  1
  Sb  Sb31  1  0.80702450  0.87662350  0.11602500  1
  Sb  Sb32  1  0.80702450  0.12337650  0.11602500  1
  Sb  Sb33  1  0.96899200  0.00000000  0.64825500  1
  Sb  Sb34  1  0.03100800  0.00000000  0.35174500  1
  Sb  Sb35  1  0.19297550  0.12337650  0.88397500  1
  Sb  Sb36  1  0.19297550  0.62337650  0.61602500  1
  Sb  Sb37  1  0.96899200  0.50000000  0.85174500  1
  Sb  Sb38  1  0.80702450  0.37662350  0.38397500  1
  Sb  Sb39  1  0.69297550  0.37662350  0.88397500  1
  Sb  Sb40  1  0.03100800  0.50000000  0.14825500  1
  Sb  Sb41  1  0.80702450  0.62337650  0.38397500  1
  Sb  Sb42  1  0.19297550  0.37662350  0.61602500  1
  Sb  Sb43  1  0.30702450  0.37662350  0.11602500  1
  Sb  Sb44  1  0.30702450  0.62337650  0.11602500  1
  Sb  Sb45  1  0.46899200  0.50000000  0.64825500  1
  Sb  Sb46  1  0.53100800  0.50000000  0.35174500  1
  Sb  Sb47  1  0.69297550  0.62337650  0.88397500  1
  O  O48  1  0.86787100  0.89819700  0.61855800  1
  O  O49  1  0.63064300  0.00000000  0.63456200  1
  O  O50  1  0.36787100  0.89819700  0.88144200  1
  O  O51  1  0.36935700  0.00000000  0.36543800  1
  O  O52  1  0.86935700  0.00000000  0.13456200  1
  O  O53  1  0.86787100  0.10180300  0.61855800  1
  O  O54  1  0.13212900  0.89819700  0.38144200  1
  O  O55  1  0.36787100  0.10180300  0.88144200  1
  O  O56  1  0.63212900  0.10180300  0.11855800  1
  O  O57  1  0.13064300  0.00000000  0.86543800  1
  O  O58  1  0.63212900  0.89819700  0.11855800  1
  O  O59  1  0.13212900  0.10180300  0.38144200  1
  O  O60  1  0.36787100  0.39819700  0.61855800  1
  O  O61  1  0.13064300  0.50000000  0.63456200  1
  O  O62  1  0.86787100  0.39819700  0.88144200  1
  O  O63  1  0.86935700  0.50000000  0.36543800  1
  O  O64  1  0.36935700  0.50000000  0.13456200  1
  O  O65  1  0.36787100  0.60180300  0.61855800  1
  O  O66  1  0.63212900  0.39819700  0.38144200  1
  O  O67  1  0.86787100  0.60180300  0.88144200  1
  O  O68  1  0.13212900  0.60180300  0.11855800  1
  O  O69  1  0.63064300  0.50000000  0.86543800  1
  O  O70  1  0.13212900  0.39819700  0.11855800  1
  O  O71  1  0.63212900  0.60180300  0.38144200  1
  F  F72  1  0.41377600  0.40860700  0.32538600  1
  F  F73  1  0.81421350  0.10455850  0.02444600  1
  F  F74  1  0.09887600  0.00000000  0.26647700  1
  F  F75  1  0.26603350  0.25001850  0.09507800  1
  F  F76  1  0.47687900  0.83644900  0.38668000  1
  F  F77  1  0.26603350  0.75001850  0.40492200  1
  F  F78  1  0.26603350  0.24998150  0.40492200  1
  F  F79  1  0.69077650  0.15926850  0.70454400  1
  F  F80  1  0.94580400  0.00000000  0.43318600  1
  F  F81  1  0.26603350  0.74998150  0.09507800  1
  F  F82  1  0.68578650  0.89544150  0.52444600  1
  F  F83  1  0.73396650  0.25001850  0.90492200  1
  F  F84  1  0.41377600  0.09139300  0.17461400  1
  F  F85  1  0.59887600  0.00000000  0.23352300  1
  F  F86  1  0.55419600  0.00000000  0.93318600  1
  F  F87  1  0.69077650  0.84073150  0.70454400  1
  F  F88  1  0.19077650  0.15926850  0.79545600  1
  F  F89  1  0.44580400  0.00000000  0.06681400  1
  F  F90  1  0.80922350  0.15926850  0.20454400  1
  F  F91  1  0.58622400  0.59139300  0.67461400  1
  F  F92  1  0.81421350  0.89544150  0.02444600  1
  F  F93  1  0.52312100  0.66355100  0.88668000  1
  F  F94  1  0.47687900  0.66355100  0.11332000  1
  F  F95  1  0.68578650  0.10455850  0.52444600  1
  F  F96  1  0.73396650  0.24998150  0.59507800  1
  F  F97  1  0.58622400  0.40860700  0.67461400  1
  F  F98  1  0.47687900  0.16355100  0.38668000  1
  F  F99  1  0.58622400  0.90860700  0.82538600  1
  F  F100  1  0.40112400  0.00000000  0.76647700  1
  F  F101  1  0.18578650  0.89544150  0.97555400  1
  F  F102  1  0.80922350  0.84073150  0.20454400  1
  F  F103  1  0.30922350  0.15926850  0.29545600  1
  F  F104  1  0.52312100  0.83644900  0.61332000  1
  F  F105  1  0.30922350  0.84073150  0.29545600  1
  F  F106  1  0.47687900  0.33644900  0.11332000  1
  F  F107  1  0.18578650  0.10455850  0.97555400  1
  F  F108  1  0.31421350  0.89544150  0.47555400  1
  F  F109  1  0.41377600  0.59139300  0.32538600  1
  F  F110  1  0.52312100  0.33644900  0.88668000  1
  F  F111  1  0.73396650  0.74998150  0.90492200  1
  F  F112  1  0.73396650  0.75001850  0.59507800  1
  F  F113  1  0.31421350  0.10455850  0.47555400  1
  F  F114  1  0.90112400  0.00000000  0.73352300  1
  F  F115  1  0.41377600  0.90860700  0.17461400  1
  F  F116  1  0.19077650  0.84073150  0.79545600  1
  F  F117  1  0.58622400  0.09139300  0.82538600  1
  F  F118  1  0.05419600  0.00000000  0.56681400  1
  F  F119  1  0.52312100  0.16355100  0.61332000  1
  F  F120  1  0.91377600  0.90860700  0.32538600  1
  F  F121  1  0.31421350  0.60455850  0.02444600  1
  F  F122  1  0.59887600  0.50000000  0.26647700  1
  F  F123  1  0.76603350  0.75001850  0.09507800  1
  F  F124  1  0.97687900  0.33644900  0.38668000  1
  F  F125  1  0.76603350  0.25001850  0.40492200  1
  F  F126  1  0.76603350  0.74998150  0.40492200  1
  F  F127  1  0.19077650  0.65926850  0.70454400  1
  F  F128  1  0.44580400  0.50000000  0.43318600  1
  F  F129  1  0.76603350  0.24998150  0.09507800  1
  F  F130  1  0.18578650  0.39544150  0.52444600  1
  F  F131  1  0.23396650  0.75001850  0.90492200  1
  F  F132  1  0.91377600  0.59139300  0.17461400  1
  F  F133  1  0.09887600  0.50000000  0.23352300  1
  F  F134  1  0.05419600  0.50000000  0.93318600  1
  F  F135  1  0.19077650  0.34073150  0.70454400  1
  F  F136  1  0.69077650  0.65926850  0.79545600  1
  F  F137  1  0.94580400  0.50000000  0.06681400  1
  F  F138  1  0.30922350  0.65926850  0.20454400  1
  F  F139  1  0.08622400  0.09139300  0.67461400  1
  F  F140  1  0.31421350  0.39544150  0.02444600  1
  F  F141  1  0.02312100  0.16355100  0.88668000  1
  F  F142  1  0.97687900  0.16355100  0.11332000  1
  F  F143  1  0.18578650  0.60455850  0.52444600  1
  F  F144  1  0.23396650  0.74998150  0.59507800  1
  F  F145  1  0.08622400  0.90860700  0.67461400  1
  F  F146  1  0.97687900  0.66355100  0.38668000  1
  F  F147  1  0.08622400  0.40860700  0.82538600  1
  F  F148  1  0.90112400  0.50000000  0.76647700  1
  F  F149  1  0.68578650  0.39544150  0.97555400  1
  F  F150  1  0.30922350  0.34073150  0.20454400  1
  F  F151  1  0.80922350  0.65926850  0.29545600  1
  F  F152  1  0.02312100  0.33644900  0.61332000  1
  F  F153  1  0.80922350  0.34073150  0.29545600  1
  F  F154  1  0.97687900  0.83644900  0.11332000  1
  F  F155  1  0.68578650  0.60455850  0.97555400  1
  F  F156  1  0.81421350  0.39544150  0.47555400  1
  F  F157  1  0.91377600  0.09139300  0.32538600  1
  F  F158  1  0.02312100  0.83644900  0.88668000  1
  F  F159  1  0.23396650  0.24998150  0.90492200  1
  F  F160  1  0.23396650  0.25001850  0.59507800  1
  F  F161  1  0.81421350  0.60455850  0.47555400  1
  F  F162  1  0.40112400  0.50000000  0.73352300  1
  F  F163  1  0.91377600  0.40860700  0.17461400  1
  F  F164  1  0.69077650  0.34073150  0.79545600  1
  F  F165  1  0.08622400  0.59139300  0.82538600  1
  F  F166  1  0.55419600  0.50000000  0.56681400  1
  F  F167  1  0.02312100  0.66355100  0.61332000  1
