# generated using pymatgen
data_BaBi2(MoO4)4
_symmetry_space_group_name_H-M   'P 1'
_cell_length_a   5.39901200
_cell_length_b   13.05384800
_cell_length_c   19.69881875
_cell_angle_alpha   90.00000000
_cell_angle_beta   91.41072705
_cell_angle_gamma   90.00000000
_symmetry_Int_Tables_number   1
_chemical_formula_structural   BaBi2(MoO4)4
_chemical_formula_sum   'Ba4 Bi8 Mo16 O64'
_cell_volume   1387.91021755
_cell_formula_units_Z   4
loop_
 _symmetry_equiv_pos_site_id
 _symmetry_equiv_pos_as_xyz
  1  'x, y, z'
loop_
 _atom_site_type_symbol
 _atom_site_label
 _atom_site_symmetry_multiplicity
 _atom_site_fract_x
 _atom_site_fract_y
 _atom_site_fract_z
 _atom_site_occupancy
  Ba  Ba0  1  0.00000000  0.97004700  0.25000000  1
  Ba  Ba1  1  0.50000000  0.52995300  0.75000000  1
  Ba  Ba2  1  0.50000000  0.47004700  0.25000000  1
  Ba  Ba3  1  0.00000000  0.02995300  0.75000000  1
  Bi  Bi4  1  0.00221550  0.85056150  0.46231600  1
  Bi  Bi5  1  0.50221550  0.64943850  0.96231600  1
  Bi  Bi6  1  0.99778450  0.85056150  0.03768400  1
  Bi  Bi7  1  0.49778450  0.64943850  0.53768400  1
  Bi  Bi8  1  0.50221550  0.35056150  0.46231600  1
  Bi  Bi9  1  0.00221550  0.14943850  0.96231600  1
  Bi  Bi10  1  0.49778450  0.35056150  0.03768400  1
  Bi  Bi11  1  0.99778450  0.14943850  0.53768400  1
  Mo  Mo12  1  0.98146200  0.55883300  0.40790600  1
  Mo  Mo13  1  0.49546300  0.76090300  0.15160400  1
  Mo  Mo14  1  0.48146200  0.94116700  0.90790600  1
  Mo  Mo15  1  0.50453700  0.76090300  0.34839600  1
  Mo  Mo16  1  0.01853800  0.55883300  0.09209400  1
  Mo  Mo17  1  0.51853800  0.94116700  0.59209400  1
  Mo  Mo18  1  0.99546300  0.73909700  0.65160400  1
  Mo  Mo19  1  0.00453700  0.73909700  0.84839600  1
  Mo  Mo20  1  0.48146200  0.05883300  0.40790600  1
  Mo  Mo21  1  0.99546300  0.26090300  0.15160400  1
  Mo  Mo22  1  0.98146200  0.44116700  0.90790600  1
  Mo  Mo23  1  0.00453700  0.26090300  0.34839600  1
  Mo  Mo24  1  0.51853800  0.05883300  0.09209400  1
  Mo  Mo25  1  0.01853800  0.44116700  0.59209400  1
  Mo  Mo26  1  0.49546300  0.23909700  0.65160400  1
  Mo  Mo27  1  0.50453700  0.23909700  0.84839600  1
  O  O28  1  0.73450550  0.64865650  0.63760100  1
  O  O29  1  0.76549450  0.85134350  0.36239900  1
  O  O30  1  0.70907900  0.80710100  0.21269900  1
  O  O31  1  0.75415200  0.54188500  0.89304700  1
  O  O32  1  0.73699750  0.98461350  0.96395200  1
  O  O33  1  0.83734550  0.75392650  0.93000500  1
  O  O34  1  0.66265450  0.74607350  0.06999500  1
  O  O35  1  0.26300250  0.98461350  0.53604800  1
  O  O36  1  0.20907900  0.69289900  0.71269900  1
  O  O37  1  0.38250400  0.91756200  0.66973900  1
  O  O38  1  0.11749600  0.58243800  0.33026100  1
  O  O39  1  0.88031450  0.85833950  0.67789100  1
  O  O40  1  0.23699750  0.51538650  0.46395200  1
  O  O41  1  0.25415200  0.95811500  0.39304700  1
  O  O42  1  0.76300250  0.51538650  0.03604800  1
  O  O43  1  0.33734550  0.74607350  0.43000500  1
  O  O44  1  0.34682200  0.82705600  0.95082000  1
  O  O45  1  0.29092100  0.80710100  0.28730100  1
  O  O46  1  0.79092100  0.69289900  0.78730100  1
  O  O47  1  0.61749600  0.91756200  0.83026100  1
  O  O48  1  0.11968550  0.85833950  0.82210900  1
  O  O49  1  0.24584800  0.54188500  0.60695300  1
  O  O50  1  0.16265450  0.75392650  0.56999500  1
  O  O51  1  0.23450550  0.85134350  0.13760100  1
  O  O52  1  0.61968550  0.64166050  0.32210900  1
  O  O53  1  0.84682200  0.67294400  0.45082000  1
  O  O54  1  0.65317800  0.82705600  0.54918000  1
  O  O55  1  0.74584800  0.95811500  0.10695300  1
  O  O56  1  0.88250400  0.58243800  0.16973900  1
  O  O57  1  0.15317800  0.67294400  0.04918000  1
  O  O58  1  0.26549450  0.64865650  0.86239900  1
  O  O59  1  0.38031450  0.64166050  0.17789100  1
  O  O60  1  0.23450550  0.14865650  0.63760100  1
  O  O61  1  0.26549450  0.35134350  0.36239900  1
  O  O62  1  0.20907900  0.30710100  0.21269900  1
  O  O63  1  0.25415200  0.04188500  0.89304700  1
  O  O64  1  0.23699750  0.48461350  0.96395200  1
  O  O65  1  0.33734550  0.25392650  0.93000500  1
  O  O66  1  0.16265450  0.24607350  0.06999500  1
  O  O67  1  0.76300250  0.48461350  0.53604800  1
  O  O68  1  0.70907900  0.19289900  0.71269900  1
  O  O69  1  0.88250400  0.41756200  0.66973900  1
  O  O70  1  0.61749600  0.08243800  0.33026100  1
  O  O71  1  0.38031450  0.35833950  0.67789100  1
  O  O72  1  0.73699750  0.01538650  0.46395200  1
  O  O73  1  0.75415200  0.45811500  0.39304700  1
  O  O74  1  0.26300250  0.01538650  0.03604800  1
  O  O75  1  0.83734550  0.24607350  0.43000500  1
  O  O76  1  0.84682200  0.32705600  0.95082000  1
  O  O77  1  0.79092100  0.30710100  0.28730100  1
  O  O78  1  0.29092100  0.19289900  0.78730100  1
  O  O79  1  0.11749600  0.41756200  0.83026100  1
  O  O80  1  0.61968550  0.35833950  0.82210900  1
  O  O81  1  0.74584800  0.04188500  0.60695300  1
  O  O82  1  0.66265450  0.25392650  0.56999500  1
  O  O83  1  0.73450550  0.35134350  0.13760100  1
  O  O84  1  0.11968550  0.14166050  0.32210900  1
  O  O85  1  0.34682200  0.17294400  0.45082000  1
  O  O86  1  0.15317800  0.32705600  0.54918000  1
  O  O87  1  0.24584800  0.45811500  0.10695300  1
  O  O88  1  0.38250400  0.08243800  0.16973900  1
  O  O89  1  0.65317800  0.17294400  0.04918000  1
  O  O90  1  0.76549450  0.14865650  0.86239900  1
  O  O91  1  0.88031450  0.14166050  0.17789100  1
