# generated using pymatgen
data_Ti3(BiO3)4
_symmetry_space_group_name_H-M   'P 1'
_cell_length_a   5.42828200
_cell_length_b   5.51564800
_cell_length_c   33.50798900
_cell_angle_alpha   90.00000000
_cell_angle_beta   90.00000000
_cell_angle_gamma   90.00000000
_symmetry_Int_Tables_number   1
_chemical_formula_structural   Ti3(BiO3)4
_chemical_formula_sum   'Ti12 Bi16 O48'
_cell_volume   1003.24570195
_cell_formula_units_Z   4
loop_
 _symmetry_equiv_pos_site_id
 _symmetry_equiv_pos_as_xyz
  1  'x, y, z'
loop_
 _atom_site_type_symbol
 _atom_site_label
 _atom_site_symmetry_multiplicity
 _atom_site_fract_x
 _atom_site_fract_y
 _atom_site_fract_z
 _atom_site_occupancy
  Ti  Ti0  1  0.98961600  0.00000000  0.50000000  1
  Ti  Ti1  1  0.50197950  0.01295150  0.12899700  1
  Ti  Ti2  1  0.48961600  0.00000000  0.00000000  1
  Ti  Ti3  1  0.50197950  0.51295150  0.37100300  1
  Ti  Ti4  1  0.50197950  0.98704850  0.87100300  1
  Ti  Ti5  1  0.50197950  0.48704850  0.62899700  1
  Ti  Ti6  1  0.48961600  0.50000000  0.50000000  1
  Ti  Ti7  1  0.00197950  0.51295150  0.12899700  1
  Ti  Ti8  1  0.98961600  0.50000000  0.00000000  1
  Ti  Ti9  1  0.00197950  0.01295150  0.37100300  1
  Ti  Ti10  1  0.00197950  0.48704850  0.87100300  1
  Ti  Ti11  1  0.00197950  0.98704850  0.62899700  1
  Bi  Bi12  1  0.50313500  0.51699100  0.78820000  1
  Bi  Bi13  1  0.50313500  0.01699100  0.71180000  1
  Bi  Bi14  1  0.49379700  0.42341300  0.93357500  1
  Bi  Bi15  1  0.49379700  0.92341300  0.56642500  1
  Bi  Bi16  1  0.49379700  0.57658700  0.06642500  1
  Bi  Bi17  1  0.50313500  0.98300900  0.28820000  1
  Bi  Bi18  1  0.49379700  0.07658700  0.43357500  1
  Bi  Bi19  1  0.50313500  0.48300900  0.21180000  1
  Bi  Bi20  1  0.00313500  0.01699100  0.78820000  1
  Bi  Bi21  1  0.00313500  0.51699100  0.71180000  1
  Bi  Bi22  1  0.99379700  0.92341300  0.93357500  1
  Bi  Bi23  1  0.99379700  0.42341300  0.56642500  1
  Bi  Bi24  1  0.99379700  0.07658700  0.06642500  1
  Bi  Bi25  1  0.00313500  0.48300900  0.28820000  1
  Bi  Bi26  1  0.99379700  0.57658700  0.43357500  1
  Bi  Bi27  1  0.00313500  0.98300900  0.21180000  1
  O  O28  1  0.26271850  0.24487950  0.50045000  1
  O  O29  1  0.50789750  0.48311750  0.68248600  1
  O  O30  1  0.50789750  0.01688250  0.18248600  1
  O  O31  1  0.25516200  0.75621800  0.74999700  1
  O  O32  1  0.24336400  0.23792900  0.11705500  1
  O  O33  1  0.50712800  0.97940700  0.05954300  1
  O  O34  1  0.26201050  0.26114150  0.88309900  1
  O  O35  1  0.50712800  0.02059300  0.94045700  1
  O  O36  1  0.50789750  0.98311750  0.81751400  1
  O  O37  1  0.50712800  0.52059300  0.55954300  1
  O  O38  1  0.26201050  0.73885850  0.11690100  1
  O  O39  1  0.26271850  0.25512050  0.00045000  1
  O  O40  1  0.26271850  0.74487950  0.99955000  1
  O  O41  1  0.26271850  0.75512050  0.49955000  1
  O  O42  1  0.26201050  0.76114150  0.61690100  1
  O  O43  1  0.75516200  0.24378200  0.24999700  1
  O  O44  1  0.74336400  0.76207100  0.61705500  1
  O  O45  1  0.26201050  0.23885850  0.38309900  1
  O  O46  1  0.50712800  0.47940700  0.44045700  1
  O  O47  1  0.24336400  0.76207100  0.88294500  1
  O  O48  1  0.25516200  0.24378200  0.25000300  1
  O  O49  1  0.50789750  0.51688250  0.31751400  1
  O  O50  1  0.75516200  0.75621800  0.75000300  1
  O  O51  1  0.74336400  0.23792900  0.38294500  1
  O  O52  1  0.76271850  0.74487950  0.50045000  1
  O  O53  1  0.00789750  0.98311750  0.68248600  1
  O  O54  1  0.00789750  0.51688250  0.18248600  1
  O  O55  1  0.75516200  0.25621800  0.74999700  1
  O  O56  1  0.74336400  0.73792900  0.11705500  1
  O  O57  1  0.00712800  0.47940700  0.05954300  1
  O  O58  1  0.76201050  0.76114150  0.88309900  1
  O  O59  1  0.00712800  0.52059300  0.94045700  1
  O  O60  1  0.00789750  0.48311750  0.81751400  1
  O  O61  1  0.00712800  0.02059300  0.55954300  1
  O  O62  1  0.76201050  0.23885850  0.11690100  1
  O  O63  1  0.76271850  0.75512050  0.00045000  1
  O  O64  1  0.76271850  0.24487950  0.99955000  1
  O  O65  1  0.76271850  0.25512050  0.49955000  1
  O  O66  1  0.76201050  0.26114150  0.61690100  1
  O  O67  1  0.25516200  0.74378200  0.24999700  1
  O  O68  1  0.24336400  0.26207100  0.61705500  1
  O  O69  1  0.76201050  0.73885850  0.38309900  1
  O  O70  1  0.00712800  0.97940700  0.44045700  1
  O  O71  1  0.74336400  0.26207100  0.88294500  1
  O  O72  1  0.75516200  0.74378200  0.25000300  1
  O  O73  1  0.00789750  0.01688250  0.31751400  1
  O  O74  1  0.25516200  0.25621800  0.75000300  1
  O  O75  1  0.24336400  0.73792900  0.38294500  1
