# generated using pymatgen
data_Mn7FeCl3O10
_symmetry_space_group_name_H-M   'P 1'
_cell_length_a   13.34865400
_cell_length_b   13.34865400
_cell_length_c   13.34865400
_cell_angle_alpha   90.00000000
_cell_angle_beta   90.00000000
_cell_angle_gamma   90.00000000
_symmetry_Int_Tables_number   1
_chemical_formula_structural   Mn7FeCl3O10
_chemical_formula_sum   'Mn56 Fe8 Cl24 O80'
_cell_volume   2378.55078510
_cell_formula_units_Z   8
loop_
 _symmetry_equiv_pos_site_id
 _symmetry_equiv_pos_as_xyz
  1  'x, y, z'
loop_
 _atom_site_type_symbol
 _atom_site_label
 _atom_site_symmetry_multiplicity
 _atom_site_fract_x
 _atom_site_fract_y
 _atom_site_fract_z
 _atom_site_occupancy
  Mn  Mn0  1  0.17568100  0.00000000  0.82431900  1
  Mn  Mn1  1  0.32431900  0.67568100  0.00000000  1
  Mn  Mn2  1  0.17568100  0.17568100  0.00000000  1
  Mn  Mn3  1  0.00000000  0.82431900  0.82431900  1
  Mn  Mn4  1  0.32431900  0.00000000  0.67568100  1
  Mn  Mn5  1  0.00000000  0.32431900  0.67568100  1
  Mn  Mn6  1  0.67568100  0.00000000  0.67568100  1
  Mn  Mn7  1  0.17568100  0.82431900  0.00000000  1
  Mn  Mn8  1  0.50000000  0.00000000  0.00000000  1
  Mn  Mn9  1  0.82431900  0.00000000  0.82431900  1
  Mn  Mn10  1  0.32431900  0.32431900  0.00000000  1
  Mn  Mn11  1  0.00000000  0.17568100  0.82431900  1
  Mn  Mn12  1  0.00000000  0.67568100  0.67568100  1
  Mn  Mn13  1  0.00000000  0.00000000  0.00000000  1
  Mn  Mn14  1  0.17568100  0.50000000  0.32431900  1
  Mn  Mn15  1  0.32431900  0.17568100  0.50000000  1
  Mn  Mn16  1  0.17568100  0.67568100  0.50000000  1
  Mn  Mn17  1  0.00000000  0.32431900  0.32431900  1
  Mn  Mn18  1  0.32431900  0.50000000  0.17568100  1
  Mn  Mn19  1  0.00000000  0.82431900  0.17568100  1
  Mn  Mn20  1  0.67568100  0.50000000  0.17568100  1
  Mn  Mn21  1  0.17568100  0.32431900  0.50000000  1
  Mn  Mn22  1  0.50000000  0.50000000  0.50000000  1
  Mn  Mn23  1  0.82431900  0.50000000  0.32431900  1
  Mn  Mn24  1  0.32431900  0.82431900  0.50000000  1
  Mn  Mn25  1  0.00000000  0.67568100  0.32431900  1
  Mn  Mn26  1  0.00000000  0.17568100  0.17568100  1
  Mn  Mn27  1  0.00000000  0.50000000  0.50000000  1
  Mn  Mn28  1  0.67568100  0.00000000  0.32431900  1
  Mn  Mn29  1  0.82431900  0.67568100  0.50000000  1
  Mn  Mn30  1  0.67568100  0.17568100  0.50000000  1
  Mn  Mn31  1  0.50000000  0.82431900  0.32431900  1
  Mn  Mn32  1  0.82431900  0.00000000  0.17568100  1
  Mn  Mn33  1  0.50000000  0.32431900  0.17568100  1
  Mn  Mn34  1  0.17568100  0.00000000  0.17568100  1
  Mn  Mn35  1  0.67568100  0.82431900  0.50000000  1
  Mn  Mn36  1  0.00000000  0.00000000  0.50000000  1
  Mn  Mn37  1  0.32431900  0.00000000  0.32431900  1
  Mn  Mn38  1  0.82431900  0.32431900  0.50000000  1
  Mn  Mn39  1  0.50000000  0.17568100  0.32431900  1
  Mn  Mn40  1  0.50000000  0.67568100  0.17568100  1
  Mn  Mn41  1  0.50000000  0.00000000  0.50000000  1
  Mn  Mn42  1  0.67568100  0.50000000  0.82431900  1
  Mn  Mn43  1  0.82431900  0.17568100  0.00000000  1
  Mn  Mn44  1  0.67568100  0.67568100  0.00000000  1
  Mn  Mn45  1  0.50000000  0.32431900  0.82431900  1
  Mn  Mn46  1  0.82431900  0.50000000  0.67568100  1
  Mn  Mn47  1  0.50000000  0.82431900  0.67568100  1
  Mn  Mn48  1  0.17568100  0.50000000  0.67568100  1
  Mn  Mn49  1  0.67568100  0.32431900  0.00000000  1
  Mn  Mn50  1  0.00000000  0.50000000  0.00000000  1
  Mn  Mn51  1  0.32431900  0.50000000  0.82431900  1
  Mn  Mn52  1  0.82431900  0.82431900  0.00000000  1
  Mn  Mn53  1  0.50000000  0.67568100  0.82431900  1
  Mn  Mn54  1  0.50000000  0.17568100  0.67568100  1
  Mn  Mn55  1  0.50000000  0.50000000  0.00000000  1
  Fe  Fe56  1  0.25000000  0.75000000  0.75000000  1
  Fe  Fe57  1  0.25000000  0.25000000  0.75000000  1
  Fe  Fe58  1  0.25000000  0.25000000  0.25000000  1
  Fe  Fe59  1  0.25000000  0.75000000  0.25000000  1
  Fe  Fe60  1  0.75000000  0.75000000  0.25000000  1
  Fe  Fe61  1  0.75000000  0.25000000  0.25000000  1
  Fe  Fe62  1  0.75000000  0.25000000  0.75000000  1
  Fe  Fe63  1  0.75000000  0.75000000  0.75000000  1
  Cl  Cl64  1  0.30349100  0.00000000  0.00000000  1
  Cl  Cl65  1  0.69650900  0.00000000  0.00000000  1
  Cl  Cl66  1  0.00000000  0.00000000  0.69650900  1
  Cl  Cl67  1  0.50000000  0.80349100  0.00000000  1
  Cl  Cl68  1  0.50000000  0.19650900  0.00000000  1
  Cl  Cl69  1  0.50000000  0.00000000  0.80349100  1
  Cl  Cl70  1  0.30349100  0.50000000  0.50000000  1
  Cl  Cl71  1  0.69650900  0.50000000  0.50000000  1
  Cl  Cl72  1  0.00000000  0.50000000  0.19650900  1
  Cl  Cl73  1  0.50000000  0.30349100  0.50000000  1
  Cl  Cl74  1  0.50000000  0.69650900  0.50000000  1
  Cl  Cl75  1  0.50000000  0.50000000  0.30349100  1
  Cl  Cl76  1  0.80349100  0.00000000  0.50000000  1
  Cl  Cl77  1  0.19650900  0.00000000  0.50000000  1
  Cl  Cl78  1  0.50000000  0.00000000  0.19650900  1
  Cl  Cl79  1  0.00000000  0.80349100  0.50000000  1
  Cl  Cl80  1  0.00000000  0.19650900  0.50000000  1
  Cl  Cl81  1  0.00000000  0.00000000  0.30349100  1
  Cl  Cl82  1  0.80349100  0.50000000  0.00000000  1
  Cl  Cl83  1  0.19650900  0.50000000  0.00000000  1
  Cl  Cl84  1  0.50000000  0.50000000  0.69650900  1
  Cl  Cl85  1  0.00000000  0.30349100  0.00000000  1
  Cl  Cl86  1  0.00000000  0.69650900  0.00000000  1
  Cl  Cl87  1  0.00000000  0.50000000  0.80349100  1
  O  O88  1  0.40371900  0.25000000  0.75000000  1
  O  O89  1  0.25000000  0.09628100  0.75000000  1
  O  O90  1  0.39998567  0.10001433  0.60001433  1
  O  O91  1  0.25000000  0.25000000  0.59628100  1
  O  O92  1  0.25000000  0.40371900  0.75000000  1
  O  O93  1  0.25000000  0.75000000  0.59628100  1
  O  O94  1  0.09628100  0.75000000  0.75000000  1
  O  O95  1  0.09628100  0.25000000  0.75000000  1
  O  O96  1  0.39998567  0.60001433  0.89998567  1
  O  O97  1  0.10001433  0.39998567  0.60001433  1
  O  O98  1  0.10001433  0.60001433  0.60001433  1
  O  O99  1  0.25000000  0.75000000  0.90371900  1
  O  O100  1  0.25000000  0.25000000  0.90371900  1
  O  O101  1  0.10001433  0.89998567  0.89998567  1
  O  O102  1  0.40371900  0.75000000  0.75000000  1
  O  O103  1  0.10001433  0.10001433  0.89998567  1
  O  O104  1  0.25000000  0.90371900  0.75000000  1
  O  O105  1  0.39998567  0.39998567  0.89998567  1
  O  O106  1  0.39998567  0.89998567  0.60001433  1
  O  O107  1  0.25000000  0.59628100  0.75000000  1
  O  O108  1  0.40371900  0.75000000  0.25000000  1
  O  O109  1  0.25000000  0.59628100  0.25000000  1
  O  O110  1  0.39998567  0.60001433  0.10001433  1
  O  O111  1  0.25000000  0.75000000  0.09628100  1
  O  O112  1  0.25000000  0.90371900  0.25000000  1
  O  O113  1  0.25000000  0.25000000  0.09628100  1
  O  O114  1  0.09628100  0.25000000  0.25000000  1
  O  O115  1  0.09628100  0.75000000  0.25000000  1
  O  O116  1  0.39998567  0.10001433  0.39998567  1
  O  O117  1  0.10001433  0.89998567  0.10001433  1
  O  O118  1  0.10001433  0.10001433  0.10001433  1
  O  O119  1  0.25000000  0.25000000  0.40371900  1
  O  O120  1  0.25000000  0.75000000  0.40371900  1
  O  O121  1  0.10001433  0.39998567  0.39998567  1
  O  O122  1  0.40371900  0.25000000  0.25000000  1
  O  O123  1  0.10001433  0.60001433  0.39998567  1
  O  O124  1  0.25000000  0.40371900  0.25000000  1
  O  O125  1  0.39998567  0.89998567  0.39998567  1
  O  O126  1  0.39998567  0.39998567  0.10001433  1
  O  O127  1  0.25000000  0.09628100  0.25000000  1
  O  O128  1  0.90371900  0.25000000  0.25000000  1
  O  O129  1  0.75000000  0.09628100  0.25000000  1
  O  O130  1  0.89998567  0.10001433  0.10001433  1
  O  O131  1  0.75000000  0.25000000  0.09628100  1
  O  O132  1  0.75000000  0.40371900  0.25000000  1
  O  O133  1  0.75000000  0.75000000  0.09628100  1
  O  O134  1  0.59628100  0.75000000  0.25000000  1
  O  O135  1  0.59628100  0.25000000  0.25000000  1
  O  O136  1  0.89998567  0.60001433  0.39998567  1
  O  O137  1  0.60001433  0.39998567  0.10001433  1
  O  O138  1  0.60001433  0.60001433  0.10001433  1
  O  O139  1  0.75000000  0.75000000  0.40371900  1
  O  O140  1  0.75000000  0.25000000  0.40371900  1
  O  O141  1  0.60001433  0.89998567  0.39998567  1
  O  O142  1  0.90371900  0.75000000  0.25000000  1
  O  O143  1  0.60001433  0.10001433  0.39998567  1
  O  O144  1  0.75000000  0.90371900  0.25000000  1
  O  O145  1  0.89998567  0.39998567  0.39998567  1
  O  O146  1  0.89998567  0.89998567  0.10001433  1
  O  O147  1  0.75000000  0.59628100  0.25000000  1
  O  O148  1  0.90371900  0.75000000  0.75000000  1
  O  O149  1  0.75000000  0.59628100  0.75000000  1
  O  O150  1  0.89998567  0.60001433  0.60001433  1
  O  O151  1  0.75000000  0.75000000  0.59628100  1
  O  O152  1  0.75000000  0.90371900  0.75000000  1
  O  O153  1  0.75000000  0.25000000  0.59628100  1
  O  O154  1  0.59628100  0.25000000  0.75000000  1
  O  O155  1  0.59628100  0.75000000  0.75000000  1
  O  O156  1  0.89998567  0.10001433  0.89998567  1
  O  O157  1  0.60001433  0.89998567  0.60001433  1
  O  O158  1  0.60001433  0.10001433  0.60001433  1
  O  O159  1  0.75000000  0.25000000  0.90371900  1
  O  O160  1  0.75000000  0.75000000  0.90371900  1
  O  O161  1  0.60001433  0.39998567  0.89998567  1
  O  O162  1  0.90371900  0.25000000  0.75000000  1
  O  O163  1  0.60001433  0.60001433  0.89998567  1
  O  O164  1  0.75000000  0.40371900  0.75000000  1
  O  O165  1  0.89998567  0.89998567  0.89998567  1
  O  O166  1  0.89998567  0.39998567  0.60001433  1
  O  O167  1  0.75000000  0.09628100  0.75000000  1
