# generated using pymatgen
data_Re(Te4Cl3)2
_symmetry_space_group_name_H-M   'P 1'
_cell_length_a   12.64045400
_cell_length_b   10.12599000
_cell_length_c   32.32337753
_cell_angle_alpha   90.00000000
_cell_angle_beta   90.46500785
_cell_angle_gamma   90.00000000
_symmetry_Int_Tables_number   1
_chemical_formula_structural   Re(Te4Cl3)2
_chemical_formula_sum   'Re8 Te64 Cl48'
_cell_volume   4137.16267836
_cell_formula_units_Z   8
loop_
 _symmetry_equiv_pos_site_id
 _symmetry_equiv_pos_as_xyz
  1  'x, y, z'
loop_
 _atom_site_type_symbol
 _atom_site_label
 _atom_site_symmetry_multiplicity
 _atom_site_fract_x
 _atom_site_fract_y
 _atom_site_fract_z
 _atom_site_occupancy
  Re  Re0  1  0.50000000  0.92181700  0.75000000  1
  Re  Re1  1  0.50000000  0.00000000  0.00000000  1
  Re  Re2  1  0.50000000  0.00000000  0.50000000  1
  Re  Re3  1  0.50000000  0.07818300  0.25000000  1
  Re  Re4  1  0.00000000  0.42181700  0.75000000  1
  Re  Re5  1  0.00000000  0.50000000  0.00000000  1
  Re  Re6  1  0.00000000  0.50000000  0.50000000  1
  Re  Re7  1  0.00000000  0.57818300  0.25000000  1
  Te  Te8  1  0.82741050  0.88210850  0.14034700  1
  Te  Te9  1  0.51607950  0.59802550  0.06329100  1
  Te  Te10  1  0.38515500  0.63523800  0.91804000  1
  Te  Te11  1  0.28181650  0.00651350  0.62022000  1
  Te  Te12  1  0.80366650  0.01965050  0.06697900  1
  Te  Te13  1  0.84800650  0.99019250  0.81123600  1
  Te  Te14  1  0.16728200  0.89060800  0.81294600  1
  Te  Te15  1  0.17258950  0.88210850  0.35965300  1
  Te  Te16  1  0.71818350  0.00651350  0.87978000  1
  Te  Te17  1  0.47462400  0.71132600  0.33967600  1
  Te  Te18  1  0.51607950  0.40197450  0.56329100  1
  Te  Te19  1  0.16728200  0.10939200  0.31294600  1
  Te  Te20  1  0.48392050  0.59802550  0.43670900  1
  Te  Te21  1  0.17258950  0.11789150  0.85965300  1
  Te  Te22  1  0.83271800  0.10939200  0.18705400  1
  Te  Te23  1  0.15199350  0.00980750  0.18876400  1
  Te  Te24  1  0.61484500  0.63523800  0.58196000  1
  Te  Te25  1  0.82741050  0.11789150  0.64034700  1
  Te  Te26  1  0.15199350  0.99019250  0.68876400  1
  Te  Te27  1  0.28181650  0.99348650  0.12022000  1
  Te  Te28  1  0.19633350  0.98034950  0.93302100  1
  Te  Te29  1  0.19633350  0.01965050  0.43302100  1
  Te  Te30  1  0.71818350  0.99348650  0.37978000  1
  Te  Te31  1  0.61484500  0.36476200  0.08196000  1
  Te  Te32  1  0.84800650  0.00980750  0.31123600  1
  Te  Te33  1  0.38515500  0.36476200  0.41804000  1
  Te  Te34  1  0.52537600  0.71132600  0.16032400  1
  Te  Te35  1  0.48392050  0.40197450  0.93670900  1
  Te  Te36  1  0.47462400  0.28867400  0.83967600  1
  Te  Te37  1  0.83271800  0.89060800  0.68705400  1
  Te  Te38  1  0.80366650  0.98034950  0.56697900  1
  Te  Te39  1  0.52537600  0.28867400  0.66032400  1
  Te  Te40  1  0.32741050  0.38210850  0.14034700  1
  Te  Te41  1  0.01607950  0.09802550  0.06329100  1
  Te  Te42  1  0.88515500  0.13523800  0.91804000  1
  Te  Te43  1  0.78181650  0.50651350  0.62022000  1
  Te  Te44  1  0.30366650  0.51965050  0.06697900  1
  Te  Te45  1  0.34800650  0.49019250  0.81123600  1
  Te  Te46  1  0.66728200  0.39060800  0.81294600  1
  Te  Te47  1  0.67258950  0.38210850  0.35965300  1
  Te  Te48  1  0.21818350  0.50651350  0.87978000  1
  Te  Te49  1  0.97462400  0.21132600  0.33967600  1
  Te  Te50  1  0.01607950  0.90197450  0.56329100  1
  Te  Te51  1  0.66728200  0.60939200  0.31294600  1
  Te  Te52  1  0.98392050  0.09802550  0.43670900  1
  Te  Te53  1  0.67258950  0.61789150  0.85965300  1
  Te  Te54  1  0.33271800  0.60939200  0.18705400  1
  Te  Te55  1  0.65199350  0.50980750  0.18876400  1
  Te  Te56  1  0.11484500  0.13523800  0.58196000  1
  Te  Te57  1  0.32741050  0.61789150  0.64034700  1
  Te  Te58  1  0.65199350  0.49019250  0.68876400  1
  Te  Te59  1  0.78181650  0.49348650  0.12022000  1
  Te  Te60  1  0.69633350  0.48034950  0.93302100  1
  Te  Te61  1  0.69633350  0.51965050  0.43302100  1
  Te  Te62  1  0.21818350  0.49348650  0.37978000  1
  Te  Te63  1  0.11484500  0.86476200  0.08196000  1
  Te  Te64  1  0.34800650  0.50980750  0.31123600  1
  Te  Te65  1  0.88515500  0.86476200  0.41804000  1
  Te  Te66  1  0.02537600  0.21132600  0.16032400  1
  Te  Te67  1  0.98392050  0.90197450  0.93670900  1
  Te  Te68  1  0.97462400  0.78867400  0.83967600  1
  Te  Te69  1  0.33271800  0.39060800  0.68705400  1
  Te  Te70  1  0.30366650  0.48034950  0.56697900  1
  Te  Te71  1  0.02537600  0.78867400  0.66032400  1
  Cl  Cl72  1  0.63191050  0.24100450  0.25937800  1
  Cl  Cl73  1  0.36938200  0.09048200  0.74362400  1
  Cl  Cl74  1  0.63061800  0.09048200  0.75637600  1
  Cl  Cl75  1  0.60920600  0.82485400  0.97746900  1
  Cl  Cl76  1  0.36339650  0.15420350  0.51403800  1
  Cl  Cl77  1  0.52696100  0.07836500  0.17768300  1
  Cl  Cl78  1  0.52696100  0.92163500  0.67768300  1
  Cl  Cl79  1  0.36808950  0.75899550  0.74062200  1
  Cl  Cl80  1  0.43804800  0.02744900  0.93079500  1
  Cl  Cl81  1  0.43804800  0.97255100  0.43079500  1
  Cl  Cl82  1  0.56195200  0.97255100  0.06920500  1
  Cl  Cl83  1  0.56195200  0.02744900  0.56920500  1
  Cl  Cl84  1  0.60920600  0.17514600  0.47746900  1
  Cl  Cl85  1  0.39079400  0.82485400  0.52253100  1
  Cl  Cl86  1  0.63660350  0.15420350  0.98596200  1
  Cl  Cl87  1  0.36339650  0.84579650  0.01403800  1
  Cl  Cl88  1  0.36808950  0.24100450  0.24062200  1
  Cl  Cl89  1  0.63191050  0.75899550  0.75937800  1
  Cl  Cl90  1  0.63660350  0.84579650  0.48596200  1
  Cl  Cl91  1  0.63061800  0.90951800  0.25637600  1
  Cl  Cl92  1  0.47303900  0.07836500  0.32231700  1
  Cl  Cl93  1  0.36938200  0.90951800  0.24362400  1
  Cl  Cl94  1  0.39079400  0.17514600  0.02253100  1
  Cl  Cl95  1  0.47303900  0.92163500  0.82231700  1
  Cl  Cl96  1  0.13191050  0.74100450  0.25937800  1
  Cl  Cl97  1  0.86938200  0.59048200  0.74362400  1
  Cl  Cl98  1  0.13061800  0.59048200  0.75637600  1
  Cl  Cl99  1  0.10920600  0.32485400  0.97746900  1
  Cl  Cl100  1  0.86339650  0.65420350  0.51403800  1
  Cl  Cl101  1  0.02696100  0.57836500  0.17768300  1
  Cl  Cl102  1  0.02696100  0.42163500  0.67768300  1
  Cl  Cl103  1  0.86808950  0.25899550  0.74062200  1
  Cl  Cl104  1  0.93804800  0.52744900  0.93079500  1
  Cl  Cl105  1  0.93804800  0.47255100  0.43079500  1
  Cl  Cl106  1  0.06195200  0.47255100  0.06920500  1
  Cl  Cl107  1  0.06195200  0.52744900  0.56920500  1
  Cl  Cl108  1  0.10920600  0.67514600  0.47746900  1
  Cl  Cl109  1  0.89079400  0.32485400  0.52253100  1
  Cl  Cl110  1  0.13660350  0.65420350  0.98596200  1
  Cl  Cl111  1  0.86339650  0.34579650  0.01403800  1
  Cl  Cl112  1  0.86808950  0.74100450  0.24062200  1
  Cl  Cl113  1  0.13191050  0.25899550  0.75937800  1
  Cl  Cl114  1  0.13660350  0.34579650  0.48596200  1
  Cl  Cl115  1  0.13061800  0.40951800  0.25637600  1
  Cl  Cl116  1  0.97303900  0.57836500  0.32231700  1
  Cl  Cl117  1  0.86938200  0.40951800  0.24362400  1
  Cl  Cl118  1  0.89079400  0.67514600  0.02253100  1
  Cl  Cl119  1  0.97303900  0.42163500  0.82231700  1
