# generated using pymatgen
data_LiAl(SiO3)2
_symmetry_space_group_name_H-M   'P 1'
_cell_length_a   9.62102200
_cell_length_b   8.47273000
_cell_length_c   5.27498514
_cell_angle_alpha   90.00000000
_cell_angle_beta   110.61855008
_cell_angle_gamma   90.00000000
_symmetry_Int_Tables_number   1
_chemical_formula_structural   LiAl(SiO3)2
_chemical_formula_sum   'Li4 Al4 Si8 O24'
_cell_volume   402.45415050
_cell_formula_units_Z   4
loop_
 _symmetry_equiv_pos_site_id
 _symmetry_equiv_pos_as_xyz
  1  'x, y, z'
loop_
 _atom_site_type_symbol
 _atom_site_label
 _atom_site_symmetry_multiplicity
 _atom_site_fract_x
 _atom_site_fract_y
 _atom_site_fract_z
 _atom_site_occupancy
  Li  Li0  1  0.00000000  0.72950000  0.25000000  1
  Li  Li1  1  0.00000000  0.27050000  0.75000000  1
  Li  Li2  1  0.50000000  0.22950000  0.25000000  1
  Li  Li3  1  0.50000000  0.77050000  0.75000000  1
  Al  Al4  1  0.00000000  0.09453000  0.25000000  1
  Al  Al5  1  0.00000000  0.90547000  0.75000000  1
  Al  Al6  1  0.50000000  0.59453000  0.25000000  1
  Al  Al7  1  0.50000000  0.40547000  0.75000000  1
  Si  Si8  1  0.20666050  0.40661650  0.24202300  1
  Si  Si9  1  0.79333950  0.40661650  0.25797700  1
  Si  Si10  1  0.79333950  0.59338350  0.75797700  1
  Si  Si11  1  0.20666050  0.59338350  0.74202300  1
  Si  Si12  1  0.70666050  0.90661650  0.24202300  1
  Si  Si13  1  0.29333950  0.90661650  0.25797700  1
  Si  Si14  1  0.29333950  0.09338350  0.75797700  1
  Si  Si15  1  0.70666050  0.09338350  0.74202300  1
  O  O16  1  0.39089950  0.41702750  0.35904100  1
  O  O17  1  0.60910050  0.41702750  0.14095900  1
  O  O18  1  0.60910050  0.58297250  0.64095900  1
  O  O19  1  0.39089950  0.58297250  0.85904100  1
  O  O20  1  0.13414600  0.23375500  0.20015000  1
  O  O21  1  0.86585400  0.23375500  0.29985000  1
  O  O22  1  0.86585400  0.76624500  0.79985000  1
  O  O23  1  0.13414600  0.76624500  0.70015000  1
  O  O24  1  0.14501900  0.51755500  0.43516900  1
  O  O25  1  0.85498100  0.51755500  0.06483100  1
  O  O26  1  0.85498100  0.48244500  0.56483100  1
  O  O27  1  0.14501900  0.48244500  0.93516900  1
  O  O28  1  0.89089950  0.91702750  0.35904100  1
  O  O29  1  0.10910050  0.91702750  0.14095900  1
  O  O30  1  0.10910050  0.08297250  0.64095900  1
  O  O31  1  0.89089950  0.08297250  0.85904100  1
  O  O32  1  0.63414600  0.73375500  0.20015000  1
  O  O33  1  0.36585400  0.73375500  0.29985000  1
  O  O34  1  0.36585400  0.26624500  0.79985000  1
  O  O35  1  0.63414600  0.26624500  0.70015000  1
  O  O36  1  0.64501900  0.01755500  0.43516900  1
  O  O37  1  0.35498100  0.01755500  0.06483100  1
  O  O38  1  0.35498100  0.98244500  0.56483100  1
  O  O39  1  0.64501900  0.98244500  0.93516900  1
