# generated using pymatgen
data_RbC2N3
_symmetry_space_group_name_H-M   'P 1'
_cell_length_a   14.00285926
_cell_length_b   10.14830860
_cell_length_c   14.61460630
_cell_angle_alpha   90.00000000
_cell_angle_beta   116.98251770
_cell_angle_gamma   90.00000000
_symmetry_Int_Tables_number   1
_chemical_formula_structural   RbC2N3
_chemical_formula_sum   'Rb16 C32 N48'
_cell_volume   1850.74202749
_cell_formula_units_Z   16
loop_
 _symmetry_equiv_pos_site_id
 _symmetry_equiv_pos_as_xyz
  1  'x, y, z'
loop_
 _atom_site_type_symbol
 _atom_site_label
 _atom_site_symmetry_multiplicity
 _atom_site_fract_x
 _atom_site_fract_y
 _atom_site_fract_z
 _atom_site_occupancy
  Rb  Rb0  1  0.51970700  0.82135400  0.33695850  1
  Rb  Rb1  1  0.66796550  0.49512850  0.61981650  1
  Rb  Rb2  1  0.01601900  0.68027200  0.83277550  1
  Rb  Rb3  1  0.66631500  0.50779900  0.11788450  1
  Rb  Rb4  1  0.98398100  0.68027200  0.16722450  1
  Rb  Rb5  1  0.48029300  0.82135400  0.66304150  1
  Rb  Rb6  1  0.83203450  0.99512850  0.38018350  1
  Rb  Rb7  1  0.83368500  0.00779900  0.88211550  1
  Rb  Rb8  1  0.01970700  0.32135400  0.33695850  1
  Rb  Rb9  1  0.16796550  0.99512850  0.61981650  1
  Rb  Rb10  1  0.51601900  0.18027200  0.83277550  1
  Rb  Rb11  1  0.16631500  0.00779900  0.11788450  1
  Rb  Rb12  1  0.48398100  0.18027200  0.16722450  1
  Rb  Rb13  1  0.98029300  0.32135400  0.66304150  1
  Rb  Rb14  1  0.33203450  0.49512850  0.38018350  1
  Rb  Rb15  1  0.33368500  0.50779900  0.88211550  1
  C  C16  1  0.64692700  0.15946800  0.63106050  1
  C  C17  1  0.14714200  0.33810700  0.12977750  1
  C  C18  1  0.26236950  0.84217450  0.37109550  1
  C  C19  1  0.35307300  0.15946800  0.36893950  1
  C  C20  1  0.76190300  0.65293800  0.87092050  1
  C  C21  1  0.64869750  0.86695250  0.97497550  1
  C  C22  1  0.11480750  0.95342050  0.35839350  1
  C  C23  1  0.88519250  0.95342050  0.64160650  1
  C  C24  1  0.85130250  0.36695250  0.02502450  1
  C  C25  1  0.85285800  0.33810700  0.87022250  1
  C  C26  1  0.38726250  0.54423550  0.13841850  1
  C  C27  1  0.85197300  0.63076000  0.52164750  1
  C  C28  1  0.64802700  0.13076000  0.47835250  1
  C  C29  1  0.61273750  0.54423550  0.86158150  1
  C  C30  1  0.23809700  0.65293800  0.12907950  1
  C  C31  1  0.73763050  0.84217450  0.62890450  1
  C  C32  1  0.14692700  0.65946800  0.63106050  1
  C  C33  1  0.64714200  0.83810700  0.12977750  1
  C  C34  1  0.76236950  0.34217450  0.37109550  1
  C  C35  1  0.85307300  0.65946800  0.36893950  1
  C  C36  1  0.26190300  0.15293800  0.87092050  1
  C  C37  1  0.14869750  0.36695250  0.97497550  1
  C  C38  1  0.61480750  0.45342050  0.35839350  1
  C  C39  1  0.38519250  0.45342050  0.64160650  1
  C  C40  1  0.35130250  0.86695250  0.02502450  1
  C  C41  1  0.35285800  0.83810700  0.87022250  1
  C  C42  1  0.88726250  0.04423550  0.13841850  1
  C  C43  1  0.35197300  0.13076000  0.52164750  1
  C  C44  1  0.14802700  0.63076000  0.47835250  1
  C  C45  1  0.11273750  0.04423550  0.86158150  1
  C  C46  1  0.73809700  0.15293800  0.12907950  1
  C  C47  1  0.23763050  0.34217450  0.62890450  1
  N  N48  1  0.83585850  0.30028250  0.94319150  1
  N  N49  1  0.63853000  0.92380100  0.90021650  1
  N  N50  1  0.36347900  0.13035700  0.29136250  1
  N  N51  1  0.56215900  0.51143000  0.38960350  1
  N  N52  1  0.83642200  0.89228600  0.68025250  1
  N  N53  1  0.93784100  0.01143000  0.61039650  1
  N  N54  1  0.63652100  0.13035700  0.70863750  1
  N  N55  1  0.34926850  0.79571950  0.41387450  1
  N  N56  1  0.86147000  0.42380100  0.09978350  1
  N  N57  1  0.16357800  0.89228600  0.31974750  1
  N  N58  1  0.55809800  0.48775800  0.88489250  1
  N  N59  1  0.33462200  0.60675900  0.17915350  1
  N  N60  1  0.85954750  0.57775750  0.59681750  1
  N  N61  1  0.86654750  0.36407750  0.79471550  1
  N  N62  1  0.64045250  0.07775750  0.40318250  1
  N  N63  1  0.15088200  0.70029300  0.08553350  1
  N  N64  1  0.66437000  0.19977700  0.55550550  1
  N  N65  1  0.83563000  0.69977700  0.44449450  1
  N  N66  1  0.94190200  0.98775800  0.11510750  1
  N  N67  1  0.13345250  0.36407750  0.20528450  1
  N  N68  1  0.66537800  0.60675900  0.82084650  1
  N  N69  1  0.66414150  0.80028250  0.05680850  1
  N  N70  1  0.65073150  0.79571950  0.58612550  1
  N  N71  1  0.84911800  0.70029300  0.91446650  1
  N  N72  1  0.33585850  0.80028250  0.94319150  1
  N  N73  1  0.13853000  0.42380100  0.90021650  1
  N  N74  1  0.86347900  0.63035700  0.29136250  1
  N  N75  1  0.06215900  0.01143000  0.38960350  1
  N  N76  1  0.33642200  0.39228600  0.68025250  1
  N  N77  1  0.43784100  0.51143000  0.61039650  1
  N  N78  1  0.13652100  0.63035700  0.70863750  1
  N  N79  1  0.84926850  0.29571950  0.41387450  1
  N  N80  1  0.36147000  0.92380100  0.09978350  1
  N  N81  1  0.66357800  0.39228600  0.31974750  1
  N  N82  1  0.05809800  0.98775800  0.88489250  1
  N  N83  1  0.83462200  0.10675900  0.17915350  1
  N  N84  1  0.35954750  0.07775750  0.59681750  1
  N  N85  1  0.36654750  0.86407750  0.79471550  1
  N  N86  1  0.14045250  0.57775750  0.40318250  1
  N  N87  1  0.65088200  0.20029300  0.08553350  1
  N  N88  1  0.16437000  0.69977700  0.55550550  1
  N  N89  1  0.33563000  0.19977700  0.44449450  1
  N  N90  1  0.44190200  0.48775800  0.11510750  1
  N  N91  1  0.63345250  0.86407750  0.20528450  1
  N  N92  1  0.16537800  0.10675900  0.82084650  1
  N  N93  1  0.16414150  0.30028250  0.05680850  1
  N  N94  1  0.15073150  0.29571950  0.58612550  1
  N  N95  1  0.34911800  0.20029300  0.91446650  1
