# generated using pymatgen
data_CsRe6S8Br3
_symmetry_space_group_name_H-M   'P 1'
_cell_length_a   6.43187600
_cell_length_b   18.85394900
_cell_length_c   15.85544635
_cell_angle_alpha   90.00000000
_cell_angle_beta   106.37573209
_cell_angle_gamma   90.00000000
_symmetry_Int_Tables_number   1
_chemical_formula_structural   CsRe6S8Br3
_chemical_formula_sum   'Cs4 Re24 S32 Br12'
_cell_volume   1844.73221024
_cell_formula_units_Z   4
loop_
 _symmetry_equiv_pos_site_id
 _symmetry_equiv_pos_as_xyz
  1  'x, y, z'
loop_
 _atom_site_type_symbol
 _atom_site_label
 _atom_site_symmetry_multiplicity
 _atom_site_fract_x
 _atom_site_fract_y
 _atom_site_fract_z
 _atom_site_occupancy
  Cs  Cs0  1  0.53440300  0.52028300  0.24814700  1
  Cs  Cs1  1  0.46559700  0.02028300  0.25185300  1
  Cs  Cs2  1  0.53440300  0.97971700  0.74814700  1
  Cs  Cs3  1  0.46559700  0.47971700  0.75185300  1
  Re  Re4  1  0.00250800  0.33908100  0.95314000  1
  Re  Re5  1  0.07647300  0.66350300  0.44982900  1
  Re  Re6  1  0.66605700  0.26183800  0.95906600  1
  Re  Re7  1  0.92352700  0.16350300  0.05017100  1
  Re  Re8  1  0.96720100  0.29489400  0.39825100  1
  Re  Re9  1  0.07647300  0.83649700  0.94982900  1
  Re  Re10  1  0.95905200  0.20265800  0.60518400  1
  Re  Re11  1  0.99749200  0.83908100  0.54686000  1
  Re  Re12  1  0.99749200  0.66091900  0.04686000  1
  Re  Re13  1  0.74011000  0.74078300  0.45573100  1
  Re  Re14  1  0.74011000  0.75921700  0.95573100  1
  Re  Re15  1  0.00250800  0.16091900  0.45314000  1
  Re  Re16  1  0.33394300  0.76183800  0.54093400  1
  Re  Re17  1  0.25989000  0.25921700  0.54426900  1
  Re  Re18  1  0.25989000  0.24078300  0.04426900  1
  Re  Re19  1  0.66605700  0.23816200  0.45906600  1
  Re  Re20  1  0.92352700  0.33649700  0.55017100  1
  Re  Re21  1  0.03279900  0.70510600  0.60174900  1
  Re  Re22  1  0.33394300  0.73816200  0.04093400  1
  Re  Re23  1  0.04094800  0.70265800  0.89481600  1
  Re  Re24  1  0.03279900  0.79489400  0.10174900  1
  Re  Re25  1  0.96720100  0.20510600  0.89825100  1
  Re  Re26  1  0.04094800  0.79734200  0.39481600  1
  Re  Re27  1  0.95905200  0.29734200  0.10518400  1
  S  S28  1  0.73290100  0.78050200  0.60580300  1
  S  S29  1  0.73290100  0.71949800  0.10580300  1
  S  S30  1  0.65869000  0.22208400  0.10901400  1
  S  S31  1  0.65690900  0.13945200  0.91137100  1
  S  S32  1  0.19717800  0.20356900  0.18003500  1
  S  S33  1  0.26883200  0.13692900  0.59200700  1
  S  S34  1  0.27959400  0.61752600  0.98811000  1
  S  S35  1  0.34131000  0.72208400  0.39098600  1
  S  S36  1  0.26709900  0.28050200  0.89419700  1
  S  S37  1  0.73116800  0.86307100  0.40799300  1
  S  S38  1  0.20586100  0.12018100  0.99169200  1
  S  S39  1  0.72918800  0.20115200  0.32316800  1
  S  S40  1  0.65690900  0.36054800  0.41137100  1
  S  S41  1  0.34309100  0.63945200  0.58862900  1
  S  S42  1  0.79413900  0.62018100  0.50830800  1
  S  S43  1  0.20586100  0.37981900  0.49169200  1
  S  S44  1  0.72918800  0.29884800  0.82316800  1
  S  S45  1  0.27959400  0.88247400  0.48811000  1
  S  S46  1  0.80282200  0.70356900  0.31996500  1
  S  S47  1  0.19717800  0.29643100  0.68003500  1
  S  S48  1  0.79413900  0.87981900  0.00830800  1
  S  S49  1  0.27081200  0.70115200  0.17683200  1
  S  S50  1  0.80282200  0.79643100  0.81996500  1
  S  S51  1  0.72040600  0.38247400  0.01189000  1
  S  S52  1  0.65869000  0.27791600  0.60901400  1
  S  S53  1  0.26709900  0.21949800  0.39419700  1
  S  S54  1  0.34309100  0.86054800  0.08862900  1
  S  S55  1  0.72040600  0.11752600  0.51189000  1
  S  S56  1  0.27081200  0.79884800  0.67683200  1
  S  S57  1  0.73116800  0.63692900  0.90799300  1
  S  S58  1  0.26883200  0.36307100  0.09200700  1
  S  S59  1  0.34131000  0.77791600  0.89098600  1
  Br  Br60  1  0.03251100  0.86743800  0.24718100  1
  Br  Br61  1  0.05265900  0.45887100  0.88436500  1
  Br  Br62  1  0.96748900  0.13256200  0.75281900  1
  Br  Br63  1  0.94734100  0.54112900  0.11563500  1
  Br  Br64  1  0.03251100  0.63256200  0.74718100  1
  Br  Br65  1  0.87396300  0.45642700  0.61849100  1
  Br  Br66  1  0.96748900  0.36743800  0.25281900  1
  Br  Br67  1  0.12603700  0.54357300  0.38150900  1
  Br  Br68  1  0.94734100  0.95887100  0.61563500  1
  Br  Br69  1  0.05265900  0.04112900  0.38436500  1
  Br  Br70  1  0.12603700  0.95642700  0.88150900  1
  Br  Br71  1  0.87396300  0.04357300  0.11849100  1
