# generated using pymatgen
data_NaNdS2
_symmetry_space_group_name_H-M   'P 1'
_cell_length_a   5.71792400
_cell_length_b   5.71792400
_cell_length_c   11.94145600
_cell_angle_alpha   90.00000000
_cell_angle_beta   90.00000000
_cell_angle_gamma   90.00000000
_symmetry_Int_Tables_number   1
_chemical_formula_structural   NaNdS2
_chemical_formula_sum   'Na4 Nd4 S8'
_cell_volume   390.42178256
_cell_formula_units_Z   4
loop_
 _symmetry_equiv_pos_site_id
 _symmetry_equiv_pos_as_xyz
  1  'x, y, z'
loop_
 _atom_site_type_symbol
 _atom_site_label
 _atom_site_symmetry_multiplicity
 _atom_site_fract_x
 _atom_site_fract_y
 _atom_site_fract_z
 _atom_site_occupancy
  Na  Na0  1  0.50000000  0.00000000  0.25000000  1
  Na  Na1  1  0.50000000  0.50000000  0.00000000  1
  Na  Na2  1  0.00000000  0.50000000  0.75000000  1
  Na  Na3  1  0.00000000  0.00000000  0.50000000  1
  Nd  Nd4  1  0.00000000  0.00000000  0.00000000  1
  Nd  Nd5  1  0.00000000  0.50000000  0.25000000  1
  Nd  Nd6  1  0.50000000  0.50000000  0.50000000  1
  Nd  Nd7  1  0.50000000  0.00000000  0.75000000  1
  S  S8  1  0.00000000  0.50000000  0.48809500  1
  S  S9  1  0.50000000  0.50000000  0.26190500  1
  S  S10  1  0.00000000  0.50000000  0.01190500  1
  S  S11  1  0.00000000  0.00000000  0.23809500  1
  S  S12  1  0.50000000  0.00000000  0.98809500  1
  S  S13  1  0.00000000  0.00000000  0.76190500  1
  S  S14  1  0.50000000  0.00000000  0.51190500  1
  S  S15  1  0.50000000  0.50000000  0.73809500  1
