# generated using pymatgen
data_Ag3SI
_symmetry_space_group_name_H-M   'P 1'
_cell_length_a   7.13161604
_cell_length_b   7.13161604
_cell_length_c   8.50492777
_cell_angle_alpha   90.00000000
_cell_angle_beta   90.00000000
_cell_angle_gamma   120.00000000
_symmetry_Int_Tables_number   1
_chemical_formula_structural   Ag3SI
_chemical_formula_sum   'Ag9 S3 I3'
_cell_volume   374.60810327
_cell_formula_units_Z   3
loop_
 _symmetry_equiv_pos_site_id
 _symmetry_equiv_pos_as_xyz
  1  'x, y, z'
loop_
 _atom_site_type_symbol
 _atom_site_label
 _atom_site_symmetry_multiplicity
 _atom_site_fract_x
 _atom_site_fract_y
 _atom_site_fract_z
 _atom_site_occupancy
  Ag  Ag0  1  0.57803400  0.57803400  0.50000000  1
  Ag  Ag1  1  0.42196600  0.00000000  0.50000000  1
  Ag  Ag2  1  0.00000000  0.42196600  0.50000000  1
  Ag  Ag3  1  0.24470067  0.91136733  0.83333333  1
  Ag  Ag4  1  0.08863267  0.33333333  0.83333333  1
  Ag  Ag5  1  0.66666667  0.75529933  0.83333333  1
  Ag  Ag6  1  0.91136733  0.24470067  0.16666667  1
  Ag  Ag7  1  0.75529933  0.66666667  0.16666667  1
  Ag  Ag8  1  0.33333333  0.08863267  0.16666667  1
  S  S9  1  0.00000000  0.00000000  0.00000000  1
  S  S10  1  0.66666667  0.33333333  0.33333333  1
  S  S11  1  0.33333333  0.66666667  0.66666667  1
  I  I12  1  0.00000000  0.00000000  0.50000000  1
  I  I13  1  0.66666667  0.33333333  0.83333333  1
  I  I14  1  0.33333333  0.66666667  0.16666667  1
