# generated using pymatgen
data_TlP2H5O8
_symmetry_space_group_name_H-M   'P 1'
_cell_length_a   10.44548200
_cell_length_b   7.86503200
_cell_length_c   9.69581206
_cell_angle_alpha   90.00000000
_cell_angle_beta   100.50812916
_cell_angle_gamma   90.00000000
_symmetry_Int_Tables_number   1
_chemical_formula_structural   TlP2H5O8
_chemical_formula_sum   'Tl4 P8 H20 O32'
_cell_volume   783.19131984
_cell_formula_units_Z   4
loop_
 _symmetry_equiv_pos_site_id
 _symmetry_equiv_pos_as_xyz
  1  'x, y, z'
loop_
 _atom_site_type_symbol
 _atom_site_label
 _atom_site_symmetry_multiplicity
 _atom_site_fract_x
 _atom_site_fract_y
 _atom_site_fract_z
 _atom_site_occupancy
  Tl  Tl0  1  0.00000000  0.00000000  0.50000000  1
  Tl  Tl1  1  0.00000000  0.00000000  0.00000000  1
  Tl  Tl2  1  0.50000000  0.50000000  0.50000000  1
  Tl  Tl3  1  0.50000000  0.50000000  0.00000000  1
  P  P4  1  0.31736850  0.94374450  0.80569200  1
  P  P5  1  0.68263150  0.94374450  0.69430800  1
  P  P6  1  0.68263150  0.05625550  0.19430800  1
  P  P7  1  0.31736850  0.05625550  0.30569200  1
  P  P8  1  0.81736850  0.44374450  0.80569200  1
  P  P9  1  0.18263150  0.44374450  0.69430800  1
  P  P10  1  0.18263150  0.55625550  0.19430800  1
  P  P11  1  0.81736850  0.55625550  0.30569200  1
  H  H12  1  0.33609350  0.04210950  0.02111700  1
  H  H13  1  0.66390650  0.04210950  0.47888300  1
  H  H14  1  0.66390650  0.95789050  0.97888300  1
  H  H15  1  0.33609350  0.95789050  0.52111700  1
  H  H16  1  0.68313150  0.22969850  0.82492300  1
  H  H17  1  0.31686850  0.22969850  0.67507700  1
  H  H18  1  0.31686850  0.77030150  0.17507700  1
  H  H19  1  0.68313150  0.77030150  0.32492300  1
  H  H20  1  0.50000000  0.80401600  0.75000000  1
  H  H21  1  0.50000000  0.19598400  0.25000000  1
  H  H22  1  0.83609350  0.54210950  0.02111700  1
  H  H23  1  0.16390650  0.54210950  0.47888300  1
  H  H24  1  0.16390650  0.45789050  0.97888300  1
  H  H25  1  0.83609350  0.45789050  0.52111700  1
  H  H26  1  0.18313150  0.72969850  0.82492300  1
  H  H27  1  0.81686850  0.72969850  0.67507700  1
  H  H28  1  0.81686850  0.27030150  0.17507700  1
  H  H29  1  0.18313150  0.27030150  0.32492300  1
  H  H30  1  0.00000000  0.30401600  0.75000000  1
  H  H31  1  0.00000000  0.69598400  0.25000000  1
  O  O32  1  0.30940750  0.96212850  0.16648100  1
  O  O33  1  0.69059250  0.96212850  0.33351900  1
  O  O34  1  0.69059250  0.03787150  0.83351900  1
  O  O35  1  0.30940750  0.03787150  0.66648100  1
  O  O36  1  0.34517750  0.91641050  0.42403000  1
  O  O37  1  0.65482250  0.91641050  0.07597000  1
  O  O38  1  0.65482250  0.08358950  0.57597000  1
  O  O39  1  0.34517750  0.08358950  0.92403000  1
  O  O40  1  0.18199900  0.86167200  0.82150800  1
  O  O41  1  0.81800100  0.86167200  0.67849200  1
  O  O42  1  0.81800100  0.13832800  0.17849200  1
  O  O43  1  0.18199900  0.13832800  0.32150800  1
  O  O44  1  0.41974850  0.80057650  0.82460100  1
  O  O45  1  0.58025150  0.80057650  0.67539900  1
  O  O46  1  0.58025150  0.19942350  0.17539900  1
  O  O47  1  0.41974850  0.19942350  0.32460100  1
  O  O48  1  0.80940750  0.46212850  0.16648100  1
  O  O49  1  0.19059250  0.46212850  0.33351900  1
  O  O50  1  0.19059250  0.53787150  0.83351900  1
  O  O51  1  0.80940750  0.53787150  0.66648100  1
  O  O52  1  0.84517750  0.41641050  0.42403000  1
  O  O53  1  0.15482250  0.41641050  0.07597000  1
  O  O54  1  0.15482250  0.58358950  0.57597000  1
  O  O55  1  0.84517750  0.58358950  0.92403000  1
  O  O56  1  0.68199900  0.36167200  0.82150800  1
  O  O57  1  0.31800100  0.36167200  0.67849200  1
  O  O58  1  0.31800100  0.63832800  0.17849200  1
  O  O59  1  0.68199900  0.63832800  0.32150800  1
  O  O60  1  0.91974850  0.30057650  0.82460100  1
  O  O61  1  0.08025150  0.30057650  0.67539900  1
  O  O62  1  0.08025150  0.69942350  0.17539900  1
  O  O63  1  0.91974850  0.69942350  0.32460100  1
