# generated using pymatgen
data_Ge2RuC4(Cl3O2)2
_symmetry_space_group_name_H-M   'P 1'
_cell_length_a   9.87149500
_cell_length_b   12.84463200
_cell_length_c   13.11312434
_cell_angle_alpha   90.00000000
_cell_angle_beta   91.50596368
_cell_angle_gamma   90.00000000
_symmetry_Int_Tables_number   1
_chemical_formula_structural   Ge2RuC4(Cl3O2)2
_chemical_formula_sum   'Ge8 Ru4 C16 Cl24 O16'
_cell_volume   1662.11374862
_cell_formula_units_Z   4
loop_
 _symmetry_equiv_pos_site_id
 _symmetry_equiv_pos_as_xyz
  1  'x, y, z'
loop_
 _atom_site_type_symbol
 _atom_site_label
 _atom_site_symmetry_multiplicity
 _atom_site_fract_x
 _atom_site_fract_y
 _atom_site_fract_z
 _atom_site_occupancy
  Ge  Ge0  1  0.43718200  0.47384900  0.35707300  1
  Ge  Ge1  1  0.00233100  0.18192000  0.35171800  1
  Ge  Ge2  1  0.48107900  0.69592900  0.18848700  1
  Ge  Ge3  1  0.56281800  0.97384900  0.64292700  1
  Ge  Ge4  1  0.00286400  0.01848900  0.12732400  1
  Ge  Ge5  1  0.99713600  0.51848900  0.87267600  1
  Ge  Ge6  1  0.99766900  0.68192000  0.64828200  1
  Ge  Ge7  1  0.51892100  0.19592900  0.81151300  1
  Ru  Ru8  1  0.03901200  0.98715400  0.31879900  1
  Ru  Ru9  1  0.54826400  0.99878700  0.83604200  1
  Ru  Ru10  1  0.45173600  0.49878700  0.16395800  1
  Ru  Ru11  1  0.96098800  0.48715400  0.68120100  1
  C  C12  1  0.76919200  0.52244400  0.69988100  1
  C  C13  1  0.74474600  0.02905100  0.83675300  1
  C  C14  1  0.93688500  0.47226200  0.53216800  1
  C  C15  1  0.84052000  0.97052800  0.32236800  1
  C  C16  1  0.25525400  0.52905100  0.16324700  1
  C  C17  1  0.57441000  0.84756900  0.85023800  1
  C  C18  1  0.93580700  0.33901100  0.71178700  1
  C  C19  1  0.64982200  0.48263500  0.18660200  1
  C  C20  1  0.46878800  0.52437700  0.01569900  1
  C  C21  1  0.06419300  0.83901100  0.28821300  1
  C  C22  1  0.53121200  0.02437700  0.98430100  1
  C  C23  1  0.35017800  0.98263500  0.81339800  1
  C  C24  1  0.42559000  0.34756900  0.14976200  1
  C  C25  1  0.15948000  0.47052800  0.67763200  1
  C  C26  1  0.23080800  0.02244400  0.30011900  1
  C  C27  1  0.06311500  0.97226200  0.46783200  1
  Cl  Cl28  1  0.95163900  0.87766100  0.04103200  1
  Cl  Cl29  1  0.56916000  0.27249100  0.66931500  1
  Cl  Cl30  1  0.20680600  0.73175300  0.63374100  1
  Cl  Cl31  1  0.44733900  0.31151900  0.40414000  1
  Cl  Cl32  1  0.40098600  0.04757400  0.55246600  1
  Cl  Cl33  1  0.31476200  0.25011700  0.84203000  1
  Cl  Cl34  1  0.16077500  0.62712100  0.91022400  1
  Cl  Cl35  1  0.83922500  0.12712100  0.08977600  1
  Cl  Cl36  1  0.25301300  0.53453900  0.42290900  1
  Cl  Cl37  1  0.82885400  0.58332500  0.95594000  1
  Cl  Cl38  1  0.68523800  0.75011700  0.15797000  1
  Cl  Cl39  1  0.04836100  0.37766100  0.95896800  1
  Cl  Cl40  1  0.64416700  0.28605300  0.92136300  1
  Cl  Cl41  1  0.43084000  0.77249100  0.33068500  1
  Cl  Cl42  1  0.90083300  0.72925400  0.50249000  1
  Cl  Cl43  1  0.35583300  0.78605300  0.07863700  1
  Cl  Cl44  1  0.91429800  0.79252200  0.75612900  1
  Cl  Cl45  1  0.09916700  0.22925400  0.49751000  1
  Cl  Cl46  1  0.55266100  0.81151900  0.59586000  1
  Cl  Cl47  1  0.59901400  0.54757400  0.44753400  1
  Cl  Cl48  1  0.74698700  0.03453900  0.57709100  1
  Cl  Cl49  1  0.79319400  0.23175300  0.36625900  1
  Cl  Cl50  1  0.17114600  0.08332500  0.04406000  1
  Cl  Cl51  1  0.08570200  0.29252200  0.24387100  1
  O  O52  1  0.27510400  0.46169900  0.67774600  1
  O  O53  1  0.23570500  0.97410600  0.79825200  1
  O  O54  1  0.92338100  0.46225300  0.44557500  1
  O  O55  1  0.72489600  0.96169900  0.32225400  1
  O  O56  1  0.07690300  0.75184600  0.27171300  1
  O  O57  1  0.34232300  0.04440700  0.28989100  1
  O  O58  1  0.07661900  0.96225300  0.55442500  1
  O  O59  1  0.52007600  0.03735100  0.07037700  1
  O  O60  1  0.85886200  0.04576200  0.83641700  1
  O  O61  1  0.41461800  0.25933300  0.13808000  1
  O  O62  1  0.92309700  0.25184600  0.72828700  1
  O  O63  1  0.14113800  0.54576200  0.16358300  1
  O  O64  1  0.47992400  0.53735100  0.92962300  1
  O  O65  1  0.76429500  0.47410600  0.20174800  1
  O  O66  1  0.58538200  0.75933300  0.86192000  1
  O  O67  1  0.65767700  0.54440700  0.71010900  1
