# generated using pymatgen
data_Ba8Bi4O17
_symmetry_space_group_name_H-M   'P 1'
_cell_length_a   6.42356200
_cell_length_b   6.42507374
_cell_length_c   14.47282691
_cell_angle_alpha   102.54376192
_cell_angle_beta   102.70844893
_cell_angle_gamma   90.11408202
_symmetry_Int_Tables_number   1
_chemical_formula_structural   Ba8Bi4O17
_chemical_formula_sum   'Ba8 Bi4 O17'
_cell_volume   568.00143718
_cell_formula_units_Z   1
loop_
 _symmetry_equiv_pos_site_id
 _symmetry_equiv_pos_as_xyz
  1  'x, y, z'
loop_
 _atom_site_type_symbol
 _atom_site_label
 _atom_site_symmetry_multiplicity
 _atom_site_fract_x
 _atom_site_fract_y
 _atom_site_fract_z
 _atom_site_occupancy
  Ba  Ba0  1  0.75421900  0.27017900  0.50992900  1
  Ba  Ba1  1  0.84294200  0.84124100  0.67134200  1
  Ba  Ba2  1  0.44541100  0.94764400  0.88106400  1
  Ba  Ba3  1  0.94101200  0.43613400  0.88107300  1
  Ba  Ba4  1  0.09364300  0.60268600  0.19486800  1
  Ba  Ba5  1  0.58410200  0.09269400  0.19462400  1
  Ba  Ba6  1  0.17327500  0.18052100  0.35744100  1
  Ba  Ba7  1  0.27175400  0.75807200  0.51018100  1
  Bi  Bi8  1  0.00667600  0.00664600  0.01213200  1
  Bi  Bi9  1  0.66394200  0.66655100  0.33619000  1
  Bi  Bi10  1  0.33398300  0.33461500  0.66775700  1
  Bi  Bi11  1  0.50790500  0.51210900  0.01764400  1
  O  O12  1  0.41587600  0.43115700  0.31651200  1
  O  O13  1  0.08567100  0.09129700  0.61121500  1
  O  O14  1  0.43419400  0.90318000  0.32916400  1
  O  O15  1  0.92200800  0.94713500  0.85656000  1
  O  O16  1  0.72033400  0.71553800  0.48693000  1
  O  O17  1  0.75614000  0.75701800  0.99738500  1
  O  O18  1  0.24003100  0.75570900  0.99431000  1
  O  O19  1  0.09498000  0.53855000  0.61965800  1
  O  O20  1  0.40063000  0.40195000  0.81988300  1
  O  O21  1  0.57981200  0.61163700  0.17027900  1
  O  O22  1  0.88141300  0.42085300  0.31918900  1
  O  O23  1  0.24641800  0.24438100  0.00210700  1
  O  O24  1  0.76082600  0.24892100  0.00572600  1
  O  O25  1  0.09443700  0.06778300  0.16338800  1
  O  O26  1  0.53496800  0.08974900  0.62301600  1
  O  O27  1  0.90050700  0.88879800  0.32935800  1
  O  O28  1  0.53964700  0.53341000  0.62471500  1
