# generated using pymatgen
data_NaHO
_symmetry_space_group_name_H-M   'P 1'
_cell_length_a   11.39007400
_cell_length_b   3.58455400
_cell_length_c   3.35204038
_cell_angle_alpha   90.00000000
_cell_angle_beta   99.56792077
_cell_angle_gamma   90.00000000
_symmetry_Int_Tables_number   1
_chemical_formula_structural   NaHO
_chemical_formula_sum   'Na4 H4 O4'
_cell_volume   134.95442867
_cell_formula_units_Z   4
loop_
 _symmetry_equiv_pos_site_id
 _symmetry_equiv_pos_as_xyz
  1  'x, y, z'
loop_
 _atom_site_type_symbol
 _atom_site_label
 _atom_site_symmetry_multiplicity
 _atom_site_fract_x
 _atom_site_fract_y
 _atom_site_fract_z
 _atom_site_occupancy
  Na  Na0  1  0.13887000  0.50000000  0.74879800  1
  Na  Na1  1  0.35056000  0.00000000  0.19363500  1
  Na  Na2  1  0.63887000  0.00000000  0.74879800  1
  Na  Na3  1  0.85056000  0.50000000  0.19363500  1
  H  H4  1  0.31651500  0.50000000  0.52179700  1
  H  H5  1  0.05593100  0.00000000  0.12411000  1
  H  H6  1  0.81651500  0.00000000  0.52179700  1
  H  H7  1  0.55593100  0.50000000  0.12411000  1
  O  O8  1  0.36645500  0.50000000  0.78543200  1
  O  O9  1  0.14017400  0.00000000  0.24867500  1
  O  O10  1  0.86645500  0.00000000  0.78543200  1
  O  O11  1  0.64017400  0.50000000  0.24867500  1
