# generated using pymatgen
data_Ti5ZnBi2(Pb2O9)2
_symmetry_space_group_name_H-M   'P 1'
_cell_length_a   10.69593000
_cell_length_b   5.46427200
_cell_length_c   14.28297244
_cell_angle_alpha   90.00000000
_cell_angle_beta   99.75111405
_cell_angle_gamma   90.00000000
_symmetry_Int_Tables_number   1
_chemical_formula_structural   Ti5ZnBi2(Pb2O9)2
_chemical_formula_sum   'Ti10 Zn2 Bi4 Pb8 O36'
_cell_volume   822.71485869
_cell_formula_units_Z   2
loop_
 _symmetry_equiv_pos_site_id
 _symmetry_equiv_pos_as_xyz
  1  'x, y, z'
loop_
 _atom_site_type_symbol
 _atom_site_label
 _atom_site_symmetry_multiplicity
 _atom_site_fract_x
 _atom_site_fract_y
 _atom_site_fract_z
 _atom_site_occupancy
  Ti  Ti0  1  0.84519100  0.50000000  0.08473200  1
  Ti  Ti1  1  0.51012900  0.50000000  0.24515300  1
  Ti  Ti2  1  0.67647700  0.00000000  0.41316800  1
  Ti  Ti3  1  0.84432400  0.50000000  0.57771900  1
  Ti  Ti4  1  0.68044800  0.00000000  0.91416400  1
  Ti  Ti5  1  0.34519100  0.00000000  0.08473200  1
  Ti  Ti6  1  0.01012900  0.00000000  0.24515300  1
  Ti  Ti7  1  0.17647700  0.50000000  0.41316800  1
  Ti  Ti8  1  0.34432400  0.00000000  0.57771900  1
  Ti  Ti9  1  0.18044800  0.50000000  0.91416400  1
  Zn  Zn10  1  0.98561400  0.00000000  0.74655100  1
  Zn  Zn11  1  0.48561400  0.50000000  0.74655100  1
  Bi  Bi12  1  0.64501600  0.00000000  0.68405000  1
  Bi  Bi13  1  0.80205200  0.50000000  0.83895400  1
  Bi  Bi14  1  0.14501600  0.50000000  0.68405000  1
  Bi  Bi15  1  0.30205200  0.00000000  0.83895400  1
  Pb  Pb16  1  0.98994600  0.00000000  0.99284600  1
  Pb  Pb17  1  0.66077100  0.00000000  0.17231200  1
  Pb  Pb18  1  0.82748400  0.50000000  0.33844400  1
  Pb  Pb19  1  0.99863400  0.00000000  0.50828600  1
  Pb  Pb20  1  0.48994600  0.50000000  0.99284600  1
  Pb  Pb21  1  0.16077100  0.50000000  0.17231200  1
  Pb  Pb22  1  0.32748400  0.00000000  0.33844400  1
  Pb  Pb23  1  0.49863400  0.50000000  0.50828600  1
  O  O24  1  0.95781900  0.75163500  0.14401000  1
  O  O25  1  0.71535200  0.50000000  0.14705200  1
  O  O26  1  0.95781900  0.24836500  0.14401000  1
  O  O27  1  0.88045900  0.00000000  0.30776600  1
  O  O28  1  0.62638000  0.75098800  0.31079800  1
  O  O29  1  0.62638000  0.24901200  0.31079800  1
  O  O30  1  0.79263650  0.24917550  0.47922000  1
  O  O31  1  0.54792200  0.00000000  0.47511800  1
  O  O32  1  0.79263650  0.75082450  0.47922000  1
  O  O33  1  0.96988100  0.73848100  0.64042600  1
  O  O34  1  0.72729800  0.50000000  0.65291700  1
  O  O35  1  0.96988100  0.26151900  0.64042600  1
  O  O36  1  0.62784300  0.75171500  0.81082700  1
  O  O37  1  0.85277500  0.00000000  0.82332000  1
  O  O38  1  0.62784300  0.24828500  0.81082700  1
  O  O39  1  0.78918900  0.26095600  0.97737400  1
  O  O40  1  0.54514300  0.00000000  0.97087100  1
  O  O41  1  0.78918900  0.73904400  0.97737400  1
  O  O42  1  0.45781900  0.25163500  0.14401000  1
  O  O43  1  0.21535200  0.00000000  0.14705200  1
  O  O44  1  0.45781900  0.74836500  0.14401000  1
  O  O45  1  0.38045900  0.50000000  0.30776600  1
  O  O46  1  0.12638000  0.25098800  0.31079800  1
  O  O47  1  0.12638000  0.74901200  0.31079800  1
  O  O48  1  0.29263650  0.74917550  0.47922000  1
  O  O49  1  0.04792200  0.50000000  0.47511800  1
  O  O50  1  0.29263650  0.25082450  0.47922000  1
  O  O51  1  0.46988100  0.23848100  0.64042600  1
  O  O52  1  0.22729800  0.00000000  0.65291700  1
  O  O53  1  0.46988100  0.76151900  0.64042600  1
  O  O54  1  0.12784300  0.25171500  0.81082700  1
  O  O55  1  0.35277500  0.50000000  0.82332000  1
  O  O56  1  0.12784300  0.74828500  0.81082700  1
  O  O57  1  0.28918900  0.76095600  0.97737400  1
  O  O58  1  0.04514300  0.50000000  0.97087100  1
  O  O59  1  0.28918900  0.23904400  0.97737400  1
