# generated using pymatgen
data_Bi5(S2Cl)3
_symmetry_space_group_name_H-M   'P 1'
_cell_length_a   12.21951900
_cell_length_b   12.23483905
_cell_length_c   12.31528535
_cell_angle_alpha   109.65654300
_cell_angle_beta   109.32511714
_cell_angle_gamma   108.77118212
_symmetry_Int_Tables_number   1
_chemical_formula_structural   Bi5(S2Cl)3
_chemical_formula_sum   'Bi20 S24 Cl12'
_cell_volume   1428.71964768
_cell_formula_units_Z   4
loop_
 _symmetry_equiv_pos_site_id
 _symmetry_equiv_pos_as_xyz
  1  'x, y, z'
loop_
 _atom_site_type_symbol
 _atom_site_label
 _atom_site_symmetry_multiplicity
 _atom_site_fract_x
 _atom_site_fract_y
 _atom_site_fract_z
 _atom_site_occupancy
  Bi  Bi0  1  0.02376400  0.89588100  0.31233400  1
  Bi  Bi1  1  0.69218100  0.95211900  0.10387300  1
  Bi  Bi2  1  0.51649000  0.95077400  0.68516700  1
  Bi  Bi3  1  0.66559400  0.77280000  0.35471000  1
  Bi  Bi4  1  0.22258900  0.62981900  0.36822700  1
  Bi  Bi5  1  0.10560600  0.70131600  0.96895600  1
  Bi  Bi6  1  0.30121300  0.46377400  0.03967500  1
  Bi  Bi7  1  0.69696400  0.70963600  0.70014600  1
  Bi  Bi8  1  0.37107900  0.61253400  0.76558700  1
  Bi  Bi9  1  0.02451300  0.33226000  0.44243000  1
  Bi  Bi10  1  0.99207700  0.68155800  0.56996900  1
  Bi  Bi11  1  0.62911200  0.35305200  0.21953900  1
  Bi  Bi12  1  0.29094400  0.30195400  0.27012600  1
  Bi  Bi13  1  0.68970300  0.58560500  0.00959600  1
  Bi  Bi14  1  0.84800500  0.29429000  0.02727300  1
  Bi  Bi15  1  0.79711500  0.39443200  0.63673800  1
  Bi  Bi16  1  0.34352500  0.24242500  0.63307000  1
  Bi  Bi17  1  0.40742700  0.97062100  0.31045200  1
  Bi  Bi18  1  0.31262500  0.01387400  0.89661500  1
  Bi  Bi19  1  0.95704600  0.09904500  0.65558400  1
  S  S20  1  0.16657000  0.92295700  0.16364900  1
  S  S21  1  0.33247000  0.94628100  0.47692400  1
  S  S22  1  0.86355600  0.98912400  0.38617300  1
  S  S23  1  0.07760500  0.84029800  0.83499000  1
  S  S24  1  0.33111300  0.70580300  0.20364900  1
  S  S25  1  0.84726000  0.83802500  0.07732300  1
  S  S26  1  0.52616200  0.67598900  0.04173400  1
  S  S27  1  0.28797800  0.79262800  0.66114900  1
  S  S28  1  0.51151500  0.74087200  0.52227100  1
  S  S29  1  0.84584700  0.84722800  0.59824800  1
  S  S30  1  0.60128600  0.83912700  0.84699600  1
  S  S31  1  0.15003300  0.39854600  0.15269800  1
  S  S32  1  0.78439400  0.64523500  0.27185900  1
  S  S33  1  0.04203100  0.52359400  0.66046600  1
  S  S34  1  0.47713300  0.48547500  0.26050100  1
  S  S35  1  0.26642300  0.47644900  0.48309100  1
  S  S36  1  0.73802500  0.52657000  0.51136100  1
  S  S37  1  0.52866900  0.51331400  0.73320700  1
  S  S38  1  0.96038400  0.47155900  0.32972900  1
  S  S39  1  0.21239500  0.35149000  0.71326700  1
  S  S40  1  0.84529900  0.60358300  0.84176300  1
  S  S41  1  0.40259700  0.15540300  0.15651600  1
  S  S42  1  0.15973600  0.15426400  0.39468400  1
  S  S43  1  0.62901400  0.14647700  0.02086600  1
  Cl  Cl44  1  0.99122700  0.60600500  0.13436000  1
  Cl  Cl45  1  0.38962000  0.86447400  0.99828000  1
  Cl  Cl46  1  0.49455400  0.26324600  0.47750400  1
  Cl  Cl47  1  0.72994200  0.21905400  0.35298800  1
  Cl  Cl48  1  0.47571300  0.34073400  0.96313700  1
  Cl  Cl49  1  0.16309300  0.17268600  0.91794600  1
  Cl  Cl50  1  0.67343800  0.28867800  0.81715700  1
  Cl  Cl51  1  0.92997900  0.15355800  0.16230200  1
  Cl  Cl52  1  0.00167100  0.38107400  0.84747400  1
  Cl  Cl53  1  0.15109900  0.01982000  0.62730300  1
  Cl  Cl54  1  0.69271400  0.05768600  0.54146600  1
  Cl  Cl55  1  0.83188300  0.08492900  0.84690200  1
