# generated using pymatgen
data_Si2H2O5
_symmetry_space_group_name_H-M   'P 1'
_cell_length_a   16.71151600
_cell_length_b   5.20734600
_cell_length_c   5.95490779
_cell_angle_alpha   90.00000000
_cell_angle_beta   110.44741925
_cell_angle_gamma   90.00000000
_symmetry_Int_Tables_number   1
_chemical_formula_structural   Si2H2O5
_chemical_formula_sum   'Si8 H8 O20'
_cell_volume   485.56095405
_cell_formula_units_Z   4
loop_
 _symmetry_equiv_pos_site_id
 _symmetry_equiv_pos_as_xyz
  1  'x, y, z'
loop_
 _atom_site_type_symbol
 _atom_site_label
 _atom_site_symmetry_multiplicity
 _atom_site_fract_x
 _atom_site_fract_y
 _atom_site_fract_z
 _atom_site_occupancy
  Si  Si0  1  0.40417850  0.03978650  0.50220800  1
  Si  Si1  1  0.09582150  0.53978650  0.49779200  1
  Si  Si2  1  0.09559650  0.04454950  0.19314500  1
  Si  Si3  1  0.40440350  0.54454950  0.80685500  1
  Si  Si4  1  0.90417850  0.53978650  0.50220800  1
  Si  Si5  1  0.59582150  0.03978650  0.49779200  1
  Si  Si6  1  0.59559650  0.54454950  0.19314500  1
  Si  Si7  1  0.90440350  0.04454950  0.80685500  1
  H  H8  1  0.33855100  0.19323800  0.12926200  1
  H  H9  1  0.16144900  0.69323800  0.87073800  1
  H  H10  1  0.22284950  0.01073950  0.13221700  1
  H  H11  1  0.27715050  0.51073950  0.86778300  1
  H  H12  1  0.83855100  0.69323800  0.12926200  1
  H  H13  1  0.66144900  0.19323800  0.87073800  1
  H  H14  1  0.72284950  0.51073950  0.13221700  1
  H  H15  1  0.77715050  0.01073950  0.86778300  1
  O  O16  1  0.00000000  0.49705700  0.50000000  1
  O  O17  1  0.00000000  0.05867800  0.00000000  1
  O  O18  1  0.39930550  0.31482850  0.62087600  1
  O  O19  1  0.10069450  0.81482850  0.37912400  1
  O  O20  1  0.11924900  0.31075400  0.34655100  1
  O  O21  1  0.38075100  0.81075400  0.65344900  1
  O  O22  1  0.33239050  0.04727750  0.22934100  1
  O  O23  1  0.16760950  0.54727750  0.77065900  1
  O  O24  1  0.16054750  0.98660950  0.04679300  1
  O  O25  1  0.33945250  0.48660950  0.95320700  1
  O  O26  1  0.50000000  0.99705700  0.50000000  1
  O  O27  1  0.50000000  0.55867800  0.00000000  1
  O  O28  1  0.89930550  0.81482850  0.62087600  1
  O  O29  1  0.60069450  0.31482850  0.37912400  1
  O  O30  1  0.61924900  0.81075400  0.34655100  1
  O  O31  1  0.88075100  0.31075400  0.65344900  1
  O  O32  1  0.83239050  0.54727750  0.22934100  1
  O  O33  1  0.66760950  0.04727750  0.77065900  1
  O  O34  1  0.66054750  0.48660950  0.04679300  1
  O  O35  1  0.83945250  0.98660950  0.95320700  1
