# generated using pymatgen
data_Pr2Pb17Se20
_symmetry_space_group_name_H-M   'P 1'
_cell_length_a   19.11275600
_cell_length_b   4.40821000
_cell_length_c   29.17940980
_cell_angle_alpha   90.00000000
_cell_angle_beta   101.92829300
_cell_angle_gamma   90.00000000
_symmetry_Int_Tables_number   1
_chemical_formula_structural   Pr2Pb17Se20
_chemical_formula_sum   'Pr4 Pb34 Se40'
_cell_volume   2405.36874571
_cell_formula_units_Z   2
loop_
 _symmetry_equiv_pos_site_id
 _symmetry_equiv_pos_as_xyz
  1  'x, y, z'
loop_
 _atom_site_type_symbol
 _atom_site_label
 _atom_site_symmetry_multiplicity
 _atom_site_fract_x
 _atom_site_fract_y
 _atom_site_fract_z
 _atom_site_occupancy
  Pr  Pr0  1  0.90340100  0.50000000  0.09676200  1
  Pr  Pr1  1  0.09659900  0.50000000  0.90323800  1
  Pr  Pr2  1  0.40340100  0.00000000  0.09676200  1
  Pr  Pr3  1  0.59659900  0.00000000  0.90323800  1
  Pb  Pb4  1  0.69804300  0.00000000  0.05056400  1
  Pb  Pb5  1  0.20295400  0.00000000  0.79896700  1
  Pb  Pb6  1  0.30195700  0.00000000  0.94943600  1
  Pb  Pb7  1  0.30117200  0.50000000  0.70211500  1
  Pb  Pb8  1  0.40517800  0.50000000  0.85534900  1
  Pb  Pb9  1  0.89820800  0.50000000  0.59823800  1
  Pb  Pb10  1  0.99732600  0.50000000  0.74787200  1
  Pb  Pb11  1  0.00000000  0.00000000  0.50000000  1
  Pb  Pb12  1  0.10107300  0.00000000  0.64936200  1
  Pb  Pb13  1  0.20108100  0.50000000  0.55147600  1
  Pb  Pb14  1  0.10179200  0.50000000  0.40176200  1
  Pb  Pb15  1  0.69882800  0.50000000  0.29788500  1
  Pb  Pb16  1  0.79891900  0.50000000  0.44852400  1
  Pb  Pb17  1  0.89892700  0.00000000  0.35063800  1
  Pb  Pb18  1  0.79704600  0.00000000  0.20103300  1
  Pb  Pb19  1  0.00267400  0.50000000  0.25212800  1
  Pb  Pb20  1  0.59482200  0.50000000  0.14465100  1
  Pb  Pb21  1  0.19804300  0.50000000  0.05056400  1
  Pb  Pb22  1  0.70295400  0.50000000  0.79896700  1
  Pb  Pb23  1  0.80195700  0.50000000  0.94943600  1
  Pb  Pb24  1  0.80117200  0.00000000  0.70211500  1
  Pb  Pb25  1  0.90517800  0.00000000  0.85534900  1
  Pb  Pb26  1  0.39820800  0.00000000  0.59823800  1
  Pb  Pb27  1  0.49732600  0.00000000  0.74787200  1
  Pb  Pb28  1  0.50000000  0.50000000  0.50000000  1
  Pb  Pb29  1  0.60107300  0.50000000  0.64936200  1
  Pb  Pb30  1  0.70108100  0.00000000  0.55147600  1
  Pb  Pb31  1  0.60179200  0.00000000  0.40176200  1
  Pb  Pb32  1  0.19882800  0.00000000  0.29788500  1
  Pb  Pb33  1  0.29891900  0.00000000  0.44852400  1
  Pb  Pb34  1  0.39892700  0.50000000  0.35063800  1
  Pb  Pb35  1  0.29704600  0.50000000  0.20103300  1
  Pb  Pb36  1  0.50267400  0.00000000  0.25212800  1
  Pb  Pb37  1  0.09482200  0.00000000  0.14465100  1
  Se  Se38  1  0.54886000  0.00000000  0.07931800  1
  Se  Se39  1  0.15187400  0.00000000  0.97034800  1
  Se  Se40  1  0.24500800  0.50000000  0.87706500  1
  Se  Se41  1  0.84812600  0.00000000  0.02965200  1
  Se  Se42  1  0.45114000  0.00000000  0.92068200  1
  Se  Se43  1  0.34680600  0.00000000  0.77153200  1
  Se  Se44  1  0.95155400  0.00000000  0.67667100  1
  Se  Se45  1  0.05331400  0.00000000  0.83009700  1
  Se  Se46  1  0.04961100  0.50000000  0.57518400  1
  Se  Se47  1  0.14870400  0.50000000  0.72571200  1
  Se  Se48  1  0.24821900  0.00000000  0.62269300  1
  Se  Se49  1  0.14862200  0.00000000  0.47345000  1
  Se  Se50  1  0.85137800  0.00000000  0.52655000  1
  Se  Se51  1  0.75178100  0.00000000  0.37730700  1
  Se  Se52  1  0.95038900  0.50000000  0.42481600  1
  Se  Se53  1  0.85129600  0.50000000  0.27428800  1
  Se  Se54  1  0.04844600  0.00000000  0.32332900  1
  Se  Se55  1  0.94668600  0.00000000  0.16990300  1
  Se  Se56  1  0.65319400  0.00000000  0.22846800  1
  Se  Se57  1  0.75499200  0.50000000  0.12293500  1
  Se  Se58  1  0.04886000  0.50000000  0.07931800  1
  Se  Se59  1  0.65187400  0.50000000  0.97034800  1
  Se  Se60  1  0.74500800  0.00000000  0.87706500  1
  Se  Se61  1  0.34812600  0.50000000  0.02965200  1
  Se  Se62  1  0.95114000  0.50000000  0.92068200  1
  Se  Se63  1  0.84680600  0.50000000  0.77153200  1
  Se  Se64  1  0.45155400  0.50000000  0.67667100  1
  Se  Se65  1  0.55331400  0.50000000  0.83009700  1
  Se  Se66  1  0.54961100  0.00000000  0.57518400  1
  Se  Se67  1  0.64870400  0.00000000  0.72571200  1
  Se  Se68  1  0.74821900  0.50000000  0.62269300  1
  Se  Se69  1  0.64862200  0.50000000  0.47345000  1
  Se  Se70  1  0.35137800  0.50000000  0.52655000  1
  Se  Se71  1  0.25178100  0.50000000  0.37730700  1
  Se  Se72  1  0.45038900  0.00000000  0.42481600  1
  Se  Se73  1  0.35129600  0.00000000  0.27428800  1
  Se  Se74  1  0.54844600  0.50000000  0.32332900  1
  Se  Se75  1  0.44668600  0.50000000  0.16990300  1
  Se  Se76  1  0.15319400  0.50000000  0.22846800  1
  Se  Se77  1  0.25499200  0.00000000  0.12293500  1
