# generated using pymatgen
data_Sm2Th8O19
_symmetry_space_group_name_H-M   'P 1'
_cell_length_a   3.91437800
_cell_length_b   3.91437800
_cell_length_c   27.74481900
_cell_angle_alpha   90.00000000
_cell_angle_beta   90.00000000
_cell_angle_gamma   90.00000000
_symmetry_Int_Tables_number   1
_chemical_formula_structural   Sm2Th8O19
_chemical_formula_sum   'Sm2 Th8 O19'
_cell_volume   425.11596965
_cell_formula_units_Z   1
loop_
 _symmetry_equiv_pos_site_id
 _symmetry_equiv_pos_as_xyz
  1  'x, y, z'
loop_
 _atom_site_type_symbol
 _atom_site_label
 _atom_site_symmetry_multiplicity
 _atom_site_fract_x
 _atom_site_fract_y
 _atom_site_fract_z
 _atom_site_occupancy
  Sm  Sm0  1  0.00000000  0.50000000  0.94485900  1
  Sm  Sm1  1  0.50000000  0.00000000  0.05514100  1
  Th  Th2  1  0.00000000  0.50000000  0.14888400  1
  Th  Th3  1  0.50000000  0.00000000  0.24950400  1
  Th  Th4  1  0.00000000  0.50000000  0.34990100  1
  Th  Th5  1  0.00000000  0.50000000  0.55000800  1
  Th  Th6  1  0.50000000  0.00000000  0.44999200  1
  Th  Th7  1  0.50000000  0.00000000  0.65009900  1
  Th  Th8  1  0.50000000  0.00000000  0.85111600  1
  Th  Th9  1  0.00000000  0.50000000  0.75049600  1
  O  O10  1  0.00000000  0.00000000  0.39995400  1
  O  O11  1  0.50000000  0.50000000  0.50000000  1
  O  O12  1  0.00000000  0.00000000  0.60004600  1
  O  O13  1  0.50000000  0.50000000  0.70006700  1
  O  O14  1  0.00000000  0.00000000  0.80156300  1
  O  O15  1  0.50000000  0.50000000  0.89838000  1
  O  O16  1  0.00000000  0.00000000  0.90446600  1
  O  O17  1  0.50000000  0.50000000  0.00000000  1
  O  O18  1  0.50000000  0.50000000  0.10162000  1
  O  O19  1  0.00000000  0.00000000  0.09553400  1
  O  O20  1  0.00000000  0.00000000  0.19843700  1
  O  O21  1  0.50000000  0.50000000  0.19998600  1
  O  O22  1  0.50000000  0.50000000  0.29993300  1
  O  O23  1  0.00000000  0.00000000  0.29963900  1
  O  O24  1  0.50000000  0.50000000  0.40000100  1
  O  O25  1  0.00000000  0.00000000  0.50000000  1
  O  O26  1  0.50000000  0.50000000  0.59999900  1
  O  O27  1  0.00000000  0.00000000  0.70036100  1
  O  O28  1  0.50000000  0.50000000  0.80001400  1
