# generated using pymatgen
data_TmH3(CO2)3
_symmetry_space_group_name_H-M   'P 1'
_cell_length_a   10.36870395
_cell_length_b   10.36870395
_cell_length_c   3.93861457
_cell_angle_alpha   90.00000000
_cell_angle_beta   90.00000000
_cell_angle_gamma   120.00000000
_symmetry_Int_Tables_number   1
_chemical_formula_structural   TmH3(CO2)3
_chemical_formula_sum   'Tm3 H9 C9 O18'
_cell_volume   366.71026279
_cell_formula_units_Z   3
loop_
 _symmetry_equiv_pos_site_id
 _symmetry_equiv_pos_as_xyz
  1  'x, y, z'
loop_
 _atom_site_type_symbol
 _atom_site_label
 _atom_site_symmetry_multiplicity
 _atom_site_fract_x
 _atom_site_fract_y
 _atom_site_fract_z
 _atom_site_occupancy
  Tm  Tm0  1  0.00000000  0.00000000  0.99975300  1
  Tm  Tm1  1  0.66666667  0.33333333  0.33308633  1
  Tm  Tm2  1  0.33333333  0.66666667  0.66641967  1
  H  H3  1  0.65567933  0.82783967  0.18626767  1
  H  H4  1  0.83882700  0.16117300  0.51960100  1
  H  H5  1  0.17216033  0.34432067  0.18626767  1
  H  H6  1  0.32234600  0.16117300  0.51960100  1
  H  H7  1  0.50549367  0.49450633  0.85293433  1
  H  H8  1  0.83882700  0.67765400  0.51960100  1
  H  H9  1  0.98901267  0.49450633  0.85293433  1
  H  H10  1  0.17216033  0.82783967  0.18626767  1
  H  H11  1  0.50549367  0.01098733  0.85293433  1
  C  C12  1  0.69244267  0.84622133  0.45334133  1
  C  C13  1  0.82044533  0.17955467  0.78667467  1
  C  C14  1  0.15377867  0.30755733  0.45334133  1
  C  C15  1  0.35910933  0.17955467  0.78667467  1
  C  C16  1  0.48711200  0.51288800  0.12000800  1
  C  C17  1  0.82044533  0.64089067  0.78667467  1
  C  C18  1  0.02577600  0.51288800  0.12000800  1
  C  C19  1  0.15377867  0.84622133  0.45334133  1
  C  C20  1  0.48711200  0.97422400  0.12000800  1
  O  O21  1  0.59507400  0.79753700  0.68614600  1
  O  O22  1  0.86912967  0.13087033  0.01947933  1
  O  O23  1  0.20246300  0.40492600  0.68614600  1
  O  O24  1  0.83325933  0.91662967  0.50532767  1
  O  O25  1  0.75003700  0.24996300  0.83866100  1
  O  O26  1  0.08337033  0.16674067  0.50532767  1
  O  O27  1  0.26174067  0.13087033  0.01947933  1
  O  O28  1  0.53579633  0.46420367  0.35281267  1
  O  O29  1  0.86912967  0.73825933  0.01947933  1
  O  O30  1  0.49992600  0.24996300  0.83866100  1
  O  O31  1  0.41670367  0.58329633  0.17199433  1
  O  O32  1  0.75003700  0.50007400  0.83866100  1
  O  O33  1  0.92840733  0.46420367  0.35281267  1
  O  O34  1  0.20246300  0.79753700  0.68614600  1
  O  O35  1  0.53579633  0.07159267  0.35281267  1
  O  O36  1  0.16659267  0.58329633  0.17199433  1
  O  O37  1  0.08337033  0.91662967  0.50532767  1
  O  O38  1  0.41670367  0.83340733  0.17199433  1
