# generated using pymatgen
data_BeH4NF3
_symmetry_space_group_name_H-M   'P 1'
_cell_length_a   5.83048600
_cell_length_b   4.48699300
_cell_length_c   14.22658859
_cell_angle_alpha   90.00000000
_cell_angle_beta   113.77204825
_cell_angle_gamma   90.00000000
_symmetry_Int_Tables_number   1
_chemical_formula_structural   BeH4NF3
_chemical_formula_sum   'Be4 H16 N4 F12'
_cell_volume   340.60910733
_cell_formula_units_Z   4
loop_
 _symmetry_equiv_pos_site_id
 _symmetry_equiv_pos_as_xyz
  1  'x, y, z'
loop_
 _atom_site_type_symbol
 _atom_site_label
 _atom_site_symmetry_multiplicity
 _atom_site_fract_x
 _atom_site_fract_y
 _atom_site_fract_z
 _atom_site_occupancy
  Be  Be0  1  0.05270300  0.18030300  0.32243800  1
  Be  Be1  1  0.05270300  0.81969700  0.82243800  1
  Be  Be2  1  0.96516600  0.68170300  0.18247000  1
  Be  Be3  1  0.96516600  0.31829700  0.68247000  1
  H  H4  1  0.43338700  0.73162700  0.36218500  1
  H  H5  1  0.43338700  0.26837300  0.86218500  1
  H  H6  1  0.69438300  0.52983600  0.38091900  1
  H  H7  1  0.69438300  0.47016400  0.88091900  1
  H  H8  1  0.70190400  0.91798300  0.38010800  1
  H  H9  1  0.70190400  0.08201700  0.88010800  1
  H  H10  1  0.67180700  0.72799700  0.47661800  1
  H  H11  1  0.67180700  0.27200300  0.97661800  1
  H  H12  1  0.56827200  0.23408500  0.13961600  1
  H  H13  1  0.56827200  0.76591500  0.63961600  1
  H  H14  1  0.30174600  0.42931000  0.11851900  1
  H  H15  1  0.30174600  0.57069000  0.61851900  1
  H  H16  1  0.30396300  0.04053600  0.11983300  1
  H  H17  1  0.30396300  0.95946400  0.61983300  1
  H  H18  1  0.33570500  0.22934000  0.02391200  1
  H  H19  1  0.33570500  0.77066000  0.52391200  1
  N  N20  1  0.62553700  0.72722800  0.39905400  1
  N  N21  1  0.62553700  0.27277200  0.89905400  1
  N  N22  1  0.37665900  0.23408600  0.10087300  1
  N  N23  1  0.37665900  0.76591400  0.60087300  1
  F  F24  1  0.04651800  0.83170800  0.29412800  1
  F  F25  1  0.04651800  0.16829200  0.79412800  1
  F  F26  1  0.31341400  0.25640100  0.39510000  1
  F  F27  1  0.31341400  0.74359900  0.89510000  1
  F  F28  1  0.83841800  0.22709800  0.36008200  1
  F  F29  1  0.83841800  0.77290200  0.86008200  1
  F  F30  1  0.96718500  0.33396400  0.21100300  1
  F  F31  1  0.96718500  0.66603600  0.71100300  1
  F  F32  1  0.70928200  0.76089700  0.10631600  1
  F  F33  1  0.70928200  0.23910300  0.60631600  1
  F  F34  1  0.18494900  0.73150400  0.14802700  1
  F  F35  1  0.18494900  0.26849600  0.64802700  1
