# generated using pymatgen
data_In2PbS4
_symmetry_space_group_name_H-M   'P 1'
_cell_length_a   3.89239000
_cell_length_b   12.00549100
_cell_length_c   13.88427600
_cell_angle_alpha   90.00000000
_cell_angle_beta   90.00000000
_cell_angle_gamma   90.00000000
_symmetry_Int_Tables_number   1
_chemical_formula_structural   In2PbS4
_chemical_formula_sum   'In8 Pb4 S16'
_cell_volume   648.81295492
_cell_formula_units_Z   4
loop_
 _symmetry_equiv_pos_site_id
 _symmetry_equiv_pos_as_xyz
  1  'x, y, z'
loop_
 _atom_site_type_symbol
 _atom_site_label
 _atom_site_symmetry_multiplicity
 _atom_site_fract_x
 _atom_site_fract_y
 _atom_site_fract_z
 _atom_site_occupancy
  In  In0  1  0.25000000  0.06217900  0.88782300  1
  In  In1  1  0.25000000  0.56217900  0.61217700  1
  In  In2  1  0.75000000  0.93782100  0.11217700  1
  In  In3  1  0.75000000  0.43782100  0.38782300  1
  In  In4  1  0.25000000  0.58448300  0.09841700  1
  In  In5  1  0.25000000  0.08448300  0.40158300  1
  In  In6  1  0.75000000  0.41551700  0.90158300  1
  In  In7  1  0.75000000  0.91551700  0.59841700  1
  Pb  Pb8  1  0.25000000  0.74575900  0.83708600  1
  Pb  Pb9  1  0.25000000  0.24575900  0.66291400  1
  Pb  Pb10  1  0.75000000  0.25424100  0.16291400  1
  Pb  Pb11  1  0.75000000  0.75424100  0.33708600  1
  S  S12  1  0.25000000  0.59214300  0.42801100  1
  S  S13  1  0.25000000  0.09214300  0.07198900  1
  S  S14  1  0.75000000  0.40785700  0.57198900  1
  S  S15  1  0.75000000  0.90785700  0.92801100  1
  S  S16  1  0.25000000  0.95426300  0.71980600  1
  S  S17  1  0.25000000  0.45426300  0.78019400  1
  S  S18  1  0.75000000  0.04573700  0.28019400  1
  S  S19  1  0.75000000  0.54573700  0.21980600  1
  S  S20  1  0.25000000  0.80035300  0.16447000  1
  S  S21  1  0.25000000  0.30035300  0.33553000  1
  S  S22  1  0.75000000  0.19964700  0.83553000  1
  S  S23  1  0.75000000  0.69964700  0.66447000  1
  S  S24  1  0.25000000  0.87900600  0.46992900  1
  S  S25  1  0.25000000  0.37900600  0.03007100  1
  S  S26  1  0.75000000  0.12099400  0.53007100  1
  S  S27  1  0.75000000  0.62099400  0.96992900  1
