# generated using pymatgen
data_Sr4NdNb2Al3O15
_symmetry_space_group_name_H-M   'P 1'
_cell_length_a   5.52837780
_cell_length_b   5.52837780
_cell_length_c   67.85428062
_cell_angle_alpha   90.00000000
_cell_angle_beta   90.00000000
_cell_angle_gamma   120.00000000
_symmetry_Int_Tables_number   1
_chemical_formula_structural   Sr4NdNb2Al3O15
_chemical_formula_sum   'Sr24 Nd6 Nb12 Al18 O90'
_cell_volume   1795.98750711
_cell_formula_units_Z   6
loop_
 _symmetry_equiv_pos_site_id
 _symmetry_equiv_pos_as_xyz
  1  'x, y, z'
loop_
 _atom_site_type_symbol
 _atom_site_label
 _atom_site_symmetry_multiplicity
 _atom_site_fract_x
 _atom_site_fract_y
 _atom_site_fract_z
 _atom_site_occupancy
  Sr  Sr0  1  0.00000000  0.00000000  0.04794400  1
  Sr  Sr1  1  0.33333333  0.66666667  0.11652367  1
  Sr  Sr2  1  0.66666667  0.33333333  0.08308533  1
  Sr  Sr3  1  0.66666667  0.33333333  0.18333433  1
  Sr  Sr4  1  0.00000000  0.00000000  0.14999900  1
  Sr  Sr5  1  0.00000000  0.00000000  0.25024800  1
  Sr  Sr6  1  0.33333333  0.66666667  0.21680967  1
  Sr  Sr7  1  0.66666667  0.33333333  0.28538933  1
  Sr  Sr8  1  0.66666667  0.33333333  0.38127733  1
  Sr  Sr9  1  0.00000000  0.00000000  0.44985700  1
  Sr  Sr10  1  0.33333333  0.66666667  0.41641867  1
  Sr  Sr11  1  0.33333333  0.66666667  0.51666767  1
  Sr  Sr12  1  0.66666667  0.33333333  0.48333233  1
  Sr  Sr13  1  0.66666667  0.33333333  0.58358133  1
  Sr  Sr14  1  0.00000000  0.00000000  0.55014300  1
  Sr  Sr15  1  0.33333333  0.66666667  0.61872267  1
  Sr  Sr16  1  0.33333333  0.66666667  0.71461067  1
  Sr  Sr17  1  0.66666667  0.33333333  0.78319033  1
  Sr  Sr18  1  0.00000000  0.00000000  0.74975200  1
  Sr  Sr19  1  0.00000000  0.00000000  0.85000100  1
  Sr  Sr20  1  0.33333333  0.66666667  0.81666567  1
  Sr  Sr21  1  0.33333333  0.66666667  0.91691467  1
  Sr  Sr22  1  0.66666667  0.33333333  0.88347633  1
  Sr  Sr23  1  0.00000000  0.00000000  0.95205600  1
  Nd  Nd24  1  0.33333333  0.66666667  0.31911667  1
  Nd  Nd25  1  0.33333333  0.66666667  0.01421667  1
  Nd  Nd26  1  0.00000000  0.00000000  0.65245000  1
  Nd  Nd27  1  0.00000000  0.00000000  0.34755000  1
  Nd  Nd28  1  0.66666667  0.33333333  0.98578333  1
  Nd  Nd29  1  0.66666667  0.33333333  0.68088333  1
  Nb  Nb30  1  0.33333333  0.66666667  0.06622067  1
  Nb  Nb31  1  0.66666667  0.33333333  0.13327133  1
  Nb  Nb32  1  0.00000000  0.00000000  0.20006200  1
  Nb  Nb33  1  0.33333333  0.66666667  0.26711267  1
  Nb  Nb34  1  0.00000000  0.00000000  0.39955400  1
  Nb  Nb35  1  0.33333333  0.66666667  0.46660467  1
  Nb  Nb36  1  0.66666667  0.33333333  0.53339533  1
  Nb  Nb37  1  0.00000000  0.00000000  0.60044600  1
  Nb  Nb38  1  0.66666667  0.33333333  0.73288733  1
  Nb  Nb39  1  0.00000000  0.00000000  0.79993800  1
  Nb  Nb40  1  0.33333333  0.66666667  0.86672867  1
  Nb  Nb41  1  0.66666667  0.33333333  0.93377933  1
  Al  Al42  1  0.66666667  0.33333333  0.03220433  1
  Al  Al43  1  0.00000000  0.00000000  0.09966900  1
  Al  Al44  1  0.33333333  0.66666667  0.16666667  1
  Al  Al45  1  0.66666667  0.33333333  0.23366433  1
  Al  Al46  1  0.00000000  0.00000000  0.30112900  1
  Al  Al47  1  0.00000000  0.00000000  0.00000000  1
  Al  Al48  1  0.33333333  0.66666667  0.36553767  1
  Al  Al49  1  0.66666667  0.33333333  0.43300233  1
  Al  Al50  1  1.00000000  1.00000000  0.50000000  1
  Al  Al51  1  0.33333333  0.66666667  0.56699767  1
  Al  Al52  1  0.66666667  0.33333333  0.63446233  1
  Al  Al53  1  0.66666667  0.33333333  0.33333333  1
  Al  Al54  1  0.00000000  0.00000000  0.69887100  1
  Al  Al55  1  0.33333333  0.66666667  0.76633567  1
  Al  Al56  1  0.66666667  0.33333333  0.83333333  1
  Al  Al57  1  0.00000000  0.00000000  0.90033100  1
  Al  Al58  1  0.33333333  0.66666667  0.96779567  1
  Al  Al59  1  0.33333333  0.66666667  0.66666667  1
  O  O60  1  0.16344667  0.83655333  0.08334233  1
  O  O61  1  0.99486133  0.49743067  0.04847867  1
  O  O62  1  0.50256933  0.00513867  0.04847867  1
  O  O63  1  0.16344667  0.32689333  0.08334233  1
  O  O64  1  0.32549533  0.16274767  0.11619667  1
  O  O65  1  0.49625367  0.50374633  0.15036833  1
  O  O66  1  0.67310667  0.83655333  0.08334233  1
  O  O67  1  0.50256933  0.49743067  0.04847867  1
  O  O68  1  0.83725233  0.67450467  0.11619667  1
  O  O69  1  0.49625367  0.99250733  0.15036833  1
  O  O70  1  0.65917400  0.82958700  0.18296500  1
  O  O71  1  0.82941433  0.17058567  0.21713667  1
  O  O72  1  0.83725233  0.16274767  0.11619667  1
  O  O73  1  0.00749267  0.50374633  0.15036833  1
  O  O74  1  0.17041300  0.34082600  0.18296500  1
  O  O75  1  0.82941433  0.65882867  0.21713667  1
  O  O76  1  0.99356000  0.49678000  0.24999100  1
  O  O77  1  0.16409733  0.83590267  0.28485467  1
  O  O78  1  0.17041300  0.82958700  0.18296500  1
  O  O79  1  0.34117133  0.17058567  0.21713667  1
  O  O80  1  0.50322000  0.00644000  0.24999100  1
  O  O81  1  0.16409733  0.32819467  0.28485467  1
  O  O82  1  0.32669733  0.16334867  0.31786367  1
  O  O83  1  0.83001533  0.16998467  0.01546967  1
  O  O84  1  0.67180533  0.83590267  0.28485467  1
  O  O85  1  0.50322000  0.49678000  0.24999100  1
  O  O86  1  0.83665133  0.67330267  0.31786367  1
  O  O87  1  0.83001533  0.66003067  0.01546967  1
  O  O88  1  0.83665133  0.16334867  0.31786367  1
  O  O89  1  0.33996933  0.16998467  0.01546967  1
  O  O90  1  0.83011333  0.16988667  0.41667567  1
  O  O91  1  0.66152800  0.83076400  0.38181200  1
  O  O92  1  0.16923600  0.33847200  0.38181200  1
  O  O93  1  0.83011333  0.66022667  0.41667567  1
  O  O94  1  0.99216200  0.49608100  0.44953000  1
  O  O95  1  0.16292033  0.83707967  0.48370167  1
  O  O96  1  0.33977333  0.16988667  0.41667567  1
  O  O97  1  0.16923600  0.83076400  0.38181200  1
  O  O98  1  0.50391900  0.00783800  0.44953000  1
  O  O99  1  0.16292033  0.32584067  0.48370167  1
  O  O100  1  0.32584067  0.16292033  0.51629833  1
  O  O101  1  0.49608100  0.50391900  0.55047000  1
  O  O102  1  0.50391900  0.49608100  0.44953000  1
  O  O103  1  0.67415933  0.83707967  0.48370167  1
  O  O104  1  0.83707967  0.67415933  0.51629833  1
  O  O105  1  0.49608100  0.99216200  0.55047000  1
  O  O106  1  0.66022667  0.83011333  0.58332433  1
  O  O107  1  0.83076400  0.16923600  0.61818800  1
  O  O108  1  0.83707967  0.16292033  0.51629833  1
  O  O109  1  0.00783800  0.50391900  0.55047000  1
  O  O110  1  0.16988667  0.33977333  0.58332433  1
  O  O111  1  0.83076400  0.66152800  0.61818800  1
  O  O112  1  0.99336400  0.49668200  0.65119700  1
  O  O113  1  0.49668200  0.50331800  0.34880300  1
  O  O114  1  0.33847200  0.16923600  0.61818800  1
  O  O115  1  0.16988667  0.83011333  0.58332433  1
  O  O116  1  0.50331800  0.00663600  0.65119700  1
  O  O117  1  0.49668200  0.99336400  0.34880300  1
  O  O118  1  0.50331800  0.49668200  0.65119700  1
  O  O119  1  0.00663600  0.50331800  0.34880300  1
  O  O120  1  0.49678000  0.50322000  0.75000900  1
  O  O121  1  0.32819467  0.16409733  0.71514533  1
  O  O122  1  0.83590267  0.67180533  0.71514533  1
  O  O123  1  0.49678000  0.99356000  0.75000900  1
  O  O124  1  0.65882867  0.82941433  0.78286333  1
  O  O125  1  0.82958700  0.17041300  0.81703500  1
  O  O126  1  0.00644000  0.50322000  0.75000900  1
  O  O127  1  0.83590267  0.16409733  0.71514533  1
  O  O128  1  0.17058567  0.34117133  0.78286333  1
  O  O129  1  0.82958700  0.65917400  0.81703500  1
  O  O130  1  0.99250733  0.49625367  0.84963167  1
  O  O131  1  0.16274767  0.83725233  0.88380333  1
  O  O132  1  0.17058567  0.82941433  0.78286333  1
  O  O133  1  0.34082600  0.17041300  0.81703500  1
  O  O134  1  0.50374633  0.00749267  0.84963167  1
  O  O135  1  0.16274767  0.32549533  0.88380333  1
  O  O136  1  0.32689333  0.16344667  0.91665767  1
  O  O137  1  0.49743067  0.50256933  0.95152133  1
  O  O138  1  0.50374633  0.49625367  0.84963167  1
  O  O139  1  0.67450467  0.83725233  0.88380333  1
  O  O140  1  0.83655333  0.67310667  0.91665767  1
  O  O141  1  0.49743067  0.99486133  0.95152133  1
  O  O142  1  0.66003067  0.83001533  0.98453033  1
  O  O143  1  0.16334867  0.83665133  0.68213633  1
  O  O144  1  0.00513867  0.50256933  0.95152133  1
  O  O145  1  0.83655333  0.16344667  0.91665767  1
  O  O146  1  0.16998467  0.33996933  0.98453033  1
  O  O147  1  0.16334867  0.32669733  0.68213633  1
  O  O148  1  0.16998467  0.83001533  0.98453033  1
  O  O149  1  0.67330267  0.83665133  0.68213633  1
