# generated using pymatgen
data_Sr22Nb10O47
_symmetry_space_group_name_H-M   'P 1'
_cell_length_a   5.96108800
_cell_length_b   6.01978915
_cell_length_c   40.04782024
_cell_angle_alpha   90.09050353
_cell_angle_beta   90.11539620
_cell_angle_gamma   118.31485326
_symmetry_Int_Tables_number   1
_chemical_formula_structural   Sr22Nb10O47
_chemical_formula_sum   'Sr22 Nb10 O47'
_cell_volume   1265.14576160
_cell_formula_units_Z   1
loop_
 _symmetry_equiv_pos_site_id
 _symmetry_equiv_pos_as_xyz
  1  'x, y, z'
loop_
 _atom_site_type_symbol
 _atom_site_label
 _atom_site_symmetry_multiplicity
 _atom_site_fract_x
 _atom_site_fract_y
 _atom_site_fract_z
 _atom_site_occupancy
  Sr  Sr0  1  0.43463400  0.77389900  0.03657600  1
  Sr  Sr1  1  0.74804400  0.41545400  0.13753000  1
  Sr  Sr2  1  0.75694100  0.39871300  0.05093400  1
  Sr  Sr3  1  0.07215100  0.07386200  0.09773900  1
  Sr  Sr4  1  0.08281100  0.93849600  0.27560000  1
  Sr  Sr5  1  0.07857500  0.05606700  0.18459900  1
  Sr  Sr6  1  0.43131100  0.73518100  0.20620600  1
  Sr  Sr7  1  0.51489200  0.56885700  0.41318100  1
  Sr  Sr8  1  0.80646500  0.18500200  0.34818700  1
  Sr  Sr9  1  0.88042800  0.26576000  0.51839100  1
  Sr  Sr10  1  0.85654400  0.22933800  0.43425100  1
  Sr  Sr11  1  0.20364700  0.91380100  0.47630700  1
  Sr  Sr12  1  0.21742400  0.81195700  0.65321300  1
  Sr  Sr13  1  0.20968100  0.90800500  0.56282800  1
  Sr  Sr14  1  0.66172100  0.41928800  0.79045500  1
  Sr  Sr15  1  0.56844100  0.59730200  0.58462800  1
  Sr  Sr16  1  0.93339300  0.05474800  0.72554300  1
  Sr  Sr17  1  0.01339700  0.10657400  0.89918300  1
  Sr  Sr18  1  0.98777700  0.08517800  0.81260300  1
  Sr  Sr19  1  0.33756500  0.76465600  0.85643700  1
  Sr  Sr20  1  0.32528900  0.73389500  0.94410300  1
  Sr  Sr21  1  0.65015200  0.40535600  0.95917600  1
  Nb  Nb22  1  0.04209300  0.00742600  0.99648600  1
  Nb  Nb23  1  0.41201800  0.73842400  0.11896400  1
  Nb  Nb24  1  0.75169800  0.36180200  0.23669500  1
  Nb  Nb25  1  0.45606600  0.54263800  0.31640600  1
  Nb  Nb26  1  0.15719100  0.86778800  0.37209300  1
  Nb  Nb27  1  0.54168200  0.58346400  0.49765300  1
  Nb  Nb28  1  0.88611500  0.22874500  0.61513000  1
  Nb  Nb29  1  0.58927200  0.41721200  0.69418100  1
  Nb  Nb30  1  0.28277600  0.73661100  0.74895400  1
  Nb  Nb31  1  0.67206000  0.43252900  0.87514500  1
  O  O32  1  0.64527700  0.65714500  0.08838100  1
  O  O33  1  0.41544900  0.15131400  0.00804400  1
  O  O34  1  0.11679600  0.51730300  0.08756000  1
  O  O35  1  0.81948900  0.07808200  0.23132900  1
  O  O36  1  0.93445300  0.09442600  0.03622400  1
  O  O37  1  0.47986200  0.04137900  0.08695100  1
  O  O38  1  0.71824200  0.97755900  0.14614800  1
  O  O39  1  0.33088600  0.43592000  0.14793300  1
  O  O40  1  0.38374900  0.11521600  0.22875700  1
  O  O41  1  0.41086200  0.82730600  0.33021800  1
  O  O42  1  0.76731900  0.54866400  0.19794700  1
  O  O43  1  0.17882400  0.81773900  0.14535500  1
  O  O44  1  0.10068000  0.58632400  0.24798400  1
  O  O45  1  0.12730800  0.33071000  0.30372800  1
  O  O46  1  0.92236600  0.82596100  0.33437500  1
  O  O47  1  0.78892900  0.51766200  0.46904100  1
  O  O48  1  0.45297700  0.34768300  0.35303000  1
  O  O49  1  0.64022900  0.50980400  0.27722800  1
  O  O50  1  0.47022600  0.03911200  0.39796100  1
  O  O51  1  0.24938400  0.34269400  0.46548300  1
  O  O52  1  0.06138900  0.53884700  0.38773100  1
  O  O53  1  0.95894800  0.94808500  0.60950400  1
  O  O54  1  0.58922100  0.86479800  0.46601600  1
  O  O55  1  0.94965000  0.95169500  0.39957400  1
  O  O56  1  0.84012200  0.82621900  0.52590100  1
  O  O57  1  0.46030500  0.27885400  0.52662000  1
  O  O58  1  0.52069100  0.97914500  0.60652200  1
  O  O59  1  0.53204700  0.69784000  0.70818800  1
  O  O60  1  0.89858000  0.41660900  0.57668000  1
  O  O61  1  0.30209400  0.65899200  0.52384300  1
  O  O62  1  0.23390100  0.45722000  0.62623100  1
  O  O63  1  0.26010400  0.20331500  0.68166500  1
  O  O64  1  0.03930000  0.69021900  0.71100600  1
  O  O65  1  0.91963100  0.37521200  0.84632800  1
  O  O66  1  0.76712500  0.37491600  0.65491400  1
  O  O67  1  0.58172900  0.21985400  0.73069800  1
  O  O68  1  0.58868800  0.91010700  0.77623800  1
  O  O69  1  0.16590200  0.40829900  0.76595300  1
  O  O70  1  0.37883300  0.19069000  0.84455000  1
  O  O71  1  0.04079500  0.67483300  0.99707800  1
  O  O72  1  0.72327800  0.71647100  0.84415400  1
  O  O73  1  0.07200800  0.82935100  0.77454900  1
  O  O74  1  0.97191900  0.66558000  0.90495200  1
  O  O75  1  0.59596400  0.12757500  0.90598100  1
  O  O76  1  0.67828900  0.80158400  0.98031500  1
  O  O77  1  0.43691500  0.51577100  0.90158000  1
  O  O78  1  0.14042000  0.23207900  0.95838000  1
