# generated using pymatgen
data_KNb(CuSe2)2
_symmetry_space_group_name_H-M   'P 1'
_cell_length_a   5.72738200
_cell_length_b   19.22917600
_cell_length_c   7.79359100
_cell_angle_alpha   90.00000000
_cell_angle_beta   90.00000000
_cell_angle_gamma   90.00000000
_symmetry_Int_Tables_number   1
_chemical_formula_structural   KNb(CuSe2)2
_chemical_formula_sum   'K4 Nb4 Cu8 Se16'
_cell_volume   858.33028333
_cell_formula_units_Z   4
loop_
 _symmetry_equiv_pos_site_id
 _symmetry_equiv_pos_as_xyz
  1  'x, y, z'
loop_
 _atom_site_type_symbol
 _atom_site_label
 _atom_site_symmetry_multiplicity
 _atom_site_fract_x
 _atom_site_fract_y
 _atom_site_fract_z
 _atom_site_occupancy
  K  K0  1  0.73992150  0.81621550  0.75000000  1
  K  K1  1  0.23992150  0.68378450  0.25000000  1
  K  K2  1  0.23992150  0.31621550  0.75000000  1
  K  K3  1  0.73992150  0.18378450  0.25000000  1
  Nb  Nb4  1  0.49970650  0.89097650  0.25000000  1
  Nb  Nb5  1  0.99970650  0.60902350  0.75000000  1
  Nb  Nb6  1  0.99970650  0.39097650  0.25000000  1
  Nb  Nb7  1  0.49970650  0.10902350  0.75000000  1
  Cu  Cu8  1  0.00008900  0.89342400  0.25000000  1
  Cu  Cu9  1  0.50008900  0.60657600  0.75000000  1
  Cu  Cu10  1  0.48373000  0.00000000  0.50000000  1
  Cu  Cu11  1  0.48373000  0.00000000  0.00000000  1
  Cu  Cu12  1  0.50008900  0.39342400  0.25000000  1
  Cu  Cu13  1  0.00008900  0.10657600  0.75000000  1
  Cu  Cu14  1  0.98373000  0.50000000  0.50000000  1
  Cu  Cu15  1  0.98373000  0.50000000  0.00000000  1
  Se  Se16  1  0.74625550  0.99699550  0.25000000  1
  Se  Se17  1  0.75079800  0.60680000  0.49439100  1
  Se  Se18  1  0.25173200  0.71068600  0.75000000  1
  Se  Se19  1  0.24625550  0.50300450  0.75000000  1
  Se  Se20  1  0.75173200  0.78931400  0.25000000  1
  Se  Se21  1  0.75079800  0.60680000  0.00560900  1
  Se  Se22  1  0.25079800  0.89320000  0.99439100  1
  Se  Se23  1  0.25079800  0.89320000  0.50560900  1
  Se  Se24  1  0.24625550  0.49699550  0.25000000  1
  Se  Se25  1  0.25079800  0.10680000  0.49439100  1
  Se  Se26  1  0.75173200  0.21068600  0.75000000  1
  Se  Se27  1  0.74625550  0.00300450  0.75000000  1
  Se  Se28  1  0.25173200  0.28931400  0.25000000  1
  Se  Se29  1  0.25079800  0.10680000  0.00560900  1
  Se  Se30  1  0.75079800  0.39320000  0.99439100  1
  Se  Se31  1  0.75079800  0.39320000  0.50560900  1
