# generated using pymatgen
data_H5C2NO
_symmetry_space_group_name_H-M   'P 1'
_cell_length_a   11.60433960
_cell_length_b   11.60433960
_cell_length_c   13.87646575
_cell_angle_alpha   90.00000000
_cell_angle_beta   90.00000000
_cell_angle_gamma   120.00000000
_symmetry_Int_Tables_number   1
_chemical_formula_structural   H5C2NO
_chemical_formula_sum   'H90 C36 N18 O18'
_cell_volume   1618.26767542
_cell_formula_units_Z   18
loop_
 _symmetry_equiv_pos_site_id
 _symmetry_equiv_pos_as_xyz
  1  'x, y, z'
loop_
 _atom_site_type_symbol
 _atom_site_label
 _atom_site_symmetry_multiplicity
 _atom_site_fract_x
 _atom_site_fract_y
 _atom_site_fract_z
 _atom_site_occupancy
  H  H0  1  0.57860433  0.76224367  0.60227367  1
  H  H1  1  0.23775633  0.81636067  0.60227367  1
  H  H2  1  0.18363933  0.42139567  0.60227367  1
  H  H3  1  0.24527100  0.14969400  0.43560700  1
  H  H4  1  0.85030600  0.09557700  0.43560700  1
  H  H5  1  0.90442300  0.75472900  0.43560700  1
  H  H6  1  0.82845667  0.25444333  0.28503033  1
  H  H7  1  0.74555667  0.57401333  0.28503033  1
  H  H8  1  0.42598667  0.17154333  0.28503033  1
  H  H9  1  0.16179000  0.24068000  0.45169700  1
  H  H10  1  0.75932000  0.92111000  0.45169700  1
  H  H11  1  0.07889000  0.83821000  0.45169700  1
  H  H12  1  0.05024233  0.19124167  0.26153767  1
  H  H13  1  0.80875833  0.85900067  0.26153767  1
  H  H14  1  0.14099933  0.94975767  0.26153767  1
  H  H15  1  0.05024233  0.85900067  0.76153767  1
  H  H16  1  0.14099933  0.19124167  0.76153767  1
  H  H17  1  0.80875833  0.94975767  0.76153767  1
  H  H18  1  0.88942367  0.11644133  0.21033733  1
  H  H19  1  0.88355867  0.77298233  0.21033733  1
  H  H20  1  0.22701767  0.11057633  0.21033733  1
  H  H21  1  0.88942367  0.77298233  0.71033733  1
  H  H22  1  0.22701767  0.11644133  0.71033733  1
  H  H23  1  0.88355867  0.11057633  0.71033733  1
  H  H24  1  0.69954600  0.51808900  0.46721700  1
  H  H25  1  0.48191100  0.18145700  0.46721700  1
  H  H26  1  0.81854300  0.30045400  0.46721700  1
  H  H27  1  0.03287933  0.84812367  0.63388367  1
  H  H28  1  0.15187633  0.18475567  0.63388367  1
  H  H29  1  0.81524433  0.96712067  0.63388367  1
  H  H30  1  0.24527100  0.09557700  0.93560700  1
  H  H31  1  0.90442300  0.14969400  0.93560700  1
  H  H32  1  0.85030600  0.75472900  0.93560700  1
  H  H33  1  0.91193767  0.48302733  0.76894033  1
  H  H34  1  0.51697267  0.42891033  0.76894033  1
  H  H35  1  0.57108967  0.08806233  0.76894033  1
  H  H36  1  0.49512333  0.58777667  0.61836367  1
  H  H37  1  0.41222333  0.90734667  0.61836367  1
  H  H38  1  0.09265333  0.50487667  0.61836367  1
  H  H39  1  0.82845667  0.57401333  0.78503033  1
  H  H40  1  0.42598667  0.25444333  0.78503033  1
  H  H41  1  0.74555667  0.17154333  0.78503033  1
  H  H42  1  0.71690900  0.52457500  0.59487100  1
  H  H43  1  0.47542500  0.19233400  0.59487100  1
  H  H44  1  0.80766600  0.28309100  0.59487100  1
  H  H45  1  0.71690900  0.19233400  0.09487100  1
  H  H46  1  0.80766600  0.52457500  0.09487100  1
  H  H47  1  0.47542500  0.28309100  0.09487100  1
  H  H48  1  0.55609033  0.44977467  0.54367067  1
  H  H49  1  0.55022533  0.10631567  0.54367067  1
  H  H50  1  0.89368433  0.44390967  0.54367067  1
  H  H51  1  0.55609033  0.10631567  0.04367067  1
  H  H52  1  0.89368433  0.44977467  0.04367067  1
  H  H53  1  0.55022533  0.44390967  0.04367067  1
  H  H54  1  0.36621267  0.85142233  0.80055033  1
  H  H55  1  0.14857767  0.51479033  0.80055033  1
  H  H56  1  0.48520967  0.63378733  0.80055033  1
  H  H57  1  0.69954600  0.18145700  0.96721700  1
  H  H58  1  0.81854300  0.51808900  0.96721700  1
  H  H59  1  0.48191100  0.30045400  0.96721700  1
  H  H60  1  0.91193767  0.42891033  0.26894033  1
  H  H61  1  0.57108967  0.48302733  0.26894033  1
  H  H62  1  0.51697267  0.08806233  0.26894033  1
  H  H63  1  0.57860433  0.81636067  0.10227367  1
  H  H64  1  0.18363933  0.76224367  0.10227367  1
  H  H65  1  0.23775633  0.42139567  0.10227367  1
  H  H66  1  0.16179000  0.92111000  0.95169700  1
  H  H67  1  0.07889000  0.24068000  0.95169700  1
  H  H68  1  0.75932000  0.83821000  0.95169700  1
  H  H69  1  0.49512333  0.90734667  0.11836367  1
  H  H70  1  0.09265333  0.58777667  0.11836367  1
  H  H71  1  0.41222333  0.50487667  0.11836367  1
  H  H72  1  0.38357567  0.85790833  0.92820433  1
  H  H73  1  0.14209167  0.52566733  0.92820433  1
  H  H74  1  0.47433267  0.61642433  0.92820433  1
  H  H75  1  0.38357567  0.52566733  0.42820433  1
  H  H76  1  0.47433267  0.85790833  0.42820433  1
  H  H77  1  0.14209167  0.61642433  0.42820433  1
  H  H78  1  0.22275700  0.78310800  0.87700400  1
  H  H79  1  0.21689200  0.43964900  0.87700400  1
  H  H80  1  0.56035100  0.77724300  0.87700400  1
  H  H81  1  0.22275700  0.43964900  0.37700400  1
  H  H82  1  0.56035100  0.78310800  0.37700400  1
  H  H83  1  0.21689200  0.77724300  0.37700400  1
  H  H84  1  0.03287933  0.18475567  0.13388367  1
  H  H85  1  0.81524433  0.84812367  0.13388367  1
  H  H86  1  0.15187633  0.96712067  0.13388367  1
  H  H87  1  0.36621267  0.51479033  0.30055033  1
  H  H88  1  0.48520967  0.85142233  0.30055033  1
  H  H89  1  0.14857767  0.63378733  0.30055033  1
  C  C90  1  0.99200767  0.19791933  0.20134733  1
  C  C91  1  0.80208067  0.79408833  0.20134733  1
  C  C92  1  0.20591167  0.00799233  0.20134733  1
  C  C93  1  0.99200767  0.79408833  0.70134733  1
  C  C94  1  0.20591167  0.19791933  0.70134733  1
  C  C95  1  0.80208067  0.00799233  0.70134733  1
  C  C96  1  0.66705700  0.66549900  0.53762900  1
  C  C97  1  0.33450100  0.00155800  0.53762900  1
  C  C98  1  0.99844200  0.33294300  0.53762900  1
  C  C99  1  0.33372367  0.33489133  0.37096233  1
  C  C100  1  0.66510867  0.99883233  0.37096233  1
  C  C101  1  0.00116767  0.66627633  0.37096233  1
  C  C102  1  0.65867433  0.53125267  0.53468067  1
  C  C103  1  0.46874733  0.12742167  0.53468067  1
  C  C104  1  0.87257833  0.34132567  0.53468067  1
  C  C105  1  0.65867433  0.12742167  0.03468067  1
  C  C106  1  0.87257833  0.53125267  0.03468067  1
  C  C107  1  0.46874733  0.34132567  0.03468067  1
  C  C108  1  0.33372367  0.99883233  0.87096233  1
  C  C109  1  0.00116767  0.33489133  0.87096233  1
  C  C110  1  0.66510867  0.66627633  0.87096233  1
  C  C111  1  0.00039033  0.66822467  0.70429567  1
  C  C112  1  0.33177533  0.33216567  0.70429567  1
  C  C113  1  0.66783433  0.99960967  0.70429567  1
  C  C114  1  0.32534100  0.86458600  0.86801400  1
  C  C115  1  0.13541400  0.46075500  0.86801400  1
  C  C116  1  0.53924500  0.67465900  0.86801400  1
  C  C117  1  0.32534100  0.46075500  0.36801400  1
  C  C118  1  0.53924500  0.86458600  0.36801400  1
  C  C119  1  0.13541400  0.67465900  0.36801400  1
  C  C120  1  0.00039033  0.33216567  0.20429567  1
  C  C121  1  0.66783433  0.66822467  0.20429567  1
  C  C122  1  0.33177533  0.99960967  0.20429567  1
  C  C123  1  0.66705700  0.00155800  0.03762900  1
  C  C124  1  0.99844200  0.66549900  0.03762900  1
  C  C125  1  0.33450100  0.33294300  0.03762900  1
  N  N126  1  0.57155967  0.67185733  0.58740533  1
  N  N127  1  0.32814267  0.89970233  0.58740533  1
  N  N128  1  0.10029767  0.42844033  0.58740533  1
  N  N129  1  0.23822633  0.23303567  0.42073867  1
  N  N130  1  0.76696433  0.00519067  0.42073867  1
  N  N131  1  0.99480933  0.76177367  0.42073867  1
  N  N132  1  0.23822633  0.00519067  0.92073867  1
  N  N133  1  0.99480933  0.23303567  0.92073867  1
  N  N134  1  0.76696433  0.76177367  0.92073867  1
  N  N135  1  0.90489300  0.56636900  0.75407200  1
  N  N136  1  0.43363100  0.33852400  0.75407200  1
  N  N137  1  0.66147600  0.09510700  0.75407200  1
  N  N138  1  0.90489300  0.33852400  0.25407200  1
  N  N139  1  0.66147600  0.56636900  0.25407200  1
  N  N140  1  0.43363100  0.09510700  0.25407200  1
  N  N141  1  0.57155967  0.89970233  0.08740533  1
  N  N142  1  0.10029767  0.67185733  0.08740533  1
  N  N143  1  0.32814267  0.42844033  0.08740533  1
  O  O144  1  0.76100567  0.76571433  0.49678933  1
  O  O145  1  0.23428567  0.99529133  0.49678933  1
  O  O146  1  0.00470867  0.23899433  0.49678933  1
  O  O147  1  0.42767233  0.32862467  0.33012267  1
  O  O148  1  0.67137533  0.09904767  0.33012267  1
  O  O149  1  0.90095233  0.57232767  0.33012267  1
  O  O150  1  0.42767233  0.09904767  0.83012267  1
  O  O151  1  0.90095233  0.32862467  0.83012267  1
  O  O152  1  0.67137533  0.57232767  0.83012267  1
  O  O153  1  0.09433900  0.66195800  0.66345600  1
  O  O154  1  0.33804200  0.43238100  0.66345600  1
  O  O155  1  0.56761900  0.90566100  0.66345600  1
  O  O156  1  0.09433900  0.43238100  0.16345600  1
  O  O157  1  0.56761900  0.66195800  0.16345600  1
  O  O158  1  0.33804200  0.90566100  0.16345600  1
  O  O159  1  0.76100567  0.99529133  0.99678933  1
  O  O160  1  0.00470867  0.76571433  0.99678933  1
  O  O161  1  0.23428567  0.23899433  0.99678933  1
