# generated using pymatgen
data_Ba2TbNbO6
_symmetry_space_group_name_H-M   'P 1'
_cell_length_a   6.04099400
_cell_length_b   6.04099400
_cell_length_c   8.61435600
_cell_angle_alpha   90.00000000
_cell_angle_beta   90.00000000
_cell_angle_gamma   90.00000000
_symmetry_Int_Tables_number   1
_chemical_formula_structural   Ba2TbNbO6
_chemical_formula_sum   'Ba4 Tb2 Nb2 O12'
_cell_volume   314.36893541
_cell_formula_units_Z   2
loop_
 _symmetry_equiv_pos_site_id
 _symmetry_equiv_pos_as_xyz
  1  'x, y, z'
loop_
 _atom_site_type_symbol
 _atom_site_label
 _atom_site_symmetry_multiplicity
 _atom_site_fract_x
 _atom_site_fract_y
 _atom_site_fract_z
 _atom_site_occupancy
  Ba  Ba0  1  0.50000000  0.00000000  0.25000000  1
  Ba  Ba1  1  0.00000000  0.50000000  0.25000000  1
  Ba  Ba2  1  0.00000000  0.50000000  0.75000000  1
  Ba  Ba3  1  0.50000000  0.00000000  0.75000000  1
  Tb  Tb4  1  0.00000000  0.00000000  0.00000000  1
  Tb  Tb5  1  0.50000000  0.50000000  0.50000000  1
  Nb  Nb6  1  0.50000000  0.50000000  0.00000000  1
  Nb  Nb7  1  0.00000000  0.00000000  0.50000000  1
  O  O8  1  0.76825050  0.70287750  0.00000000  1
  O  O9  1  0.29712250  0.76825050  0.00000000  1
  O  O10  1  0.70287750  0.23174950  0.00000000  1
  O  O11  1  0.73174950  0.79712250  0.50000000  1
  O  O12  1  0.00000000  0.00000000  0.26392300  1
  O  O13  1  0.50000000  0.50000000  0.23607700  1
  O  O14  1  0.26825050  0.20287750  0.50000000  1
  O  O15  1  0.79712250  0.26825050  0.50000000  1
  O  O16  1  0.20287750  0.73174950  0.50000000  1
  O  O17  1  0.23174950  0.29712250  0.00000000  1
  O  O18  1  0.50000000  0.50000000  0.76392300  1
  O  O19  1  0.00000000  0.00000000  0.73607700  1
