# generated using pymatgen
data_Y2GeI2
_symmetry_space_group_name_H-M   'P 1'
_cell_length_a   4.26322020
_cell_length_b   4.26322020
_cell_length_c   32.21123580
_cell_angle_alpha   90.00000000
_cell_angle_beta   90.00000000
_cell_angle_gamma   120.00000000
_symmetry_Int_Tables_number   1
_chemical_formula_structural   Y2GeI2
_chemical_formula_sum   'Y6 Ge3 I6'
_cell_volume   507.00652544
_cell_formula_units_Z   3
loop_
 _symmetry_equiv_pos_site_id
 _symmetry_equiv_pos_as_xyz
  1  'x, y, z'
loop_
 _atom_site_type_symbol
 _atom_site_label
 _atom_site_symmetry_multiplicity
 _atom_site_fract_x
 _atom_site_fract_y
 _atom_site_fract_z
 _atom_site_occupancy
  Y  Y0  1  0.33333333  0.66666667  0.04862767  1
  Y  Y1  1  0.33333333  0.66666667  0.28470567  1
  Y  Y2  1  0.00000000  0.00000000  0.38196100  1
  Y  Y3  1  0.00000000  0.00000000  0.61803900  1
  Y  Y4  1  0.66666667  0.33333333  0.71529433  1
  Y  Y5  1  0.66666667  0.33333333  0.95137233  1
  Ge  Ge6  1  0.00000000  0.00000000  0.00000000  1
  Ge  Ge7  1  0.66666667  0.33333333  0.33333333  1
  Ge  Ge8  1  0.33333333  0.66666667  0.66666667  1
  I  I9  1  0.66666667  0.33333333  0.11124933  1
  I  I10  1  0.00000000  0.00000000  0.22208400  1
  I  I11  1  0.33333333  0.66666667  0.44458267  1
  I  I12  1  0.66666667  0.33333333  0.55541733  1
  I  I13  1  0.00000000  0.00000000  0.77791600  1
  I  I14  1  0.33333333  0.66666667  0.88875067  1
