# generated using pymatgen
data_NaSr2AlP3
_symmetry_space_group_name_H-M   'P 1'
_cell_length_a   13.50083600
_cell_length_b   9.09262400
_cell_length_c   11.57185662
_cell_angle_alpha   90.00000000
_cell_angle_beta   106.80883658
_cell_angle_gamma   90.00000000
_symmetry_Int_Tables_number   1
_chemical_formula_structural   NaSr2AlP3
_chemical_formula_sum   'Na8 Sr16 Al8 P24'
_cell_volume   1359.84564332
_cell_formula_units_Z   8
loop_
 _symmetry_equiv_pos_site_id
 _symmetry_equiv_pos_as_xyz
  1  'x, y, z'
loop_
 _atom_site_type_symbol
 _atom_site_label
 _atom_site_symmetry_multiplicity
 _atom_site_fract_x
 _atom_site_fract_y
 _atom_site_fract_z
 _atom_site_occupancy
  Na  Na0  1  0.50000000  0.19896400  0.00000000  1
  Na  Na1  1  0.64272000  0.00000000  0.23115600  1
  Na  Na2  1  0.35728000  0.00000000  0.76884400  1
  Na  Na3  1  0.50000000  0.80103600  0.00000000  1
  Na  Na4  1  0.00000000  0.69896400  0.00000000  1
  Na  Na5  1  0.14272000  0.50000000  0.23115600  1
  Na  Na6  1  0.85728000  0.50000000  0.76884400  1
  Na  Na7  1  0.00000000  0.30103600  0.00000000  1
  Sr  Sr8  1  0.52941750  0.72182250  0.68584900  1
  Sr  Sr9  1  0.47058250  0.27817750  0.31415100  1
  Sr  Sr10  1  0.52941750  0.27817750  0.68584900  1
  Sr  Sr11  1  0.75000000  0.75000000  0.50000000  1
  Sr  Sr12  1  0.47058250  0.72182250  0.31415100  1
  Sr  Sr13  1  0.75000000  0.25000000  0.00000000  1
  Sr  Sr14  1  0.75000000  0.75000000  0.00000000  1
  Sr  Sr15  1  0.75000000  0.25000000  0.50000000  1
  Sr  Sr16  1  0.02941750  0.22182250  0.68584900  1
  Sr  Sr17  1  0.97058250  0.77817750  0.31415100  1
  Sr  Sr18  1  0.02941750  0.77817750  0.68584900  1
  Sr  Sr19  1  0.25000000  0.25000000  0.50000000  1
  Sr  Sr20  1  0.97058250  0.22182250  0.31415100  1
  Sr  Sr21  1  0.25000000  0.75000000  0.00000000  1
  Sr  Sr22  1  0.25000000  0.25000000  0.00000000  1
  Sr  Sr23  1  0.25000000  0.75000000  0.50000000  1
  Al  Al24  1  0.30248500  0.00000000  0.26744400  1
  Al  Al25  1  0.90985900  0.00000000  0.88219000  1
  Al  Al26  1  0.09014100  0.00000000  0.11781000  1
  Al  Al27  1  0.69751500  0.00000000  0.73255600  1
  Al  Al28  1  0.80248500  0.50000000  0.26744400  1
  Al  Al29  1  0.40985900  0.50000000  0.88219000  1
  Al  Al30  1  0.59014100  0.50000000  0.11781000  1
  Al  Al31  1  0.19751500  0.50000000  0.73255600  1
  P  P32  1  0.68311700  0.29583900  0.22853400  1
  P  P33  1  0.40930000  0.00000000  0.13662000  1
  P  P34  1  0.31688300  0.70416100  0.77146600  1
  P  P35  1  0.91282500  0.00000000  0.48649200  1
  P  P36  1  0.41356500  0.00000000  0.48789300  1
  P  P37  1  0.09017000  0.00000000  0.90585100  1
  P  P38  1  0.90983000  0.00000000  0.09414900  1
  P  P39  1  0.59070000  0.00000000  0.86338000  1
  P  P40  1  0.68311700  0.70416100  0.22853400  1
  P  P41  1  0.08717500  0.00000000  0.51350800  1
  P  P42  1  0.31688300  0.29583900  0.77146600  1
  P  P43  1  0.58643500  0.00000000  0.51210700  1
  P  P44  1  0.18311700  0.79583900  0.22853400  1
  P  P45  1  0.90930000  0.50000000  0.13662000  1
  P  P46  1  0.81688300  0.20416100  0.77146600  1
  P  P47  1  0.41282500  0.50000000  0.48649200  1
  P  P48  1  0.91356500  0.50000000  0.48789300  1
  P  P49  1  0.59017000  0.50000000  0.90585100  1
  P  P50  1  0.40983000  0.50000000  0.09414900  1
  P  P51  1  0.09070000  0.50000000  0.86338000  1
  P  P52  1  0.18311700  0.20416100  0.22853400  1
  P  P53  1  0.58717500  0.50000000  0.51350800  1
  P  P54  1  0.81688300  0.79583900  0.77146600  1
  P  P55  1  0.08643500  0.50000000  0.51210700  1
