# generated using pymatgen
data_TbH3(CO2)3
_symmetry_space_group_name_H-M   'P 1'
_cell_length_a   10.48313728
_cell_length_b   10.48313728
_cell_length_c   3.98342635
_cell_angle_alpha   90.00000000
_cell_angle_beta   90.00000000
_cell_angle_gamma   120.00000000
_symmetry_Int_Tables_number   1
_chemical_formula_structural   TbH3(CO2)3
_chemical_formula_sum   'Tb3 H9 C9 O18'
_cell_volume   379.11412777
_cell_formula_units_Z   3
loop_
 _symmetry_equiv_pos_site_id
 _symmetry_equiv_pos_as_xyz
  1  'x, y, z'
loop_
 _atom_site_type_symbol
 _atom_site_label
 _atom_site_symmetry_multiplicity
 _atom_site_fract_x
 _atom_site_fract_y
 _atom_site_fract_z
 _atom_site_occupancy
  Tb  Tb0  1  0.00000000  0.00000000  0.99952300  1
  Tb  Tb1  1  0.66666667  0.33333333  0.33285633  1
  Tb  Tb2  1  0.33333333  0.66666667  0.66618967  1
  H  H3  1  0.32364667  0.16182333  0.52183333  1
  H  H4  1  0.17151000  0.82849000  0.18850000  1
  H  H5  1  0.17151000  0.34302000  0.18850000  1
  H  H6  1  0.99031333  0.49515667  0.85516667  1
  H  H7  1  0.83817667  0.16182333  0.52183333  1
  H  H8  1  0.83817667  0.67635333  0.52183333  1
  H  H9  1  0.65698000  0.82849000  0.18850000  1
  H  H10  1  0.50484333  0.49515667  0.85516667  1
  H  H11  1  0.50484333  0.00968667  0.85516667  1
  C  C12  1  0.36010067  0.18005033  0.78612133  1
  C  C13  1  0.15328300  0.84671700  0.45278800  1
  C  C14  1  0.15328300  0.30656600  0.45278800  1
  C  C15  1  0.02676733  0.51338367  0.11945467  1
  C  C16  1  0.81994967  0.18005033  0.78612133  1
  C  C17  1  0.81994967  0.63989933  0.78612133  1
  C  C18  1  0.69343400  0.84671700  0.45278800  1
  C  C19  1  0.48661633  0.51338367  0.11945467  1
  C  C20  1  0.48661633  0.97323267  0.11945467  1
  O  O21  1  0.26458933  0.13229467  0.01795667  1
  O  O22  1  0.20103867  0.79896133  0.68462333  1
  O  O23  1  0.20103867  0.40207733  0.68462333  1
  O  O24  1  0.49944533  0.24972267  0.83658067  1
  O  O25  1  0.08361067  0.91638933  0.50324733  1
  O  O26  1  0.08361067  0.16722133  0.50324733  1
  O  O27  1  0.93125600  0.46562800  0.35129000  1
  O  O28  1  0.86770533  0.13229467  0.01795667  1
  O  O29  1  0.86770533  0.73541067  0.01795667  1
  O  O30  1  0.16611200  0.58305600  0.16991400  1
  O  O31  1  0.75027733  0.24972267  0.83658067  1
  O  O32  1  0.75027733  0.50055467  0.83658067  1
  O  O33  1  0.59792267  0.79896133  0.68462333  1
  O  O34  1  0.53437200  0.46562800  0.35129000  1
  O  O35  1  0.53437200  0.06874400  0.35129000  1
  O  O36  1  0.83277867  0.91638933  0.50324733  1
  O  O37  1  0.41694400  0.58305600  0.16991400  1
  O  O38  1  0.41694400  0.83388800  0.16991400  1
