# generated using pymatgen
data_Na2CaTi2(GeO4)3
_symmetry_space_group_name_H-M   'P 1'
_cell_length_a   12.36221200
_cell_length_b   12.36221200
_cell_length_c   12.45392000
_cell_angle_alpha   90.00000000
_cell_angle_beta   90.00000000
_cell_angle_gamma   90.00000000
_symmetry_Int_Tables_number   1
_chemical_formula_structural   Na2CaTi2(GeO4)3
_chemical_formula_sum   'Na16 Ca8 Ti16 Ge24 O96'
_cell_volume   1903.26142608
_cell_formula_units_Z   8
loop_
 _symmetry_equiv_pos_site_id
 _symmetry_equiv_pos_as_xyz
  1  'x, y, z'
loop_
 _atom_site_type_symbol
 _atom_site_label
 _atom_site_symmetry_multiplicity
 _atom_site_fract_x
 _atom_site_fract_y
 _atom_site_fract_z
 _atom_site_occupancy
  Na  Na0  1  0.25000000  0.12597400  0.12500000  1
  Na  Na1  1  0.37402600  0.75000000  0.37500000  1
  Na  Na2  1  0.25000000  0.62597400  0.12500000  1
  Na  Na3  1  0.12597400  0.75000000  0.87500000  1
  Na  Na4  1  0.37402600  0.25000000  0.87500000  1
  Na  Na5  1  0.25000000  0.37402600  0.62500000  1
  Na  Na6  1  0.12597400  0.25000000  0.37500000  1
  Na  Na7  1  0.25000000  0.87402600  0.62500000  1
  Na  Na8  1  0.75000000  0.62597400  0.62500000  1
  Na  Na9  1  0.87402600  0.25000000  0.87500000  1
  Na  Na10  1  0.75000000  0.12597400  0.62500000  1
  Na  Na11  1  0.62597400  0.25000000  0.37500000  1
  Na  Na12  1  0.87402600  0.75000000  0.37500000  1
  Na  Na13  1  0.75000000  0.87402600  0.12500000  1
  Na  Na14  1  0.62597400  0.75000000  0.87500000  1
  Na  Na15  1  0.75000000  0.37402600  0.12500000  1
  Ca  Ca16  1  0.00000000  0.50000000  0.00000000  1
  Ca  Ca17  1  0.50000000  0.00000000  0.00000000  1
  Ca  Ca18  1  0.00000000  0.00000000  0.75000000  1
  Ca  Ca19  1  0.00000000  0.00000000  0.25000000  1
  Ca  Ca20  1  0.50000000  0.00000000  0.50000000  1
  Ca  Ca21  1  0.00000000  0.50000000  0.50000000  1
  Ca  Ca22  1  0.50000000  0.50000000  0.25000000  1
  Ca  Ca23  1  0.50000000  0.50000000  0.75000000  1
  Ti  Ti24  1  0.00000000  0.75000000  0.12500000  1
  Ti  Ti25  1  0.25000000  0.50000000  0.37500000  1
  Ti  Ti26  1  0.00000000  0.25000000  0.62500000  1
  Ti  Ti27  1  0.75000000  0.50000000  0.37500000  1
  Ti  Ti28  1  0.25000000  0.50000000  0.87500000  1
  Ti  Ti29  1  0.50000000  0.25000000  0.12500000  1
  Ti  Ti30  1  0.25000000  0.00000000  0.37500000  1
  Ti  Ti31  1  0.00000000  0.25000000  0.12500000  1
  Ti  Ti32  1  0.50000000  0.25000000  0.62500000  1
  Ti  Ti33  1  0.75000000  0.00000000  0.87500000  1
  Ti  Ti34  1  0.50000000  0.75000000  0.12500000  1
  Ti  Ti35  1  0.25000000  0.00000000  0.87500000  1
  Ti  Ti36  1  0.75000000  0.00000000  0.37500000  1
  Ti  Ti37  1  0.00000000  0.75000000  0.62500000  1
  Ti  Ti38  1  0.75000000  0.50000000  0.87500000  1
  Ti  Ti39  1  0.50000000  0.75000000  0.62500000  1
  Ge  Ge40  1  0.37497200  0.25000000  0.37500000  1
  Ge  Ge41  1  0.00000000  0.00000000  0.00000000  1
  Ge  Ge42  1  0.75000000  0.37497200  0.62500000  1
  Ge  Ge43  1  0.50000000  0.00000000  0.25000000  1
  Ge  Ge44  1  0.25000000  0.37497200  0.12500000  1
  Ge  Ge45  1  0.12502800  0.25000000  0.87500000  1
  Ge  Ge46  1  0.87497200  0.25000000  0.37500000  1
  Ge  Ge47  1  0.25000000  0.12502800  0.62500000  1
  Ge  Ge48  1  0.00000000  0.00000000  0.50000000  1
  Ge  Ge49  1  0.75000000  0.12502800  0.12500000  1
  Ge  Ge50  1  0.00000000  0.50000000  0.25000000  1
  Ge  Ge51  1  0.62502800  0.25000000  0.87500000  1
  Ge  Ge52  1  0.87497200  0.75000000  0.87500000  1
  Ge  Ge53  1  0.50000000  0.50000000  0.50000000  1
  Ge  Ge54  1  0.25000000  0.87497200  0.12500000  1
  Ge  Ge55  1  0.00000000  0.50000000  0.75000000  1
  Ge  Ge56  1  0.75000000  0.87497200  0.62500000  1
  Ge  Ge57  1  0.62502800  0.75000000  0.37500000  1
  Ge  Ge58  1  0.37497200  0.75000000  0.87500000  1
  Ge  Ge59  1  0.75000000  0.62502800  0.12500000  1
  Ge  Ge60  1  0.50000000  0.50000000  0.00000000  1
  Ge  Ge61  1  0.25000000  0.62502800  0.62500000  1
  Ge  Ge62  1  0.50000000  0.00000000  0.75000000  1
  Ge  Ge63  1  0.12502800  0.75000000  0.37500000  1
  O  O64  1  0.14700000  0.28661800  0.17203300  1
  O  O65  1  0.46444500  0.20053500  0.47662700  1
  O  O66  1  0.04699450  0.59974350  0.15834850  1
  O  O67  1  0.28661800  0.14700000  0.32796700  1
  O  O68  1  0.04699450  0.09974350  0.09165150  1
  O  O69  1  0.20053500  0.96444500  0.22662700  1
  O  O70  1  0.40025650  0.95300550  0.34165150  1
  O  O71  1  0.45300550  0.09974350  0.15834850  1
  O  O72  1  0.20053500  0.46444500  0.02337300  1
  O  O73  1  0.59974350  0.04699450  0.34165150  1
  O  O74  1  0.21338200  0.64700000  0.32796700  1
  O  O75  1  0.59974350  0.45300550  0.40834850  1
  O  O76  1  0.03555500  0.29946500  0.97662700  1
  O  O77  1  0.14700000  0.78661800  0.07796700  1
  O  O78  1  0.79946500  0.46444500  0.52337300  1
  O  O79  1  0.46444500  0.29946500  0.27337300  1
  O  O80  1  0.85300000  0.28661800  0.67203300  1
  O  O81  1  0.40025650  0.54699450  0.40834850  1
  O  O82  1  0.54699450  0.90025650  0.15834850  1
  O  O83  1  0.35300000  0.28661800  0.07796700  1
  O  O84  1  0.21338200  0.35300000  0.82796700  1
  O  O85  1  0.03555500  0.20053500  0.77337300  1
  O  O86  1  0.29946500  0.46444500  0.22662700  1
  O  O87  1  0.78661800  0.35300000  0.32796700  1
  O  O88  1  0.21338200  0.14700000  0.92203300  1
  O  O89  1  0.70053500  0.03555500  0.02337300  1
  O  O90  1  0.96444500  0.29946500  0.47662700  1
  O  O91  1  0.28661800  0.64700000  0.92203300  1
  O  O92  1  0.64700000  0.21338200  0.17203300  1
  O  O93  1  0.95300550  0.09974350  0.59165150  1
  O  O94  1  0.09974350  0.45300550  0.34165150  1
  O  O95  1  0.14700000  0.21338200  0.57796700  1
  O  O96  1  0.53555500  0.20053500  0.97662700  1
  O  O97  1  0.20053500  0.03555500  0.72662700  1
  O  O98  1  0.85300000  0.71338200  0.17203300  1
  O  O99  1  0.96444500  0.20053500  0.27337300  1
  O  O100  1  0.28661800  0.35300000  0.42203300  1
  O  O101  1  0.90025650  0.54699450  0.34165150  1
  O  O102  1  0.40025650  0.45300550  0.90834850  1
  O  O103  1  0.29946500  0.53555500  0.72662700  1
  O  O104  1  0.54699450  0.40025650  0.09165150  1
  O  O105  1  0.09974350  0.04699450  0.40834850  1
  O  O106  1  0.29946500  0.03555500  0.52337300  1
  O  O107  1  0.95300550  0.40025650  0.15834850  1
  O  O108  1  0.21338200  0.85300000  0.42203300  1
  O  O109  1  0.95300550  0.90025650  0.09165150  1
  O  O110  1  0.53555500  0.29946500  0.77337300  1
  O  O111  1  0.35300000  0.71338200  0.57796700  1
  O  O112  1  0.64700000  0.78661800  0.67203300  1
  O  O113  1  0.96444500  0.70053500  0.97662700  1
  O  O114  1  0.54699450  0.09974350  0.65834850  1
  O  O115  1  0.78661800  0.64700000  0.82796700  1
  O  O116  1  0.54699450  0.59974350  0.59165150  1
  O  O117  1  0.70053500  0.46444500  0.72662700  1
  O  O118  1  0.90025650  0.45300550  0.84165150  1
  O  O119  1  0.95300550  0.59974350  0.65834850  1
  O  O120  1  0.70053500  0.96444500  0.52337300  1
  O  O121  1  0.09974350  0.54699450  0.84165150  1
  O  O122  1  0.71338200  0.14700000  0.82796700  1
  O  O123  1  0.09974350  0.95300550  0.90834850  1
  O  O124  1  0.53555500  0.79946500  0.47662700  1
  O  O125  1  0.64700000  0.28661800  0.57796700  1
  O  O126  1  0.29946500  0.96444500  0.02337300  1
  O  O127  1  0.96444500  0.79946500  0.77337300  1
  O  O128  1  0.35300000  0.78661800  0.17203300  1
  O  O129  1  0.90025650  0.04699450  0.90834850  1
  O  O130  1  0.04699450  0.40025650  0.65834850  1
  O  O131  1  0.85300000  0.78661800  0.57796700  1
  O  O132  1  0.71338200  0.85300000  0.32796700  1
  O  O133  1  0.53555500  0.70053500  0.27337300  1
  O  O134  1  0.79946500  0.96444500  0.72662700  1
  O  O135  1  0.28661800  0.85300000  0.82796700  1
  O  O136  1  0.71338200  0.64700000  0.42203300  1
  O  O137  1  0.20053500  0.53555500  0.52337300  1
  O  O138  1  0.46444500  0.79946500  0.97662700  1
  O  O139  1  0.78661800  0.14700000  0.42203300  1
  O  O140  1  0.14700000  0.71338200  0.67203300  1
  O  O141  1  0.45300550  0.59974350  0.09165150  1
  O  O142  1  0.59974350  0.95300550  0.84165150  1
  O  O143  1  0.64700000  0.71338200  0.07796700  1
  O  O144  1  0.03555500  0.70053500  0.47662700  1
  O  O145  1  0.70053500  0.53555500  0.22662700  1
  O  O146  1  0.35300000  0.21338200  0.67203300  1
  O  O147  1  0.46444500  0.70053500  0.77337300  1
  O  O148  1  0.78661800  0.85300000  0.92203300  1
  O  O149  1  0.40025650  0.04699450  0.84165150  1
  O  O150  1  0.90025650  0.95300550  0.40834850  1
  O  O151  1  0.79946500  0.03555500  0.22662700  1
  O  O152  1  0.04699450  0.90025650  0.59165150  1
  O  O153  1  0.59974350  0.54699450  0.90834850  1
  O  O154  1  0.79946500  0.53555500  0.02337300  1
  O  O155  1  0.45300550  0.90025650  0.65834850  1
  O  O156  1  0.71338200  0.35300000  0.92203300  1
  O  O157  1  0.45300550  0.40025650  0.59165150  1
  O  O158  1  0.03555500  0.79946500  0.27337300  1
  O  O159  1  0.85300000  0.21338200  0.07796700  1
