# generated using pymatgen
data_TiTlWO5F
_symmetry_space_group_name_H-M   'P 1'
_cell_length_a   7.36779000
_cell_length_b   7.47754400
_cell_length_c   10.25160600
_cell_angle_alpha   90.00000000
_cell_angle_beta   90.00000000
_cell_angle_gamma   90.00000000
_symmetry_Int_Tables_number   1
_chemical_formula_structural   TiTlWO5F
_chemical_formula_sum   'Ti4 Tl4 W4 O20 F4'
_cell_volume   564.79146187
_cell_formula_units_Z   4
loop_
 _symmetry_equiv_pos_site_id
 _symmetry_equiv_pos_as_xyz
  1  'x, y, z'
loop_
 _atom_site_type_symbol
 _atom_site_label
 _atom_site_symmetry_multiplicity
 _atom_site_fract_x
 _atom_site_fract_y
 _atom_site_fract_z
 _atom_site_occupancy
  Ti  Ti0  1  0.75000000  0.25062900  0.26520000  1
  Ti  Ti1  1  0.25000000  0.25062900  0.73480000  1
  Ti  Ti2  1  0.25000000  0.75062900  0.76520000  1
  Ti  Ti3  1  0.75000000  0.75062900  0.23480000  1
  Tl  Tl4  1  0.75000000  0.40761150  0.64609550  1
  Tl  Tl5  1  0.75000000  0.90761150  0.85390450  1
  Tl  Tl6  1  0.25000000  0.90761150  0.14609550  1
  Tl  Tl7  1  0.25000000  0.40761150  0.35390450  1
  W  W8  1  0.00000000  0.48691800  0.00000000  1
  W  W9  1  0.50000000  0.48691800  0.00000000  1
  W  W10  1  0.50000000  0.98691800  0.50000000  1
  W  W11  1  0.00000000  0.98691800  0.50000000  1
  O  O12  1  0.43411100  0.82429500  0.62785900  1
  O  O13  1  0.56588900  0.32429500  0.12785900  1
  O  O14  1  0.25000000  0.00676900  0.43362800  1
  O  O15  1  0.43411100  0.32429500  0.87214100  1
  O  O16  1  0.06588900  0.32429500  0.87214100  1
  O  O17  1  0.43538500  0.19058800  0.62274300  1
  O  O18  1  0.06461500  0.19058800  0.62274300  1
  O  O19  1  0.25000000  0.50676900  0.06637200  1
  O  O20  1  0.93538500  0.19058800  0.37725700  1
  O  O21  1  0.06461500  0.69058800  0.87725700  1
  O  O22  1  0.93411100  0.32429500  0.12785900  1
  O  O23  1  0.06588900  0.82429500  0.62785900  1
  O  O24  1  0.75000000  0.50676900  0.93362800  1
  O  O25  1  0.93411100  0.82429500  0.37214100  1
  O  O26  1  0.56588900  0.82429500  0.37214100  1
  O  O27  1  0.93538500  0.69058800  0.12274300  1
  O  O28  1  0.56461500  0.69058800  0.12274300  1
  O  O29  1  0.75000000  0.00676900  0.56637200  1
  O  O30  1  0.43538500  0.69058800  0.87725700  1
  O  O31  1  0.56461500  0.19058800  0.37725700  1
  F  F32  1  0.25000000  0.00830850  0.81859350  1
  F  F33  1  0.25000000  0.50830850  0.68140650  1
  F  F34  1  0.75000000  0.50830850  0.31859350  1
  F  F35  1  0.75000000  0.00830850  0.18140650  1
