# generated using pymatgen
data_BHO2
_symmetry_space_group_name_H-M   'P 1'
_cell_length_a   6.46626800
_cell_length_b   8.12298500
_cell_length_c   9.81677600
_cell_angle_alpha   90.00000000
_cell_angle_beta   90.00000000
_cell_angle_gamma   90.00000000
_symmetry_Int_Tables_number   1
_chemical_formula_structural   BHO2
_chemical_formula_sum   'B12 H12 O24'
_cell_volume   515.63006618
_cell_formula_units_Z   12
loop_
 _symmetry_equiv_pos_site_id
 _symmetry_equiv_pos_as_xyz
  1  'x, y, z'
loop_
 _atom_site_type_symbol
 _atom_site_label
 _atom_site_symmetry_multiplicity
 _atom_site_fract_x
 _atom_site_fract_y
 _atom_site_fract_z
 _atom_site_occupancy
  B  B0  1  0.75000000  0.99989900  0.67381500  1
  B  B1  1  0.75000000  0.50010100  0.17381500  1
  B  B2  1  0.25000000  0.00010100  0.32618500  1
  B  B3  1  0.25000000  0.49989900  0.82618500  1
  B  B4  1  0.75000000  0.99861700  0.91786500  1
  B  B5  1  0.75000000  0.50138300  0.41786500  1
  B  B6  1  0.25000000  0.00138300  0.08213500  1
  B  B7  1  0.25000000  0.49861700  0.58213500  1
  B  B8  1  0.75000000  0.74429100  0.79464200  1
  B  B9  1  0.75000000  0.75570900  0.29464200  1
  B  B10  1  0.25000000  0.25570900  0.20535800  1
  B  B11  1  0.25000000  0.24429100  0.70535800  1
  H  H12  1  0.75000000  0.02410000  0.47025700  1
  H  H13  1  0.75000000  0.47590000  0.97025700  1
  H  H14  1  0.25000000  0.97590000  0.52974300  1
  H  H15  1  0.25000000  0.52410000  0.02974300  1
  H  H16  1  0.75000000  0.19830400  0.04001900  1
  H  H17  1  0.75000000  0.30169600  0.54001900  1
  H  H18  1  0.25000000  0.80169600  0.95998100  1
  H  H19  1  0.25000000  0.69830400  0.45998100  1
  H  H20  1  0.75000000  0.52333900  0.70712000  1
  H  H21  1  0.75000000  0.97666100  0.20712000  1
  H  H22  1  0.25000000  0.47666100  0.29288000  1
  H  H23  1  0.25000000  0.02333900  0.79288000  1
  O  O24  1  0.75000000  0.08911700  0.55563200  1
  O  O25  1  0.75000000  0.41088300  0.05563200  1
  O  O26  1  0.25000000  0.91088300  0.44436800  1
  O  O27  1  0.25000000  0.58911700  0.94436800  1
  O  O28  1  0.75000000  0.08644900  0.79615000  1
  O  O29  1  0.75000000  0.41355100  0.29615000  1
  O  O30  1  0.25000000  0.91355100  0.20385000  1
  O  O31  1  0.25000000  0.58644900  0.70385000  1
  O  O32  1  0.75000000  0.07556300  0.04189700  1
  O  O33  1  0.75000000  0.42443700  0.54189700  1
  O  O34  1  0.25000000  0.92443700  0.95810300  1
  O  O35  1  0.25000000  0.57556300  0.45810300  1
  O  O36  1  0.75000000  0.83003400  0.67279000  1
  O  O37  1  0.75000000  0.66996600  0.17279000  1
  O  O38  1  0.25000000  0.16996600  0.32721000  1
  O  O39  1  0.25000000  0.33003400  0.82721000  1
  O  O40  1  0.75000000  0.82889400  0.91629100  1
  O  O41  1  0.75000000  0.67110600  0.41629100  1
  O  O42  1  0.25000000  0.17110600  0.08370900  1
  O  O43  1  0.25000000  0.32889400  0.58370900  1
  O  O44  1  0.75000000  0.57561600  0.79860200  1
  O  O45  1  0.75000000  0.92438400  0.29860200  1
  O  O46  1  0.25000000  0.42438400  0.20139800  1
  O  O47  1  0.25000000  0.07561600  0.70139800  1
