# generated using pymatgen
data_Hf2N2O
_symmetry_space_group_name_H-M   'P 1'
_cell_length_a   8.71159200
_cell_length_b   8.73367878
_cell_length_c   8.73444217
_cell_angle_alpha   109.59675355
_cell_angle_beta   109.43012881
_cell_angle_gamma   109.25941461
_symmetry_Int_Tables_number   1
_chemical_formula_structural   Hf2N2O
_chemical_formula_sum   'Hf16 N16 O8'
_cell_volume   512.37269252
_cell_formula_units_Z   8
loop_
 _symmetry_equiv_pos_site_id
 _symmetry_equiv_pos_as_xyz
  1  'x, y, z'
loop_
 _atom_site_type_symbol
 _atom_site_label
 _atom_site_symmetry_multiplicity
 _atom_site_fract_x
 _atom_site_fract_y
 _atom_site_fract_z
 _atom_site_occupancy
  Hf  Hf0  1  0.54166200  0.75936800  0.78919200  1
  Hf  Hf1  1  0.50160000  0.49005800  0.00855700  1
  Hf  Hf2  1  0.74760600  0.77866200  0.52682500  1
  Hf  Hf3  1  0.25006500  0.71499000  0.95844900  1
  Hf  Hf4  1  0.28109300  0.53315300  0.24063200  1
  Hf  Hf5  1  0.79655700  0.04039100  0.25933200  1
  Hf  Hf6  1  0.98980700  0.98720200  0.99720000  1
  Hf  Hf7  1  0.96569600  0.24877400  0.71362300  1
  Hf  Hf8  1  0.03139400  0.74866900  0.28928600  1
  Hf  Hf9  1  0.51049100  0.01846800  0.50828400  1
  Hf  Hf10  1  0.00959500  0.50592000  0.49562500  1
  Hf  Hf11  1  0.21882900  0.96155600  0.75076400  1
  Hf  Hf12  1  0.71249100  0.46811400  0.75200500  1
  Hf  Hf13  1  0.75076400  0.28695000  0.02849700  1
  Hf  Hf14  1  0.24482200  0.20380500  0.46391900  1
  Hf  Hf15  1  0.46098000  0.24632600  0.21301800  1
  N  N16  1  0.72320300  0.98114900  0.44900100  1
  N  N17  1  0.04597000  0.27595500  0.51271100  1
  N  N18  1  0.22474800  0.45648500  0.96561000  1
  N  N19  1  0.23616900  0.96317300  0.01418800  1
  N  N20  1  0.27243900  0.73432100  0.72737300  1
  N  N21  1  0.03639200  0.48791000  0.26259200  1
  N  N22  1  0.75690700  0.03204400  0.98885800  1
  N  N23  1  0.74179100  0.22894600  0.77163100  1
  N  N24  1  0.77196900  0.72725600  0.75866400  1
  N  N25  1  0.51087600  0.24137700  0.46603600  1
  N  N26  1  0.99164100  0.95766000  0.22731700  1
  N  N27  1  0.77074700  0.54984900  0.03326200  1
  N  N28  1  0.95439900  0.72780400  0.49058700  1
  N  N29  1  0.27429700  0.01148200  0.54562800  1
  N  N30  1  0.46704300  0.22770200  0.95566000  1
  N  N31  1  0.54049600  0.53189900  0.27352800  1
  O  O32  1  0.45405200  0.46830800  0.72863100  1
  O  O33  1  0.53111900  0.77137800  0.04158000  1
  O  O34  1  0.01432500  0.05001900  0.77600400  1
  O  O35  1  0.48327800  0.76056800  0.53465100  1
  O  O36  1  0.22611200  0.27335000  0.23474000  1
  O  O37  1  0.26638000  0.77187100  0.22989800  1
  O  O38  1  0.96540200  0.51357600  0.74076500  1
  O  O39  1  0.72679600  0.26350900  0.27587600  1
