# generated using pymatgen
data_ReN2(OF4)2
_symmetry_space_group_name_H-M   'P 1'
_cell_length_a   5.86304100
_cell_length_b   9.03270800
_cell_length_c   12.48825400
_cell_angle_alpha   90.00000000
_cell_angle_beta   90.00000000
_cell_angle_gamma   90.00000000
_symmetry_Int_Tables_number   1
_chemical_formula_structural   ReN2(OF4)2
_chemical_formula_sum   'Re4 N8 O8 F32'
_cell_volume   661.36715879
_cell_formula_units_Z   4
loop_
 _symmetry_equiv_pos_site_id
 _symmetry_equiv_pos_as_xyz
  1  'x, y, z'
loop_
 _atom_site_type_symbol
 _atom_site_label
 _atom_site_symmetry_multiplicity
 _atom_site_fract_x
 _atom_site_fract_y
 _atom_site_fract_z
 _atom_site_occupancy
  Re  Re0  1  0.25000000  0.22492300  0.87060000  1
  Re  Re1  1  0.75000000  0.27507700  0.37060000  1
  Re  Re2  1  0.75000000  0.77507700  0.12940000  1
  Re  Re3  1  0.25000000  0.72492300  0.62940000  1
  N  N4  1  0.25000000  0.49009300  0.23676200  1
  N  N5  1  0.75000000  0.50990700  0.76323800  1
  N  N6  1  0.25000000  0.74473800  0.93062700  1
  N  N7  1  0.25000000  0.24473800  0.56937300  1
  N  N8  1  0.25000000  0.99009300  0.26323800  1
  N  N9  1  0.75000000  0.00990700  0.73676200  1
  N  N10  1  0.75000000  0.25526200  0.06937300  1
  N  N11  1  0.75000000  0.75526200  0.43062700  1
  O  O12  1  0.25000000  0.55721400  0.31113300  1
  O  O13  1  0.25000000  0.12852000  0.54099700  1
  O  O14  1  0.75000000  0.44278600  0.68886700  1
  O  O15  1  0.75000000  0.87148000  0.45900300  1
  O  O16  1  0.25000000  0.62852000  0.95900300  1
  O  O17  1  0.25000000  0.05721400  0.18886700  1
  O  O18  1  0.75000000  0.94278600  0.81113300  1
  O  O19  1  0.75000000  0.37148000  0.04099700  1
  F  F20  1  0.45413800  0.89850500  0.61971100  1
  F  F21  1  0.95422900  0.77887100  0.25651700  1
  F  F22  1  0.25000000  0.51953900  0.67321000  1
  F  F23  1  0.95413800  0.60149500  0.11971100  1
  F  F24  1  0.47267600  0.86175900  0.07076300  1
  F  F25  1  0.54586200  0.60149500  0.11971100  1
  F  F26  1  0.02732400  0.36175900  0.42923700  1
  F  F27  1  0.25000000  0.77382300  0.47718700  1
  F  F28  1  0.75000000  0.98046100  0.17321000  1
  F  F29  1  0.52732400  0.63824100  0.57076300  1
  F  F30  1  0.04586200  0.89850500  0.61971100  1
  F  F31  1  0.45422900  0.22112900  0.74348300  1
  F  F32  1  0.75000000  0.72617700  0.97718700  1
  F  F33  1  0.54586200  0.10149500  0.38028900  1
  F  F34  1  0.04577100  0.72112900  0.75651700  1
  F  F35  1  0.45413800  0.39850500  0.88028900  1
  F  F36  1  0.97267600  0.63824100  0.57076300  1
  F  F37  1  0.95413800  0.10149500  0.38028900  1
  F  F38  1  0.75000000  0.48046100  0.32679000  1
  F  F39  1  0.75000000  0.22617700  0.52281300  1
  F  F40  1  0.95422900  0.27887100  0.24348300  1
  F  F41  1  0.52732400  0.13824100  0.92923700  1
  F  F42  1  0.45422900  0.72112900  0.75651700  1
  F  F43  1  0.54577100  0.77887100  0.25651700  1
  F  F44  1  0.25000000  0.27382300  0.02281300  1
  F  F45  1  0.54577100  0.27887100  0.24348300  1
  F  F46  1  0.47267600  0.36175900  0.42923700  1
  F  F47  1  0.04586200  0.39850500  0.88028900  1
  F  F48  1  0.25000000  0.01953900  0.82679000  1
  F  F49  1  0.02732400  0.86175900  0.07076300  1
  F  F50  1  0.97267600  0.13824100  0.92923700  1
  F  F51  1  0.04577100  0.22112900  0.74348300  1
