# generated using pymatgen
data_ZnH4(BrO)2
_symmetry_space_group_name_H-M   'P 1'
_cell_length_a   8.17185100
_cell_length_b   10.19843800
_cell_length_c   10.71122000
_cell_angle_alpha   90.00000000
_cell_angle_beta   90.00000000
_cell_angle_gamma   90.00000000
_symmetry_Int_Tables_number   1
_chemical_formula_structural   ZnH4(BrO)2
_chemical_formula_sum   'Zn6 H24 Br12 O12'
_cell_volume   892.67431482
_cell_formula_units_Z   6
loop_
 _symmetry_equiv_pos_site_id
 _symmetry_equiv_pos_as_xyz
  1  'x, y, z'
loop_
 _atom_site_type_symbol
 _atom_site_label
 _atom_site_symmetry_multiplicity
 _atom_site_fract_x
 _atom_site_fract_y
 _atom_site_fract_z
 _atom_site_occupancy
  Zn  Zn0  1  0.50000000  0.00000000  0.34444100  1
  Zn  Zn1  1  0.50000000  0.00000000  0.65555900  1
  Zn  Zn2  1  0.00000000  0.00000000  0.00000000  1
  Zn  Zn3  1  0.00000000  0.50000000  0.84444100  1
  Zn  Zn4  1  0.00000000  0.50000000  0.15555900  1
  Zn  Zn5  1  0.50000000  0.50000000  0.50000000  1
  H  H6  1  0.74956000  0.66303900  0.42741900  1
  H  H7  1  0.25044000  0.66303900  0.57258100  1
  H  H8  1  0.25044000  0.33696100  0.42741900  1
  H  H9  1  0.74956000  0.33696100  0.57258100  1
  H  H10  1  0.25044000  0.33696100  0.57258100  1
  H  H11  1  0.74956000  0.33696100  0.42741900  1
  H  H12  1  0.74956000  0.66303900  0.57258100  1
  H  H13  1  0.25044000  0.66303900  0.42741900  1
  H  H14  1  0.00000000  0.07965200  0.75012900  1
  H  H15  1  0.00000000  0.07965200  0.24987100  1
  H  H16  1  0.00000000  0.92034800  0.75012900  1
  H  H17  1  0.00000000  0.92034800  0.24987100  1
  H  H18  1  0.24956000  0.16303900  0.92741900  1
  H  H19  1  0.75044000  0.16303900  0.07258100  1
  H  H20  1  0.75044000  0.83696100  0.92741900  1
  H  H21  1  0.24956000  0.83696100  0.07258100  1
  H  H22  1  0.75044000  0.83696100  0.07258100  1
  H  H23  1  0.24956000  0.83696100  0.92741900  1
  H  H24  1  0.24956000  0.16303900  0.07258100  1
  H  H25  1  0.75044000  0.16303900  0.92741900  1
  H  H26  1  0.50000000  0.57965200  0.25012900  1
  H  H27  1  0.50000000  0.57965200  0.74987100  1
  H  H28  1  0.50000000  0.42034800  0.25012900  1
  H  H29  1  0.50000000  0.42034800  0.74987100  1
  Br  Br30  1  0.72546000  0.00000000  0.50000000  1
  Br  Br31  1  0.27454000  0.00000000  0.50000000  1
  Br  Br32  1  0.50000000  0.81089300  0.20660400  1
  Br  Br33  1  0.50000000  0.81089300  0.79339600  1
  Br  Br34  1  0.50000000  0.18910700  0.20660400  1
  Br  Br35  1  0.50000000  0.18910700  0.79339600  1
  Br  Br36  1  0.22546000  0.50000000  0.00000000  1
  Br  Br37  1  0.77454000  0.50000000  0.00000000  1
  Br  Br38  1  0.00000000  0.31089300  0.70660400  1
  Br  Br39  1  0.00000000  0.31089300  0.29339600  1
  Br  Br40  1  0.00000000  0.68910700  0.70660400  1
  Br  Br41  1  0.00000000  0.68910700  0.29339600  1
  O  O42  1  0.67705300  0.65288800  0.50000000  1
  O  O43  1  0.32294700  0.65288800  0.50000000  1
  O  O44  1  0.32294700  0.34711200  0.50000000  1
  O  O45  1  0.67705300  0.34711200  0.50000000  1
  O  O46  1  0.00000000  0.00000000  0.80169800  1
  O  O47  1  0.00000000  0.00000000  0.19830200  1
  O  O48  1  0.17705300  0.15288800  0.00000000  1
  O  O49  1  0.82294700  0.15288800  0.00000000  1
  O  O50  1  0.82294700  0.84711200  0.00000000  1
  O  O51  1  0.17705300  0.84711200  0.00000000  1
  O  O52  1  0.50000000  0.50000000  0.30169800  1
  O  O53  1  0.50000000  0.50000000  0.69830200  1
