# generated using pymatgen
data_BaNa2Al4(SiO4)4
_symmetry_space_group_name_H-M   'P 1'
_cell_length_a   8.68737200
_cell_length_b   10.07988400
_cell_length_c   16.95064000
_cell_angle_alpha   90.00000000
_cell_angle_beta   90.00000000
_cell_angle_gamma   90.00000000
_symmetry_Int_Tables_number   1
_chemical_formula_structural   BaNa2Al4(SiO4)4
_chemical_formula_sum   'Ba4 Na8 Al16 Si16 O64'
_cell_volume   1484.32859265
_cell_formula_units_Z   4
loop_
 _symmetry_equiv_pos_site_id
 _symmetry_equiv_pos_as_xyz
  1  'x, y, z'
loop_
 _atom_site_type_symbol
 _atom_site_label
 _atom_site_symmetry_multiplicity
 _atom_site_fract_x
 _atom_site_fract_y
 _atom_site_fract_z
 _atom_site_occupancy
  Ba  Ba0  1  0.00000000  0.50000000  0.34608800  1
  Ba  Ba1  1  0.50000000  0.00000000  0.34608800  1
  Ba  Ba2  1  0.50000000  0.00000000  0.84608800  1
  Ba  Ba3  1  0.00000000  0.50000000  0.84608800  1
  Na  Na4  1  0.04038050  0.32699550  0.09524650  1
  Na  Na5  1  0.54038050  0.17300450  0.09524650  1
  Na  Na6  1  0.95961950  0.67300450  0.09524650  1
  Na  Na7  1  0.45961950  0.82699550  0.09524650  1
  Na  Na8  1  0.54038050  0.82699550  0.59524650  1
  Na  Na9  1  0.04038050  0.67300450  0.59524650  1
  Na  Na10  1  0.45961950  0.17300450  0.59524650  1
  Na  Na11  1  0.95961950  0.32699550  0.59524650  1
  Al  Al12  1  0.42930650  0.68606650  0.43700350  1
  Al  Al13  1  0.57069350  0.31393350  0.43700350  1
  Al  Al14  1  0.77878800  0.94336900  0.18909200  1
  Al  Al15  1  0.07069350  0.18606650  0.43700350  1
  Al  Al16  1  0.27878800  0.55663100  0.18909200  1
  Al  Al17  1  0.72121200  0.44336900  0.18909200  1
  Al  Al18  1  0.22121200  0.05663100  0.18909200  1
  Al  Al19  1  0.92930650  0.81393350  0.43700350  1
  Al  Al20  1  0.92930650  0.18606650  0.93700350  1
  Al  Al21  1  0.07069350  0.81393350  0.93700350  1
  Al  Al22  1  0.27878800  0.44336900  0.68909200  1
  Al  Al23  1  0.57069350  0.68606650  0.93700350  1
  Al  Al24  1  0.77878800  0.05663100  0.68909200  1
  Al  Al25  1  0.22121200  0.94336900  0.68909200  1
  Al  Al26  1  0.72121200  0.55663100  0.68909200  1
  Al  Al27  1  0.42930650  0.31393350  0.93700350  1
  Si  Si28  1  0.92327050  0.19336150  0.25400550  1
  Si  Si29  1  0.26655900  0.56102200  0.00274100  1
  Si  Si30  1  0.73344100  0.43897800  0.00274100  1
  Si  Si31  1  0.23344100  0.06102200  0.00274100  1
  Si  Si32  1  0.76655900  0.93897800  0.00274100  1
  Si  Si33  1  0.42327050  0.30663850  0.25400550  1
  Si  Si34  1  0.57672950  0.69336150  0.25400550  1
  Si  Si35  1  0.07672950  0.80663850  0.25400550  1
  Si  Si36  1  0.42327050  0.69336150  0.75400550  1
  Si  Si37  1  0.76655900  0.06102200  0.50274100  1
  Si  Si38  1  0.23344100  0.93897800  0.50274100  1
  Si  Si39  1  0.73344100  0.56102200  0.50274100  1
  Si  Si40  1  0.26655900  0.43897800  0.50274100  1
  Si  Si41  1  0.92327050  0.80663850  0.75400550  1
  Si  Si42  1  0.07672950  0.19336150  0.75400550  1
  Si  Si43  1  0.57672950  0.30663850  0.75400550  1
  O  O44  1  0.12401750  0.34805550  0.46808150  1
  O  O45  1  0.87598250  0.65194450  0.46808150  1
  O  O46  1  0.37598250  0.84805550  0.46808150  1
  O  O47  1  0.62401750  0.15194450  0.46808150  1
  O  O48  1  0.87159350  0.34462950  0.22804650  1
  O  O49  1  0.12840650  0.65537050  0.22804650  1
  O  O50  1  0.62840650  0.84462950  0.22804650  1
  O  O51  1  0.37159350  0.15537050  0.22804650  1
  O  O52  1  0.44799550  0.64958350  0.18849050  1
  O  O53  1  0.55200450  0.35041650  0.18849050  1
  O  O54  1  0.05200450  0.14958350  0.18849050  1
  O  O55  1  0.94799550  0.85041650  0.18849050  1
  O  O56  1  0.77821700  0.93056900  0.44490000  1
  O  O57  1  0.22178300  0.06943100  0.44490000  1
  O  O58  1  0.72178300  0.43056900  0.44490000  1
  O  O59  1  0.27821700  0.56943100  0.44490000  1
  O  O60  1  0.78063600  0.08636700  0.24988100  1
  O  O61  1  0.21936400  0.91363300  0.24988100  1
  O  O62  1  0.71936400  0.58636700  0.24988100  1
  O  O63  1  0.28063600  0.41363300  0.24988100  1
  O  O64  1  0.57551100  0.35291600  0.00509600  1
  O  O65  1  0.42448900  0.64708400  0.00509600  1
  O  O66  1  0.71439300  0.98396600  0.09251000  1
  O  O67  1  0.28560700  0.01603400  0.09251000  1
  O  O68  1  0.78560700  0.48396600  0.09251000  1
  O  O69  1  0.21439300  0.51603400  0.09251000  1
  O  O70  1  0.50333950  0.70871650  0.34205650  1
  O  O71  1  0.49666050  0.29128350  0.34205650  1
  O  O72  1  0.99666050  0.20871650  0.34205650  1
  O  O73  1  0.00333950  0.79128350  0.34205650  1
  O  O74  1  0.07551100  0.14708400  0.00509600  1
  O  O75  1  0.92448900  0.85291600  0.00509600  1
  O  O76  1  0.62401750  0.84805550  0.96808150  1
  O  O77  1  0.37598250  0.15194450  0.96808150  1
  O  O78  1  0.87598250  0.34805550  0.96808150  1
  O  O79  1  0.12401750  0.65194450  0.96808150  1
  O  O80  1  0.37159350  0.84462950  0.72804650  1
  O  O81  1  0.62840650  0.15537050  0.72804650  1
  O  O82  1  0.12840650  0.34462950  0.72804650  1
  O  O83  1  0.87159350  0.65537050  0.72804650  1
  O  O84  1  0.94799550  0.14958350  0.68849050  1
  O  O85  1  0.05200450  0.85041650  0.68849050  1
  O  O86  1  0.55200450  0.64958350  0.68849050  1
  O  O87  1  0.44799550  0.35041650  0.68849050  1
  O  O88  1  0.27821700  0.43056900  0.94490000  1
  O  O89  1  0.72178300  0.56943100  0.94490000  1
  O  O90  1  0.22178300  0.93056900  0.94490000  1
  O  O91  1  0.77821700  0.06943100  0.94490000  1
  O  O92  1  0.28063600  0.58636700  0.74988100  1
  O  O93  1  0.71936400  0.41363300  0.74988100  1
  O  O94  1  0.21936400  0.08636700  0.74988100  1
  O  O95  1  0.78063600  0.91363300  0.74988100  1
  O  O96  1  0.07551100  0.85291600  0.50509600  1
  O  O97  1  0.92448900  0.14708400  0.50509600  1
  O  O98  1  0.21439300  0.48396600  0.59251000  1
  O  O99  1  0.78560700  0.51603400  0.59251000  1
  O  O100  1  0.28560700  0.98396600  0.59251000  1
  O  O101  1  0.71439300  0.01603400  0.59251000  1
  O  O102  1  0.00333950  0.20871650  0.84205650  1
  O  O103  1  0.99666050  0.79128350  0.84205650  1
  O  O104  1  0.49666050  0.70871650  0.84205650  1
  O  O105  1  0.50333950  0.29128350  0.84205650  1
  O  O106  1  0.57551100  0.64708400  0.50509600  1
  O  O107  1  0.42448900  0.35291600  0.50509600  1
