# generated using pymatgen
data_Na3VH6O7
_symmetry_space_group_name_H-M   'P 1'
_cell_length_a   8.56243951
_cell_length_b   8.56243951
_cell_length_c   7.81947440
_cell_angle_alpha   90.00000000
_cell_angle_beta   90.00000000
_cell_angle_gamma   120.00000000
_symmetry_Int_Tables_number   1
_chemical_formula_structural   Na3VH6O7
_chemical_formula_sum   'Na9 V3 H18 O21'
_cell_volume   496.48167897
_cell_formula_units_Z   3
loop_
 _symmetry_equiv_pos_site_id
 _symmetry_equiv_pos_as_xyz
  1  'x, y, z'
loop_
 _atom_site_type_symbol
 _atom_site_label
 _atom_site_symmetry_multiplicity
 _atom_site_fract_x
 _atom_site_fract_y
 _atom_site_fract_z
 _atom_site_occupancy
  Na  Na0  1  0.21423367  0.98150433  0.41008133  1
  Na  Na1  1  0.01849567  0.23272933  0.41008133  1
  Na  Na2  1  0.76727067  0.78576633  0.41008133  1
  Na  Na3  1  0.88090033  0.31483767  0.74341467  1
  Na  Na4  1  0.68516233  0.56606267  0.74341467  1
  Na  Na5  1  0.43393733  0.11909967  0.74341467  1
  Na  Na6  1  0.54756700  0.64817100  0.07674800  1
  Na  Na7  1  0.35182900  0.89939600  0.07674800  1
  Na  Na8  1  0.10060400  0.45243300  0.07674800  1
  V  V9  1  0.00000000  0.00000000  0.99738400  1
  V  V10  1  0.66666667  0.33333333  0.33071733  1
  V  V11  1  0.33333333  0.66666667  0.66405067  1
  H  H12  1  0.16840667  0.20408033  0.71521833  1
  H  H13  1  0.79591967  0.96432633  0.71521833  1
  H  H14  1  0.03567367  0.83159333  0.71521833  1
  H  H15  1  0.32768433  0.33966067  0.59577667  1
  H  H16  1  0.66033933  0.98802367  0.59577667  1
  H  H17  1  0.01197633  0.67231567  0.59577667  1
  H  H18  1  0.83507333  0.53741367  0.04855167  1
  H  H19  1  0.46258633  0.29765967  0.04855167  1
  H  H20  1  0.70234033  0.16492667  0.04855167  1
  H  H21  1  0.99435100  0.67299400  0.92911000  1
  H  H22  1  0.32700600  0.32135700  0.92911000  1
  H  H23  1  0.67864300  0.00564900  0.92911000  1
  H  H24  1  0.50174000  0.87074700  0.38188500  1
  H  H25  1  0.12925300  0.63099300  0.38188500  1
  H  H26  1  0.36900700  0.49826000  0.38188500  1
  H  H27  1  0.66101767  0.00632733  0.26244333  1
  H  H28  1  0.99367267  0.65469033  0.26244333  1
  H  H29  1  0.34530967  0.33898233  0.26244333  1
  O  O30  1  0.00000000  0.00000000  0.21827300  1
  O  O31  1  0.42069567  0.88538133  0.57909033  1
  O  O32  1  0.11461867  0.53531433  0.57909033  1
  O  O33  1  0.46468567  0.57930433  0.57909033  1
  O  O34  1  0.23325767  0.20921233  0.60625433  1
  O  O35  1  0.79078767  0.02404533  0.60625433  1
  O  O36  1  0.97595467  0.76674233  0.60625433  1
  O  O37  1  0.66666667  0.33333333  0.55160633  1
  O  O38  1  0.08736233  0.21871467  0.91242367  1
  O  O39  1  0.78128533  0.86864767  0.91242367  1
  O  O40  1  0.13135233  0.91263767  0.91242367  1
  O  O41  1  0.89992433  0.54254567  0.93958767  1
  O  O42  1  0.45745433  0.35737867  0.93958767  1
  O  O43  1  0.64262133  0.10007567  0.93958767  1
  O  O44  1  0.33333333  0.66666667  0.88493967  1
  O  O45  1  0.75402900  0.55204800  0.24575700  1
  O  O46  1  0.44795200  0.20198100  0.24575700  1
  O  O47  1  0.79801900  0.24597100  0.24575700  1
  O  O48  1  0.56659100  0.87587900  0.27292100  1
  O  O49  1  0.12412100  0.69071200  0.27292100  1
  O  O50  1  0.30928800  0.43340900  0.27292100  1
