# generated using pymatgen
data_NaY2F7
_symmetry_space_group_name_H-M   'P 1'
_cell_length_a   6.90727400
_cell_length_b   3.98556000
_cell_length_c   10.90999703
_cell_angle_alpha   90.00000000
_cell_angle_beta   101.63471298
_cell_angle_gamma   90.00000000
_symmetry_Int_Tables_number   1
_chemical_formula_structural   NaY2F7
_chemical_formula_sum   'Na2 Y4 F14'
_cell_volume   294.17406221
_cell_formula_units_Z   2
loop_
 _symmetry_equiv_pos_site_id
 _symmetry_equiv_pos_as_xyz
  1  'x, y, z'
loop_
 _atom_site_type_symbol
 _atom_site_label
 _atom_site_symmetry_multiplicity
 _atom_site_fract_x
 _atom_site_fract_y
 _atom_site_fract_z
 _atom_site_occupancy
  Na  Na0  1  0.00000000  0.00000000  0.00000000  1
  Na  Na1  1  0.50000000  0.50000000  0.00000000  1
  Y  Y2  1  0.58646900  0.00000000  0.70739600  1
  Y  Y3  1  0.91353100  0.50000000  0.29260400  1
  Y  Y4  1  0.08646900  0.50000000  0.70739600  1
  Y  Y5  1  0.41353100  0.00000000  0.29260400  1
  F  F6  1  0.73829100  0.50000000  0.66564800  1
  F  F7  1  0.56606400  0.50000000  0.24406000  1
  F  F8  1  0.00000000  0.50000000  0.50000000  1
  F  F9  1  0.76170900  0.00000000  0.33435200  1
  F  F10  1  0.64228500  0.00000000  0.90755900  1
  F  F11  1  0.85771500  0.50000000  0.09244100  1
  F  F12  1  0.93393600  0.00000000  0.75594000  1
  F  F13  1  0.23829100  0.00000000  0.66564800  1
  F  F14  1  0.06606400  0.00000000  0.24406000  1
  F  F15  1  0.50000000  0.00000000  0.50000000  1
  F  F16  1  0.26170900  0.50000000  0.33435200  1
  F  F17  1  0.14228500  0.50000000  0.90755900  1
  F  F18  1  0.35771500  0.00000000  0.09244100  1
  F  F19  1  0.43393600  0.50000000  0.75594000  1
