# generated using pymatgen
data_Rb2TeH6SeO10
_symmetry_space_group_name_H-M   'P 1'
_cell_length_a   12.47840200
_cell_length_b   6.86950400
_cell_length_c   13.95289978
_cell_angle_alpha   90.00000000
_cell_angle_beta   108.36674385
_cell_angle_gamma   90.00000000
_symmetry_Int_Tables_number   1
_chemical_formula_structural   Rb2TeH6SeO10
_chemical_formula_sum   'Rb8 Te4 H24 Se4 O40'
_cell_volume   1135.12076731
_cell_formula_units_Z   4
loop_
 _symmetry_equiv_pos_site_id
 _symmetry_equiv_pos_as_xyz
  1  'x, y, z'
loop_
 _atom_site_type_symbol
 _atom_site_label
 _atom_site_symmetry_multiplicity
 _atom_site_fract_x
 _atom_site_fract_y
 _atom_site_fract_z
 _atom_site_occupancy
  Rb  Rb0  1  0.32832000  0.47805500  0.65723500  1
  Rb  Rb1  1  0.82832000  0.02194500  0.65723500  1
  Rb  Rb2  1  0.42957600  0.02496100  0.16008200  1
  Rb  Rb3  1  0.57042400  0.97503900  0.83991800  1
  Rb  Rb4  1  0.17168000  0.97805500  0.34276500  1
  Rb  Rb5  1  0.92957600  0.47503900  0.16008200  1
  Rb  Rb6  1  0.67168000  0.52194500  0.34276500  1
  Rb  Rb7  1  0.07042400  0.52496100  0.83991800  1
  Te  Te8  1  0.00000000  0.00000000  0.00000000  1
  Te  Te9  1  0.50000000  0.50000000  0.00000000  1
  Te  Te10  1  0.50000000  0.00000000  0.50000000  1
  Te  Te11  1  0.00000000  0.50000000  0.50000000  1
  H  H12  1  0.43676900  0.67126500  0.52423600  1
  H  H13  1  0.70097700  0.50776200  0.01778600  1
  H  H14  1  0.59410600  0.77214200  0.64413400  1
  H  H15  1  0.62384300  0.75327600  0.11186300  1
  H  H16  1  0.13120300  0.56652800  0.40271200  1
  H  H17  1  0.09410600  0.72785800  0.64413400  1
  H  H18  1  0.63120300  0.93347200  0.40271200  1
  H  H19  1  0.20097700  0.99223800  0.01778600  1
  H  H20  1  0.36967600  0.70680700  0.86398100  1
  H  H21  1  0.63032400  0.29319300  0.13601900  1
  H  H22  1  0.56323100  0.32873500  0.47576400  1
  H  H23  1  0.13032400  0.20680700  0.13601900  1
  H  H24  1  0.12384300  0.74672400  0.11186300  1
  H  H25  1  0.06323100  0.17126500  0.47576400  1
  H  H26  1  0.37615700  0.24672400  0.88813700  1
  H  H27  1  0.40589400  0.22785800  0.35586600  1
  H  H28  1  0.93676900  0.82873500  0.52423600  1
  H  H29  1  0.29902300  0.49223800  0.98221400  1
  H  H30  1  0.87615700  0.25327600  0.88813700  1
  H  H31  1  0.86879700  0.43347200  0.59728800  1
  H  H32  1  0.86967600  0.79319300  0.86398100  1
  H  H33  1  0.36879700  0.06652800  0.59728800  1
  H  H34  1  0.90589400  0.27214200  0.35586600  1
  H  H35  1  0.79902300  0.00776200  0.98221400  1
  Se  Se36  1  0.73548000  0.50816800  0.75006600  1
  Se  Se37  1  0.26452000  0.49183200  0.24993400  1
  Se  Se38  1  0.76452000  0.00816800  0.24993400  1
  Se  Se39  1  0.23548000  0.99183200  0.75006600  1
  O  O40  1  0.93575500  0.88552400  0.86660800  1
  O  O41  1  0.06424500  0.11447600  0.13339200  1
  O  O42  1  0.10367400  0.65099000  0.44929300  1
  O  O43  1  0.43575500  0.61447600  0.86660800  1
  O  O44  1  0.54947300  0.75860600  0.05574500  1
  O  O45  1  0.41406700  0.07921000  0.36363900  1
  O  O46  1  0.10306000  0.94899500  0.67393200  1
  O  O47  1  0.39632600  0.15099000  0.55070700  1
  O  O48  1  0.10412000  0.27830700  0.51816300  1
  O  O49  1  0.74937400  0.27748300  0.79151700  1
  O  O50  1  0.16900900  0.45009100  0.31018200  1
  O  O51  1  0.89588000  0.72169300  0.48183700  1
  O  O52  1  0.39694000  0.44899500  0.32606800  1
  O  O53  1  0.63779100  0.44995800  0.96543400  1
  O  O54  1  0.36220900  0.55004200  0.03456600  1
  O  O55  1  0.75062600  0.77748300  0.20848300  1
  O  O56  1  0.25062600  0.72251700  0.20848300  1
  O  O57  1  0.86220900  0.94995800  0.03456600  1
  O  O58  1  0.13779100  0.05004200  0.96543400  1
  O  O59  1  0.45052700  0.24139400  0.94425500  1
  O  O60  1  0.26338900  0.83362200  0.84665200  1
  O  O61  1  0.89632600  0.34901000  0.55070700  1
  O  O62  1  0.04947300  0.74139400  0.05574500  1
  O  O63  1  0.60412000  0.22169300  0.51816300  1
  O  O64  1  0.91406700  0.42079000  0.36363900  1
  O  O65  1  0.60306000  0.55100500  0.67393200  1
  O  O66  1  0.60367400  0.84901000  0.44929300  1
  O  O67  1  0.24937400  0.22251700  0.79151700  1
  O  O68  1  0.83099100  0.54990900  0.68981800  1
  O  O69  1  0.56424500  0.38552400  0.13339200  1
  O  O70  1  0.08593300  0.57921000  0.63636100  1
  O  O71  1  0.89694000  0.05100500  0.32606800  1
  O  O72  1  0.23661100  0.33362200  0.15334800  1
  O  O73  1  0.39588000  0.77830700  0.48183700  1
  O  O74  1  0.73661100  0.16637800  0.15334800  1
  O  O75  1  0.66900900  0.04990900  0.31018200  1
  O  O76  1  0.76338900  0.66637800  0.84665200  1
  O  O77  1  0.95052700  0.25860600  0.94425500  1
  O  O78  1  0.58593300  0.92079000  0.63636100  1
  O  O79  1  0.33099100  0.95009100  0.68981800  1
