# generated using pymatgen
data_Lu3NbO7
_symmetry_space_group_name_H-M   'P 1'
_cell_length_a   7.39402200
_cell_length_b   5.25385600
_cell_length_c   8.02509173
_cell_angle_alpha   90.00000000
_cell_angle_beta   117.31414361
_cell_angle_gamma   90.00000000
_symmetry_Int_Tables_number   1
_chemical_formula_structural   Lu3NbO7
_chemical_formula_sum   'Lu6 Nb2 O14'
_cell_volume   276.99267860
_cell_formula_units_Z   2
loop_
 _symmetry_equiv_pos_site_id
 _symmetry_equiv_pos_as_xyz
  1  'x, y, z'
loop_
 _atom_site_type_symbol
 _atom_site_label
 _atom_site_symmetry_multiplicity
 _atom_site_fract_x
 _atom_site_fract_y
 _atom_site_fract_z
 _atom_site_occupancy
  Lu  Lu0  1  0.00032200  0.49998200  0.99882500  1
  Lu  Lu1  1  0.50032200  0.50001800  0.99882500  1
  Lu  Lu2  1  0.37832800  0.97321800  0.25529800  1
  Lu  Lu3  1  0.87832800  0.02678200  0.25529800  1
  Lu  Lu4  1  0.12029500  0.97018200  0.74370600  1
  Lu  Lu5  1  0.62029500  0.02981800  0.74370600  1
  Nb  Nb6  1  0.22909900  0.49434100  0.49780600  1
  Nb  Nb7  1  0.72909900  0.50565900  0.49780600  1
  O  O8  1  0.25078200  0.73925200  0.99992900  1
  O  O9  1  0.16187400  0.26097600  0.25266700  1
  O  O10  1  0.75078200  0.26074800  0.99992900  1
  O  O11  1  0.01032300  0.71664800  0.52550700  1
  O  O12  1  0.66187400  0.73902400  0.25266700  1
  O  O13  1  0.59100700  0.25865700  0.25176900  1
  O  O14  1  0.90484500  0.26225600  0.74199800  1
  O  O15  1  0.49601600  0.72191200  0.47389800  1
  O  O16  1  0.51032300  0.28335200  0.52550700  1
  O  O17  1  0.09100700  0.74134300  0.25176900  1
  O  O18  1  0.34110900  0.25172800  0.75562200  1
  O  O19  1  0.40484500  0.73774400  0.74199800  1
  O  O20  1  0.99601600  0.27808800  0.47389800  1
  O  O21  1  0.84110900  0.74827200  0.75562200  1
