# generated using pymatgen
data_Na7Al12Si12H6ClO48
_symmetry_space_group_name_H-M   'P 1'
_cell_length_a   9.22842900
_cell_length_b   9.38294980
_cell_length_c   18.50251257
_cell_angle_alpha   89.86110024
_cell_angle_beta   87.27442305
_cell_angle_gamma   89.97630728
_symmetry_Int_Tables_number   1
_chemical_formula_structural   Na7Al12Si12H6ClO48
_chemical_formula_sum   'Na7 Al12 Si12 H6 Cl1 O48'
_cell_volume   1600.31326692
_cell_formula_units_Z   1
loop_
 _symmetry_equiv_pos_site_id
 _symmetry_equiv_pos_as_xyz
  1  'x, y, z'
loop_
 _atom_site_type_symbol
 _atom_site_label
 _atom_site_symmetry_multiplicity
 _atom_site_fract_x
 _atom_site_fract_y
 _atom_site_fract_z
 _atom_site_occupancy
  Na  Na0  1  0.72963800  0.29923800  0.86330600  1
  Na  Na1  1  0.26463200  0.29779800  0.13389500  1
  Na  Na2  1  0.73238300  0.26908200  0.36233700  1
  Na  Na3  1  0.19012400  0.75448500  0.09211100  1
  Na  Na4  1  0.10141500  0.78897000  0.58093100  1
  Na  Na5  1  0.81130300  0.75862400  0.91032300  1
  Na  Na6  1  0.89194100  0.79000000  0.41045000  1
  Al  Al7  1  0.76768200  0.01203000  0.73776600  1
  Al  Al8  1  0.76176200  0.00713100  0.23162100  1
  Al  Al9  1  0.23635000  0.00641100  0.76200900  1
  Al  Al10  1  0.23066800  0.01300800  0.26295700  1
  Al  Al11  1  0.49848100  0.26564000  0.99874900  1
  Al  Al12  1  0.50600100  0.26010400  0.49364500  1
  Al  Al13  1  0.96894400  0.50070300  0.63242800  1
  Al  Al14  1  0.97912200  0.50677800  0.12356500  1
  Al  Al15  1  0.01728900  0.50503100  0.87586400  1
  Al  Al16  1  0.00573800  0.50888100  0.37204700  1
  Al  Al17  1  0.49727500  0.75442400  0.99937800  1
  Al  Al18  1  0.49069500  0.74376500  0.49072000  1
  Si  Si19  1  0.99890100  0.26217400  0.75389200  1
  Si  Si20  1  0.99272500  0.26632300  0.24924600  1
  Si  Si21  1  0.74813500  0.50770200  0.00399500  1
  Si  Si22  1  0.74810800  0.50158500  0.49963100  1
  Si  Si23  1  0.24814600  0.50599200  0.99463200  1
  Si  Si24  1  0.25304300  0.50704500  0.49279000  1
  Si  Si25  1  0.00063900  0.75622500  0.75112800  1
  Si  Si26  1  0.00192700  0.75852900  0.24555400  1
  Si  Si27  1  0.51613700  0.00760800  0.61979200  1
  Si  Si28  1  0.48902600  0.00739600  0.88004000  1
  Si  Si29  1  0.48464400  0.01011200  0.37690200  1
  Si  Si30  1  0.50757400  0.00852400  0.11694100  1
  H  H31  1  0.20406900  0.44698100  0.60831600  1
  H  H32  1  0.57904400  0.77688400  0.60106500  1
  H  H33  1  0.31021300  0.90251800  0.66383900  1
  H  H34  1  0.69492500  0.92715200  0.83947700  1
  H  H35  1  0.70205800  0.93211000  0.33948400  1
  H  H36  1  0.30490700  0.92740000  0.16363800  1
  Cl  Cl37  1  0.98749300  0.96999700  0.49783300  1
  O  O38  1  0.35809600  0.99423300  0.67303100  1
  O  O39  1  0.64585200  0.01202100  0.82203900  1
  O  O40  1  0.35594700  0.01416000  0.17817500  1
  O  O41  1  0.63993100  0.00323600  0.31773000  1
  O  O42  1  0.49376700  0.15773400  0.92072300  1
  O  O43  1  0.49788500  0.16668800  0.41107600  1
  O  O44  1  0.50121600  0.13261400  0.56414200  1
  O  O45  1  0.50284700  0.16029900  0.07757400  1
  O  O46  1  0.13715800  0.15828800  0.76302800  1
  O  O47  1  0.84711800  0.17425900  0.74532100  1
  O  O48  1  0.13957800  0.17076500  0.25703900  1
  O  O49  1  0.84619300  0.16937900  0.24132500  1
  O  O50  1  0.02754100  0.36102500  0.68283400  1
  O  O51  1  0.96560900  0.35639200  0.82655000  1
  O  O52  1  0.02865200  0.36209500  0.17738800  1
  O  O53  1  0.95841400  0.35931200  0.32240300  1
  O  O54  1  0.36643500  0.38245500  0.50767700  1
  O  O55  1  0.65115200  0.37108300  0.97937700  1
  O  O56  1  0.34541000  0.36930300  0.01857400  1
  O  O57  1  0.67174600  0.34967200  0.48063600  1
  O  O58  1  0.17737200  0.47760700  0.91817000  1
  O  O59  1  0.15306200  0.48477500  0.42630000  1
  O  O60  1  0.83247100  0.49009100  0.57424200  1
  O  O61  1  0.81959200  0.47911000  0.08046800  1
  O  O62  1  0.14869800  0.50554500  0.57535900  1
  O  O63  1  0.12955200  0.52830800  0.06250600  1
  O  O64  1  0.86708500  0.53426600  0.93643500  1
  O  O65  1  0.85548400  0.54904900  0.43100500  1
  O  O66  1  0.33925400  0.65665700  0.99283100  1
  O  O67  1  0.31853700  0.66928100  0.49526800  1
  O  O68  1  0.62931700  0.63070400  0.50951700  1
  O  O69  1  0.65630900  0.65818700  0.00672600  1
  O  O70  1  0.01531900  0.66445700  0.82435400  1
  O  O71  1  0.97393600  0.66569900  0.67708100  1
  O  O72  1  0.02151800  0.66440300  0.31835300  1
  O  O73  1  0.98565300  0.66948000  0.17147100  1
  O  O74  1  0.14698900  0.85355100  0.73137300  1
  O  O75  1  0.14585900  0.86171600  0.22880100  1
  O  O76  1  0.85901400  0.86199800  0.76861100  1
  O  O77  1  0.86044900  0.86289100  0.26352500  1
  O  O78  1  0.53958200  0.86778100  0.92420200  1
  O  O79  1  0.50760600  0.84123600  0.58053900  1
  O  O80  1  0.45260800  0.87116800  0.07268300  1
  O  O81  1  0.52363600  0.87641300  0.42751300  1
  O  O82  1  0.35226100  0.98583900  0.83133500  1
  O  O83  1  0.34400600  0.98718600  0.33208000  1
  O  O84  1  0.65320900  0.99337100  0.66748500  1
  O  O85  1  0.65212100  0.98436000  0.16012800  1
