# generated using pymatgen
data_Ti3H2O7
_symmetry_space_group_name_H-M   'P 1'
_cell_length_a   16.49627400
_cell_length_b   3.78949800
_cell_length_c   9.28372420
_cell_angle_alpha   90.00000000
_cell_angle_beta   102.88121847
_cell_angle_gamma   90.00000000
_symmetry_Int_Tables_number   1
_chemical_formula_structural   Ti3H2O7
_chemical_formula_sum   'Ti12 H8 O28'
_cell_volume   565.74481951
_cell_formula_units_Z   4
loop_
 _symmetry_equiv_pos_site_id
 _symmetry_equiv_pos_as_xyz
  1  'x, y, z'
loop_
 _atom_site_type_symbol
 _atom_site_label
 _atom_site_symmetry_multiplicity
 _atom_site_fract_x
 _atom_site_fract_y
 _atom_site_fract_z
 _atom_site_occupancy
  Ti  Ti0  1  0.77846000  0.00000000  0.77810100  1
  Ti  Ti1  1  0.73068400  0.50000000  0.21059600  1
  Ti  Ti2  1  0.82902300  0.00000000  0.47017300  1
  Ti  Ti3  1  0.67365100  0.50000000  0.52741500  1
  Ti  Ti4  1  0.88225800  0.00000000  0.17526700  1
  Ti  Ti5  1  0.60449400  0.50000000  0.81755000  1
  Ti  Ti6  1  0.27846000  0.50000000  0.77810100  1
  Ti  Ti7  1  0.23068400  0.00000000  0.21059600  1
  Ti  Ti8  1  0.32902300  0.50000000  0.47017300  1
  Ti  Ti9  1  0.17365100  0.00000000  0.52741500  1
  Ti  Ti10  1  0.38225800  0.50000000  0.17526700  1
  Ti  Ti11  1  0.10449400  0.00000000  0.81755000  1
  H  H12  1  0.93415100  0.00000000  0.75828000  1
  H  H13  1  0.57409900  0.50000000  0.25023300  1
  H  H14  1  0.99651100  0.00000000  0.03657000  1
  H  H15  1  0.67762100  0.00000000  0.94626200  1
  H  H16  1  0.43415100  0.50000000  0.75828000  1
  H  H17  1  0.07409900  0.00000000  0.25023300  1
  H  H18  1  0.49651100  0.50000000  0.03657000  1
  H  H19  1  0.17762100  0.50000000  0.94626200  1
  O  O20  1  0.82763100  0.00000000  0.96544500  1
  O  O21  1  0.67055500  0.50000000  0.02874900  1
  O  O22  1  0.87048600  0.00000000  0.68387200  1
  O  O23  1  0.63414100  0.50000000  0.31380400  1
  O  O24  1  0.91608500  0.00000000  0.39050900  1
  O  O25  1  0.58463400  0.50000000  0.61010700  1
  O  O26  1  0.98835900  0.00000000  0.14110100  1
  O  O27  1  0.50621900  0.50000000  0.85321900  1
  O  O28  1  0.65183700  0.00000000  0.83924100  1
  O  O29  1  0.84751000  0.50000000  0.17788100  1
  O  O30  1  0.70630400  0.00000000  0.54845300  1
  O  O31  1  0.79279600  0.50000000  0.45242200  1
  O  O32  1  0.75678300  0.00000000  0.24991400  1
  O  O33  1  0.74609700  0.50000000  0.74280100  1
  O  O34  1  0.32763100  0.50000000  0.96544500  1
  O  O35  1  0.17055500  0.00000000  0.02874900  1
  O  O36  1  0.37048600  0.50000000  0.68387200  1
  O  O37  1  0.13414100  0.00000000  0.31380400  1
  O  O38  1  0.41608500  0.50000000  0.39050900  1
  O  O39  1  0.08463400  0.00000000  0.61010700  1
  O  O40  1  0.48835900  0.50000000  0.14110100  1
  O  O41  1  0.00621900  0.00000000  0.85321900  1
  O  O42  1  0.15183700  0.50000000  0.83924100  1
  O  O43  1  0.34751000  0.00000000  0.17788100  1
  O  O44  1  0.20630400  0.50000000  0.54845300  1
  O  O45  1  0.29279600  0.00000000  0.45242200  1
  O  O46  1  0.25678300  0.50000000  0.24991400  1
  O  O47  1  0.24609700  0.00000000  0.74280100  1
