# generated using pymatgen
data_Cs2CaH4
_symmetry_space_group_name_H-M   'P 1'
_cell_length_a   4.62425600
_cell_length_b   4.62425600
_cell_length_c   15.57748000
_cell_angle_alpha   90.00000000
_cell_angle_beta   90.00000000
_cell_angle_gamma   90.00000000
_symmetry_Int_Tables_number   1
_chemical_formula_structural   Cs2CaH4
_chemical_formula_sum   'Cs4 Ca2 H8'
_cell_volume   333.10483753
_cell_formula_units_Z   2
loop_
 _symmetry_equiv_pos_site_id
 _symmetry_equiv_pos_as_xyz
  1  'x, y, z'
loop_
 _atom_site_type_symbol
 _atom_site_label
 _atom_site_symmetry_multiplicity
 _atom_site_fract_x
 _atom_site_fract_y
 _atom_site_fract_z
 _atom_site_occupancy
  Cs  Cs0  1  0.50000000  0.50000000  0.14776200  1
  Cs  Cs1  1  0.00000000  0.00000000  0.35223800  1
  Cs  Cs2  1  0.00000000  0.00000000  0.64776200  1
  Cs  Cs3  1  0.50000000  0.50000000  0.85223800  1
  Ca  Ca4  1  0.00000000  0.00000000  0.00000000  1
  Ca  Ca5  1  0.50000000  0.50000000  0.50000000  1
  H  H6  1  0.50000000  0.50000000  0.35130900  1
  H  H7  1  0.00000000  0.00000000  0.14869100  1
  H  H8  1  0.50000000  0.00000000  0.00000000  1
  H  H9  1  0.00000000  0.50000000  0.00000000  1
  H  H10  1  0.00000000  0.00000000  0.85130900  1
  H  H11  1  0.50000000  0.50000000  0.64869100  1
  H  H12  1  0.00000000  0.50000000  0.50000000  1
  H  H13  1  0.50000000  0.00000000  0.50000000  1
