# generated using pymatgen
data_KH(IF6)2
_symmetry_space_group_name_H-M   'P 1'
_cell_length_a   9.93015600
_cell_length_b   9.93015600
_cell_length_c   10.69766000
_cell_angle_alpha   90.00000000
_cell_angle_beta   90.00000000
_cell_angle_gamma   90.00000000
_symmetry_Int_Tables_number   1
_chemical_formula_structural   KH(IF6)2
_chemical_formula_sum   'K4 H4 I8 F48'
_cell_volume   1054.87483786
_cell_formula_units_Z   4
loop_
 _symmetry_equiv_pos_site_id
 _symmetry_equiv_pos_as_xyz
  1  'x, y, z'
loop_
 _atom_site_type_symbol
 _atom_site_label
 _atom_site_symmetry_multiplicity
 _atom_site_fract_x
 _atom_site_fract_y
 _atom_site_fract_z
 _atom_site_occupancy
  K  K0  1  0.00000000  0.00000000  0.25000000  1
  K  K1  1  0.00000000  0.00000000  0.75000000  1
  K  K2  1  0.50000000  0.50000000  0.75000000  1
  K  K3  1  0.50000000  0.50000000  0.25000000  1
  H  H4  1  0.50000000  0.00000000  0.25000000  1
  H  H5  1  0.00000000  0.50000000  0.25000000  1
  H  H6  1  0.00000000  0.50000000  0.75000000  1
  H  H7  1  0.50000000  0.00000000  0.75000000  1
  I  I8  1  0.15964750  0.65964750  0.00000000  1
  I  I9  1  0.34035250  0.84035250  0.50000000  1
  I  I10  1  0.34035250  0.15964750  0.00000000  1
  I  I11  1  0.15964750  0.34035250  0.50000000  1
  I  I12  1  0.65964750  0.15964750  0.50000000  1
  I  I13  1  0.84035250  0.34035250  0.00000000  1
  I  I14  1  0.84035250  0.65964750  0.50000000  1
  I  I15  1  0.65964750  0.84035250  0.00000000  1
  F  F16  1  0.00000000  0.50000000  0.14097500  1
  F  F17  1  0.50000000  0.00000000  0.14097500  1
  F  F18  1  0.50000000  0.00000000  0.35902500  1
  F  F19  1  0.00000000  0.50000000  0.35902500  1
  F  F20  1  0.79330500  0.29330500  0.50000000  1
  F  F21  1  0.70669500  0.20669500  0.00000000  1
  F  F22  1  0.20669500  0.29330500  0.00000000  1
  F  F23  1  0.29330500  0.20669500  0.50000000  1
  F  F24  1  0.28022950  0.58425150  0.87472050  1
  F  F25  1  0.21977050  0.91574850  0.37472050  1
  F  F26  1  0.71977050  0.58425150  0.37472050  1
  F  F27  1  0.28022950  0.41574850  0.37472050  1
  F  F28  1  0.08425150  0.21977050  0.37472050  1
  F  F29  1  0.41574850  0.28022950  0.87472050  1
  F  F30  1  0.58425150  0.28022950  0.37472050  1
  F  F31  1  0.41574850  0.71977050  0.37472050  1
  F  F32  1  0.21977050  0.91574850  0.62527950  1
  F  F33  1  0.28022950  0.58425150  0.12527950  1
  F  F34  1  0.78022950  0.91574850  0.12527950  1
  F  F35  1  0.21977050  0.08425150  0.12527950  1
  F  F36  1  0.41574850  0.28022950  0.12527950  1
  F  F37  1  0.08425150  0.21977050  0.62527950  1
  F  F38  1  0.91574850  0.21977050  0.12527950  1
  F  F39  1  0.08425150  0.78022950  0.12527950  1
  F  F40  1  0.50000000  0.00000000  0.64097500  1
  F  F41  1  0.00000000  0.50000000  0.64097500  1
  F  F42  1  0.00000000  0.50000000  0.85902500  1
  F  F43  1  0.50000000  0.00000000  0.85902500  1
  F  F44  1  0.29330500  0.79330500  0.00000000  1
  F  F45  1  0.20669500  0.70669500  0.50000000  1
  F  F46  1  0.70669500  0.79330500  0.50000000  1
  F  F47  1  0.79330500  0.70669500  0.00000000  1
  F  F48  1  0.78022950  0.08425150  0.37472050  1
  F  F49  1  0.71977050  0.41574850  0.87472050  1
  F  F50  1  0.21977050  0.08425150  0.87472050  1
  F  F51  1  0.78022950  0.91574850  0.87472050  1
  F  F52  1  0.58425150  0.71977050  0.87472050  1
  F  F53  1  0.91574850  0.78022950  0.37472050  1
  F  F54  1  0.08425150  0.78022950  0.87472050  1
  F  F55  1  0.91574850  0.21977050  0.87472050  1
  F  F56  1  0.71977050  0.41574850  0.12527950  1
  F  F57  1  0.78022950  0.08425150  0.62527950  1
  F  F58  1  0.28022950  0.41574850  0.62527950  1
  F  F59  1  0.71977050  0.58425150  0.62527950  1
  F  F60  1  0.91574850  0.78022950  0.62527950  1
  F  F61  1  0.58425150  0.71977050  0.12527950  1
  F  F62  1  0.41574850  0.71977050  0.62527950  1
  F  F63  1  0.58425150  0.28022950  0.62527950  1
