# generated using pymatgen
data_In10(Pb2S7)3
_symmetry_space_group_name_H-M   'P 1'
_cell_length_a   28.03844420
_cell_length_b   3.89257900
_cell_length_c   15.97614251
_cell_angle_alpha   90.00000000
_cell_angle_beta   95.28835816
_cell_angle_gamma   90.00000000
_symmetry_Int_Tables_number   1
_chemical_formula_structural   In10(Pb2S7)3
_chemical_formula_sum   'In20 Pb12 S42'
_cell_volume   1736.24388713
_cell_formula_units_Z   2
loop_
 _symmetry_equiv_pos_site_id
 _symmetry_equiv_pos_as_xyz
  1  'x, y, z'
loop_
 _atom_site_type_symbol
 _atom_site_label
 _atom_site_symmetry_multiplicity
 _atom_site_fract_x
 _atom_site_fract_y
 _atom_site_fract_z
 _atom_site_occupancy
  In  In0  1  0.80744900  0.50000000  0.51464800  1
  In  In1  1  0.98296000  0.50000000  0.87131000  1
  In  In2  1  0.78149000  0.00000000  0.30756800  1
  In  In3  1  0.71083150  0.50000000  0.69404000  1
  In  In4  1  0.59649850  0.50000000  0.98236500  1
  In  In5  1  0.76180350  0.50000000  0.10751000  1
  In  In6  1  0.68390950  0.00000000  0.48621600  1
  In  In7  1  0.73216800  0.00000000  0.89346700  1
  In  In8  1  0.89759750  0.00000000  0.01889400  1
  In  In9  1  0.50959900  0.00000000  0.12923100  1
  In  In10  1  0.30744900  0.00000000  0.51464800  1
  In  In11  1  0.48296000  0.00000000  0.87131000  1
  In  In12  1  0.28149000  0.50000000  0.30756800  1
  In  In13  1  0.21083150  0.00000000  0.69404000  1
  In  In14  1  0.09649850  0.00000000  0.98236500  1
  In  In15  1  0.26180350  0.00000000  0.10751000  1
  In  In16  1  0.18390950  0.50000000  0.48621600  1
  In  In17  1  0.23216800  0.50000000  0.89346700  1
  In  In18  1  0.39759750  0.50000000  0.01889400  1
  In  In19  1  0.00959900  0.50000000  0.12923100  1
  Pb  Pb20  1  0.92223500  0.00000000  0.29439100  1
  Pb  Pb21  1  0.85959800  0.00000000  0.75866500  1
  Pb  Pb22  1  0.57074050  0.50000000  0.70429600  1
  Pb  Pb23  1  0.63485400  0.50000000  0.24337100  1
  Pb  Pb24  1  0.94582000  0.00000000  0.56985000  1
  Pb  Pb25  1  0.54518300  0.50000000  0.43148000  1
  Pb  Pb26  1  0.42223500  0.50000000  0.29439100  1
  Pb  Pb27  1  0.35959800  0.50000000  0.75866500  1
  Pb  Pb28  1  0.07074050  0.00000000  0.70429600  1
  Pb  Pb29  1  0.13485400  0.00000000  0.24337100  1
  Pb  Pb30  1  0.44582000  0.50000000  0.56985000  1
  Pb  Pb31  1  0.04518300  0.00000000  0.43148000  1
  S  S32  1  0.53099900  0.00000000  0.59233100  1
  S  S33  1  0.89437750  0.50000000  0.90431100  1
  S  S34  1  0.96077350  0.50000000  0.40779000  1
  S  S35  1  0.66869400  0.00000000  0.76353300  1
  S  S36  1  0.71545250  0.00000000  0.18769700  1
  S  S37  1  0.75979950  0.00000000  0.59823900  1
  S  S38  1  0.77755700  0.50000000  0.81283200  1
  S  S39  1  0.91751250  0.50000000  0.12649400  1
  S  S40  1  0.87709850  0.50000000  0.63221600  1
  S  S41  1  0.69254000  0.50000000  0.97755300  1
  S  S42  1  0.97025250  0.00000000  0.76367600  1
  S  S43  1  0.82403150  0.50000000  0.23877500  1
  S  S44  1  0.80124650  0.00000000  0.02364000  1
  S  S45  1  0.59826250  0.00000000  0.09671600  1
  S  S46  1  0.99595500  0.00000000  0.00010100  1
  S  S47  1  0.64706950  0.50000000  0.56691200  1
  S  S48  1  0.61485600  0.00000000  0.36847600  1
  S  S49  1  0.52209650  0.50000000  0.23642400  1
  S  S50  1  0.57501350  0.00000000  0.87505100  1
  S  S51  1  0.84481850  0.00000000  0.43507900  1
  S  S52  1  0.73166750  0.50000000  0.40198200  1
  S  S53  1  0.03099900  0.50000000  0.59233100  1
  S  S54  1  0.39437750  0.00000000  0.90431100  1
  S  S55  1  0.46077350  0.00000000  0.40779000  1
  S  S56  1  0.16869400  0.50000000  0.76353300  1
  S  S57  1  0.21545250  0.50000000  0.18769700  1
  S  S58  1  0.25979950  0.50000000  0.59823900  1
  S  S59  1  0.27755700  0.00000000  0.81283200  1
  S  S60  1  0.41751250  0.00000000  0.12649400  1
  S  S61  1  0.37709850  0.00000000  0.63221600  1
  S  S62  1  0.19254000  0.00000000  0.97755300  1
  S  S63  1  0.47025250  0.50000000  0.76367600  1
  S  S64  1  0.32403150  0.00000000  0.23877500  1
  S  S65  1  0.30124650  0.50000000  0.02364000  1
  S  S66  1  0.09826250  0.50000000  0.09671600  1
  S  S67  1  0.49595500  0.50000000  0.00010100  1
  S  S68  1  0.14706950  0.00000000  0.56691200  1
  S  S69  1  0.11485600  0.50000000  0.36847600  1
  S  S70  1  0.02209650  0.00000000  0.23642400  1
  S  S71  1  0.07501350  0.50000000  0.87505100  1
  S  S72  1  0.34481850  0.50000000  0.43507900  1
  S  S73  1  0.23166750  0.00000000  0.40198200  1
