# generated using pymatgen
data_Sc2S3
_symmetry_space_group_name_H-M   'P 1'
_cell_length_a   6.40814800
_cell_length_b   11.09510600
_cell_length_c   6.37877389
_cell_angle_alpha   90.00000000
_cell_angle_beta   109.45635936
_cell_angle_gamma   90.00000000
_symmetry_Int_Tables_number   1
_chemical_formula_structural   Sc2S3
_chemical_formula_sum   'Sc8 S12'
_cell_volume   427.62663331
_cell_formula_units_Z   4
loop_
 _symmetry_equiv_pos_site_id
 _symmetry_equiv_pos_as_xyz
  1  'x, y, z'
loop_
 _atom_site_type_symbol
 _atom_site_label
 _atom_site_symmetry_multiplicity
 _atom_site_fract_x
 _atom_site_fract_y
 _atom_site_fract_z
 _atom_site_occupancy
  Sc  Sc0  1  0.50000000  0.83383400  0.50000000  1
  Sc  Sc1  1  0.50000000  0.16616600  0.50000000  1
  Sc  Sc2  1  0.00000000  0.00000000  0.50000000  1
  Sc  Sc3  1  0.50000000  0.00000000  0.00000000  1
  Sc  Sc4  1  0.00000000  0.33383400  0.50000000  1
  Sc  Sc5  1  0.00000000  0.66616600  0.50000000  1
  Sc  Sc6  1  0.50000000  0.50000000  0.50000000  1
  Sc  Sc7  1  0.00000000  0.50000000  0.00000000  1
  S  S8  1  0.25326200  0.83824600  0.74329200  1
  S  S9  1  0.25326200  0.16175400  0.74329200  1
  S  S10  1  0.73860600  0.00000000  0.74563600  1
  S  S11  1  0.74673800  0.16175400  0.25670800  1
  S  S12  1  0.26139400  0.00000000  0.25436400  1
  S  S13  1  0.74673800  0.83824600  0.25670800  1
  S  S14  1  0.75326200  0.33824600  0.74329200  1
  S  S15  1  0.75326200  0.66175400  0.74329200  1
  S  S16  1  0.23860600  0.50000000  0.74563600  1
  S  S17  1  0.24673800  0.66175400  0.25670800  1
  S  S18  1  0.76139400  0.50000000  0.25436400  1
  S  S19  1  0.24673800  0.33824600  0.25670800  1
