# generated using pymatgen
data_In(HO)3
_symmetry_space_group_name_H-M   'P 1'
_cell_length_a   11.42066188
_cell_length_b   11.42066188
_cell_length_c   7.02077745
_cell_angle_alpha   90.00000000
_cell_angle_beta   90.00000000
_cell_angle_gamma   120.00000000
_symmetry_Int_Tables_number   1
_chemical_formula_structural   In(HO)3
_chemical_formula_sum   'In12 H36 O36'
_cell_volume   793.04601287
_cell_formula_units_Z   12
loop_
 _symmetry_equiv_pos_site_id
 _symmetry_equiv_pos_as_xyz
  1  'x, y, z'
loop_
 _atom_site_type_symbol
 _atom_site_label
 _atom_site_symmetry_multiplicity
 _atom_site_fract_x
 _atom_site_fract_y
 _atom_site_fract_z
 _atom_site_occupancy
  In  In0  1  0.83333333  0.16666667  0.16666667  1
  In  In1  1  0.00000000  0.00000000  0.50000000  1
  In  In2  1  0.33333333  0.16666667  0.16666667  1
  In  In3  1  0.83333333  0.66666667  0.16666667  1
  In  In4  1  0.50000000  0.50000000  0.50000000  1
  In  In5  1  0.66666667  0.33333333  0.83333333  1
  In  In6  1  0.00000000  0.50000000  0.50000000  1
  In  In7  1  0.50000000  0.00000000  0.50000000  1
  In  In8  1  0.16666667  0.83333333  0.83333333  1
  In  In9  1  0.33333333  0.66666667  0.16666667  1
  In  In10  1  0.66666667  0.83333333  0.83333333  1
  In  In11  1  0.16666667  0.33333333  0.83333333  1
  H  H12  1  0.96730867  0.76116033  0.58669633  1
  H  H13  1  0.03269133  0.23883967  0.41330367  1
  H  H14  1  0.19686700  0.44005000  0.48635500  1
  H  H15  1  0.80313300  0.55995000  0.51364500  1
  H  H16  1  0.44005000  0.24318300  0.51364500  1
  H  H17  1  0.55995000  0.75681700  0.48635500  1
  H  H18  1  0.76116033  0.79385167  0.41330367  1
  H  H19  1  0.23883967  0.20614833  0.58669633  1
  H  H20  1  0.20614833  0.96730867  0.41330367  1
  H  H21  1  0.79385167  0.03269133  0.58669633  1
  H  H22  1  0.75681700  0.19686700  0.51364500  1
  H  H23  1  0.24318300  0.80313300  0.48635500  1
  H  H24  1  0.63397533  0.09449367  0.92002967  1
  H  H25  1  0.69935800  0.57217300  0.74663700  1
  H  H26  1  0.86353367  0.77338333  0.81968833  1
  H  H27  1  0.46979967  0.89328333  0.84697833  1
  H  H28  1  0.10671667  0.57651633  0.84697833  1
  H  H29  1  0.22661667  0.09015033  0.81968833  1
  H  H30  1  0.42782700  0.12718500  0.74663700  1
  H  H31  1  0.90550633  0.53948167  0.92002967  1
  H  H32  1  0.87281500  0.30064200  0.74663700  1
  H  H33  1  0.46051833  0.36602467  0.92002967  1
  H  H34  1  0.42348367  0.53020033  0.84697833  1
  H  H35  1  0.90984967  0.13646633  0.81968833  1
  H  H36  1  0.30064200  0.42782700  0.25336300  1
  H  H37  1  0.36602467  0.90550633  0.07997033  1
  H  H38  1  0.53020033  0.10671667  0.15302167  1
  H  H39  1  0.13646633  0.22661667  0.18031167  1
  H  H40  1  0.77338333  0.90984967  0.18031167  1
  H  H41  1  0.89328333  0.42348367  0.15302167  1
  H  H42  1  0.09449367  0.46051833  0.07997033  1
  H  H43  1  0.57217300  0.87281500  0.25336300  1
  H  H44  1  0.53948167  0.63397533  0.07997033  1
  H  H45  1  0.12718500  0.69935800  0.25336300  1
  H  H46  1  0.09015033  0.86353367  0.18031167  1
  H  H47  1  0.57651633  0.46979967  0.15302167  1
  O  O48  1  0.00387867  0.84056533  0.67238733  1
  O  O49  1  0.99612133  0.15943467  0.32761267  1
  O  O50  1  0.11232533  0.39541067  0.56416167  1
  O  O51  1  0.88767467  0.60458933  0.43583833  1
  O  O52  1  0.39541067  0.28308533  0.43583833  1
  O  O53  1  0.60458933  0.71691467  0.56416167  1
  O  O54  1  0.84056533  0.83668667  0.32761267  1
  O  O55  1  0.15943467  0.16331333  0.67238733  1
  O  O56  1  0.16331333  0.00387867  0.32761267  1
  O  O57  1  0.83668667  0.99612133  0.67238733  1
  O  O58  1  0.71691467  0.11232533  0.43583833  1
  O  O59  1  0.28308533  0.88767467  0.56416167  1
  O  O60  1  0.67054533  0.17389867  0.00572067  1
  O  O61  1  0.66278800  0.49276800  0.66094600  1
  O  O62  1  0.77899200  0.72874400  0.89749500  1
  O  O63  1  0.55434133  0.93792267  0.76917167  1
  O  O64  1  0.06207733  0.61641867  0.76917167  1
  O  O65  1  0.27125600  0.05024800  0.89749500  1
  O  O66  1  0.50723200  0.17002000  0.66094600  1
  O  O67  1  0.82610133  0.49664667  0.00572067  1
  O  O68  1  0.82998000  0.33721200  0.66094600  1
  O  O69  1  0.50335333  0.32945467  0.00572067  1
  O  O70  1  0.38358133  0.44565867  0.76917167  1
  O  O71  1  0.94975200  0.22100800  0.89749500  1
  O  O72  1  0.33721200  0.50723200  0.33905400  1
  O  O73  1  0.32945467  0.82610133  0.99427933  1
  O  O74  1  0.44565867  0.06207733  0.23082833  1
  O  O75  1  0.22100800  0.27125600  0.10250500  1
  O  O76  1  0.72874400  0.94975200  0.10250500  1
  O  O77  1  0.93792267  0.38358133  0.23082833  1
  O  O78  1  0.17389867  0.50335333  0.99427933  1
  O  O79  1  0.49276800  0.82998000  0.33905400  1
  O  O80  1  0.49664667  0.67054533  0.99427933  1
  O  O81  1  0.17002000  0.66278800  0.33905400  1
  O  O82  1  0.05024800  0.77899200  0.10250500  1
  O  O83  1  0.61641867  0.55434133  0.23082833  1
