# generated using pymatgen
data_Sr7SmFe4(MoO6)4
_symmetry_space_group_name_H-M   'P 1'
_cell_length_a   5.63251574
_cell_length_b   5.67798968
_cell_length_c   18.74907361
_cell_angle_alpha   97.57096284
_cell_angle_beta   90.43684666
_cell_angle_gamma   119.53526730
_symmetry_Int_Tables_number   1
_chemical_formula_structural   Sr7SmFe4(MoO6)4
_chemical_formula_sum   'Sr7 Sm1 Fe4 Mo4 O24'
_cell_volume   515.31958890
_cell_formula_units_Z   1
loop_
 _symmetry_equiv_pos_site_id
 _symmetry_equiv_pos_as_xyz
  1  'x, y, z'
loop_
 _atom_site_type_symbol
 _atom_site_label
 _atom_site_symmetry_multiplicity
 _atom_site_fract_x
 _atom_site_fract_y
 _atom_site_fract_z
 _atom_site_occupancy
  Sr  Sr0  1  0.12599800  0.06395300  0.80874200  1
  Sr  Sr1  1  0.62351800  0.81374500  0.56355400  1
  Sr  Sr2  1  0.13540600  0.56543800  0.30383100  1
  Sr  Sr3  1  0.61958200  0.30875000  0.07499100  1
  Sr  Sr4  1  0.86885400  0.43855800  0.68665400  1
  Sr  Sr5  1  0.37243400  0.68137100  0.93629700  1
  Sr  Sr6  1  0.38019600  0.18944200  0.43872000  1
  Sm  Sm7  1  0.85775400  0.93870500  0.18673500  1
  Fe  Fe8  1  0.50250300  0.74888100  0.75080300  1
  Fe  Fe9  1  0.99894600  0.50400000  0.50019300  1
  Fe  Fe10  1  0.50258700  0.24910900  0.24924300  1
  Fe  Fe11  1  0.24851200  0.61753900  0.12936000  1
  Mo  Mo12  1  0.99808700  0.99479100  0.00265900  1
  Mo  Mo13  1  0.74824800  0.37370500  0.87338100  1
  Mo  Mo14  1  0.24708600  0.12752700  0.62418100  1
  Mo  Mo15  1  0.75270500  0.87700600  0.37480500  1
  O  O16  1  0.86503400  0.67844600  0.94027200  1
  O  O17  1  0.36908000  0.44284800  0.68462100  1
  O  O18  1  0.87076700  0.18277000  0.43513600  1
  O  O19  1  0.44152100  0.92796600  0.18841800  1
  O  O20  1  0.14449100  0.53276400  0.82350900  1
  O  O21  1  0.64574600  0.28251300  0.56965800  1
  O  O22  1  0.12984000  0.01246400  0.32968400  1
  O  O23  1  0.66023300  0.77310700  0.07775700  1
  O  O24  1  0.81205300  0.14136900  0.95237600  1
  O  O25  1  0.31307000  0.91784900  0.69208900  1
  O  O26  1  0.80254700  0.65770100  0.44749400  1
  O  O27  1  0.26601700  0.34581400  0.19536500  1
  O  O28  1  0.61567000  0.06351400  0.81201600  1
  O  O29  1  0.12352500  0.81367100  0.55976500  1
  O  O30  1  0.62111100  0.58142100  0.31506100  1
  O  O31  1  0.10430900  0.30102500  0.06576800  1
  O  O32  1  0.69671200  0.60442000  0.79821500  1
  O  O33  1  0.18688500  0.33602700  0.55049300  1
  O  O34  1  0.70466500  0.09386900  0.30363900  1
  O  O35  1  0.20074800  0.85873300  0.04804400  1
  O  O36  1  0.34662700  0.21814700  0.92495900  1
  O  O37  1  0.85299500  0.97733100  0.67513900  1
  O  O38  1  0.36336900  0.72404600  0.42607600  1
  O  O39  1  0.88056600  0.53966200  0.18029800  1
