# generated using pymatgen
data_H2SO4
_symmetry_space_group_name_H-M   'P 1'
_cell_length_a   8.24960000
_cell_length_b   4.84523400
_cell_length_c   8.89304833
_cell_angle_alpha   90.00000000
_cell_angle_beta   110.56036829
_cell_angle_gamma   90.00000000
_symmetry_Int_Tables_number   1
_chemical_formula_structural   H2SO4
_chemical_formula_sum   'H8 S4 O16'
_cell_volume   332.82394745
_cell_formula_units_Z   4
loop_
 _symmetry_equiv_pos_site_id
 _symmetry_equiv_pos_as_xyz
  1  'x, y, z'
loop_
 _atom_site_type_symbol
 _atom_site_label
 _atom_site_symmetry_multiplicity
 _atom_site_fract_x
 _atom_site_fract_y
 _atom_site_fract_z
 _atom_site_occupancy
  H  H0  1  0.13761850  0.66276950  0.64216400  1
  H  H1  1  0.86238150  0.66276950  0.85783600  1
  H  H2  1  0.36238150  0.83723050  0.35783600  1
  H  H3  1  0.63761850  0.83723050  0.14216400  1
  H  H4  1  0.63761850  0.16276950  0.64216400  1
  H  H5  1  0.36238150  0.16276950  0.85783600  1
  H  H6  1  0.86238150  0.33723050  0.35783600  1
  H  H7  1  0.13761850  0.33723050  0.14216400  1
  S  S8  1  0.00000000  0.92966800  0.75000000  1
  S  S9  1  0.50000000  0.57033200  0.25000000  1
  S  S10  1  0.50000000  0.42966800  0.75000000  1
  S  S11  1  0.00000000  0.07033200  0.25000000  1
  O  O12  1  0.01596800  0.73364100  0.61618400  1
  O  O13  1  0.98403200  0.73364100  0.88381600  1
  O  O14  1  0.48403200  0.76635900  0.38381600  1
  O  O15  1  0.51596800  0.76635900  0.11618400  1
  O  O16  1  0.84313400  0.08384000  0.67670700  1
  O  O17  1  0.65686600  0.58384000  0.82329300  1
  O  O18  1  0.65686600  0.41616000  0.32329300  1
  O  O19  1  0.84313400  0.91616000  0.17670700  1
  O  O20  1  0.51596800  0.23364100  0.61618400  1
  O  O21  1  0.48403200  0.23364100  0.88381600  1
  O  O22  1  0.98403200  0.26635900  0.38381600  1
  O  O23  1  0.01596800  0.26635900  0.11618400  1
  O  O24  1  0.34313400  0.58384000  0.67670700  1
  O  O25  1  0.15686600  0.08384000  0.82329300  1
  O  O26  1  0.15686600  0.91616000  0.32329300  1
  O  O27  1  0.34313400  0.41616000  0.17670700  1
