# generated using pymatgen
data_Nb2Pb3O8
_symmetry_space_group_name_H-M   'P 1'
_cell_length_a   7.64504900
_cell_length_b   7.67507500
_cell_length_c   10.84602351
_cell_angle_alpha   90.00000000
_cell_angle_beta   90.06743836
_cell_angle_gamma   90.00000000
_symmetry_Int_Tables_number   1
_chemical_formula_structural   Nb2Pb3O8
_chemical_formula_sum   'Nb6 Pb9 O24'
_cell_volume   636.40435385
_cell_formula_units_Z   3
loop_
 _symmetry_equiv_pos_site_id
 _symmetry_equiv_pos_as_xyz
  1  'x, y, z'
loop_
 _atom_site_type_symbol
 _atom_site_label
 _atom_site_symmetry_multiplicity
 _atom_site_fract_x
 _atom_site_fract_y
 _atom_site_fract_z
 _atom_site_occupancy
  Nb  Nb0  1  0.24165000  0.99105800  0.25126900  1
  Nb  Nb1  1  0.75096800  0.49095000  0.75529100  1
  Nb  Nb2  1  0.75835000  0.99105800  0.74873100  1
  Nb  Nb3  1  0.00000000  0.25681900  0.50000000  1
  Nb  Nb4  1  0.00000000  0.74818200  0.00000000  1
  Nb  Nb5  1  0.24903200  0.49095000  0.24470900  1
  Pb  Pb6  1  0.27182700  0.01083300  0.74886600  1
  Pb  Pb7  1  0.26549700  0.49480300  0.75313800  1
  Pb  Pb8  1  0.50000000  0.75283800  0.00000000  1
  Pb  Pb9  1  0.50000000  0.25050000  0.50000000  1
  Pb  Pb10  1  0.50000000  0.74873700  0.50000000  1
  Pb  Pb11  1  0.50000000  0.24197400  0.00000000  1
  Pb  Pb12  1  0.73450300  0.49480300  0.24686200  1
  Pb  Pb13  1  0.72817300  0.01083300  0.25113400  1
  Pb  Pb14  1  0.00000000  0.74820600  0.50000000  1
  O  O15  1  0.23471800  0.74582900  0.92168100  1
  O  O16  1  0.54864300  0.54381200  0.86832500  1
  O  O17  1  0.54409700  0.46591200  0.63030300  1
  O  O18  1  0.55033100  0.96296000  0.86966500  1
  O  O19  1  0.75680000  0.75059800  0.68454200  1
  O  O20  1  0.45590300  0.46591200  0.36969700  1
  O  O21  1  0.54227200  0.03747700  0.63220400  1
  O  O22  1  0.24320000  0.75059800  0.31545800  1
  O  O23  1  0.45135700  0.54381200  0.13167500  1
  O  O24  1  0.45772800  0.03747700  0.36779600  1
  O  O25  1  0.44966900  0.96296000  0.13033500  1
  O  O26  1  0.76525000  0.24752100  0.41992800  1
  O  O27  1  0.76528200  0.74582900  0.07831900  1
  O  O28  1  0.07604400  0.06206300  0.38200400  1
  O  O29  1  0.07707200  0.93224500  0.12358800  1
  O  O30  1  0.07452700  0.44235600  0.38279600  1
  O  O31  1  0.25293600  0.25037400  0.20308600  1
  O  O32  1  0.92292800  0.93224500  0.87641200  1
  O  O33  1  0.07362100  0.56920600  0.12733800  1
  O  O34  1  0.74706400  0.25037400  0.79691400  1
  O  O35  1  0.92395600  0.06206300  0.61799600  1
  O  O36  1  0.92637900  0.56920600  0.87266200  1
  O  O37  1  0.92547300  0.44235600  0.61720400  1
  O  O38  1  0.23475000  0.24752100  0.58007200  1
