# generated using pymatgen
data_Sc11Nb3O24
_symmetry_space_group_name_H-M   'P 1'
_cell_length_a   7.94544400
_cell_length_b   7.96721519
_cell_length_c   7.98355575
_cell_angle_alpha   71.71544245
_cell_angle_beta   71.96527266
_cell_angle_gamma   72.00880059
_symmetry_Int_Tables_number   1
_chemical_formula_structural   Sc11Nb3O24
_chemical_formula_sum   'Sc11 Nb3 O24'
_cell_volume   443.56490501
_cell_formula_units_Z   1
loop_
 _symmetry_equiv_pos_site_id
 _symmetry_equiv_pos_as_xyz
  1  'x, y, z'
loop_
 _atom_site_type_symbol
 _atom_site_label
 _atom_site_symmetry_multiplicity
 _atom_site_fract_x
 _atom_site_fract_y
 _atom_site_fract_z
 _atom_site_occupancy
  Sc  Sc0  1  0.39378600  0.92726000  0.21916600  1
  Sc  Sc1  1  0.71307900  0.89596600  0.43156300  1
  Sc  Sc2  1  0.41941100  0.71903700  0.89751700  1
  Sc  Sc3  1  0.06970200  0.78975800  0.60319400  1
  Sc  Sc4  1  0.89526400  0.42607500  0.70794800  1
  Sc  Sc5  1  0.21826400  0.39264400  0.93162100  1
  Sc  Sc6  1  0.10564700  0.57334900  0.28634700  1
  Sc  Sc7  1  0.92878800  0.21046400  0.39877100  1
  Sc  Sc8  1  0.57220200  0.28005300  0.10419100  1
  Sc  Sc9  1  0.28610900  0.10294500  0.57172000  1
  Sc  Sc10  1  0.60559000  0.07887900  0.77910200  1
  Nb  Nb11  1  0.00081200  0.00661400  0.99672000  1
  Nb  Nb12  1  0.49429700  0.50449400  0.50807000  1
  Nb  Nb13  1  0.78402800  0.60225700  0.07310200  1
  O  O14  1  0.13459600  0.91204400  0.77305200  1
  O  O15  1  0.59045400  0.72599300  0.36159200  1
  O  O16  1  0.50791600  0.91152300  0.67559900  1
  O  O17  1  0.22889500  0.86483800  0.08608700  1
  O  O18  1  0.82950200  0.99249400  0.58817000  1
  O  O19  1  0.91347700  0.67009400  0.50894800  1
  O  O20  1  0.59894700  0.82233400  0.99715300  1
  O  O21  1  0.67501900  0.51064200  0.91538200  1
  O  O22  1  0.27284400  0.63269600  0.41392500  1
  O  O23  1  0.98123100  0.59256000  0.84157900  1
  O  O24  1  0.91064400  0.76526200  0.12447100  1
  O  O25  1  0.64476400  0.42499100  0.25787600  1
  O  O26  1  0.36532400  0.58663200  0.72980100  1
  O  O27  1  0.08499200  0.23172500  0.86550900  1
  O  O28  1  0.00116600  0.41473000  0.17006100  1
  O  O29  1  0.72690800  0.36412000  0.58582600  1
  O  O30  1  0.32851000  0.48976800  0.08707000  1
  O  O31  1  0.41174000  0.16763500  0.00629200  1
  O  O32  1  0.08802900  0.32852600  0.49017900  1
  O  O33  1  0.17104200  0.00518900  0.41326400  1
  O  O34  1  0.77094800  0.13491800  0.91301600  1
  O  O35  1  0.49276800  0.08737500  0.32978800  1
  O  O36  1  0.41575900  0.27301800  0.62785100  1
  O  O37  1  0.86754500  0.08109900  0.22847800  1
