# generated using pymatgen
data_AgNO3
_symmetry_space_group_name_H-M   'P 1'
_cell_length_a   7.07777900
_cell_length_b   7.41914300
_cell_length_c   10.22652200
_cell_angle_alpha   90.00000000
_cell_angle_beta   90.00000000
_cell_angle_gamma   90.00000000
_symmetry_Int_Tables_number   1
_chemical_formula_structural   AgNO3
_chemical_formula_sum   'Ag8 N8 O24'
_cell_volume   537.00545433
_cell_formula_units_Z   8
loop_
 _symmetry_equiv_pos_site_id
 _symmetry_equiv_pos_as_xyz
  1  'x, y, z'
loop_
 _atom_site_type_symbol
 _atom_site_label
 _atom_site_symmetry_multiplicity
 _atom_site_fract_x
 _atom_site_fract_y
 _atom_site_fract_z
 _atom_site_occupancy
  Ag  Ag0  1  0.86877400  0.50993100  0.12941000  1
  Ag  Ag1  1  0.63426500  0.01048300  0.12848700  1
  Ag  Ag2  1  0.36573500  0.51048300  0.37151300  1
  Ag  Ag3  1  0.13122600  0.00993100  0.37059000  1
  Ag  Ag4  1  0.86573500  0.98951700  0.62848700  1
  Ag  Ag5  1  0.13426500  0.48951700  0.87151300  1
  Ag  Ag6  1  0.63122600  0.49006900  0.62941000  1
  Ag  Ag7  1  0.36877400  0.99006900  0.87059000  1
  N  N8  1  0.62875100  0.36407900  0.90584400  1
  N  N9  1  0.88067200  0.85679000  0.90951000  1
  N  N10  1  0.12875100  0.13592100  0.09415600  1
  N  N11  1  0.87124900  0.63592100  0.40584400  1
  N  N12  1  0.38067200  0.64321000  0.09049000  1
  N  N13  1  0.61932800  0.14321000  0.40951000  1
  N  N14  1  0.11932800  0.35679000  0.59049000  1
  N  N15  1  0.37124900  0.86407900  0.59415600  1
  O  O16  1  0.01634300  0.29182600  0.68099200  1
  O  O17  1  0.25549400  0.52757800  0.11956200  1
  O  O18  1  0.48775100  0.79329500  0.67293200  1
  O  O19  1  0.62785600  0.32265300  0.02649100  1
  O  O20  1  0.12785600  0.17734700  0.97350900  1
  O  O21  1  0.87214400  0.67734700  0.52649100  1
  O  O22  1  0.51224900  0.29329500  0.82706800  1
  O  O23  1  0.51634300  0.20817400  0.31900800  1
  O  O24  1  0.37214400  0.82265300  0.47350900  1
  O  O25  1  0.24573000  0.01934600  0.13610800  1
  O  O26  1  0.48365700  0.70817400  0.18099200  1
  O  O27  1  0.40470700  0.68886800  0.97198200  1
  O  O28  1  0.74573000  0.48065400  0.86389200  1
  O  O29  1  0.98775100  0.70670500  0.32706800  1
  O  O30  1  0.09529300  0.31113200  0.47198200  1
  O  O31  1  0.01224900  0.20670500  0.17293200  1
  O  O32  1  0.75427000  0.51934600  0.36389200  1
  O  O33  1  0.24450600  0.47242200  0.61956200  1
  O  O34  1  0.74450600  0.02757800  0.38043800  1
  O  O35  1  0.75549400  0.97242200  0.88043800  1
  O  O36  1  0.98365700  0.79182600  0.81900800  1
  O  O37  1  0.90470700  0.81113200  0.02801800  1
  O  O38  1  0.25427000  0.98065400  0.63610800  1
  O  O39  1  0.59529300  0.18886800  0.52801800  1
