# generated using pymatgen
data_Zn2SiH2O5
_symmetry_space_group_name_H-M   'P 1'
_cell_length_a   5.17257800
_cell_length_b   8.51610200
_cell_length_c   10.88121200
_cell_angle_alpha   90.00000000
_cell_angle_beta   90.00000000
_cell_angle_gamma   90.00000000
_symmetry_Int_Tables_number   1
_chemical_formula_structural   Zn2SiH2O5
_chemical_formula_sum   'Zn8 Si4 H8 O20'
_cell_volume   479.31958498
_cell_formula_units_Z   4
loop_
 _symmetry_equiv_pos_site_id
 _symmetry_equiv_pos_as_xyz
  1  'x, y, z'
loop_
 _atom_site_type_symbol
 _atom_site_label
 _atom_site_symmetry_multiplicity
 _atom_site_fract_x
 _atom_site_fract_y
 _atom_site_fract_z
 _atom_site_occupancy
  Zn  Zn0  1  0.49656000  0.29654000  0.83724200  1
  Zn  Zn1  1  0.49656000  0.70346000  0.16275800  1
  Zn  Zn2  1  0.49656000  0.70346000  0.83724200  1
  Zn  Zn3  1  0.49656000  0.29654000  0.16275800  1
  Zn  Zn4  1  0.99656000  0.79654000  0.33724200  1
  Zn  Zn5  1  0.99656000  0.20346000  0.66275800  1
  Zn  Zn6  1  0.99656000  0.20346000  0.33724200  1
  Zn  Zn7  1  0.99656000  0.79654000  0.66275800  1
  Si  Si8  1  0.99167000  0.50000000  0.85401600  1
  Si  Si9  1  0.99167000  0.50000000  0.14598400  1
  Si  Si10  1  0.49167000  0.00000000  0.35401600  1
  Si  Si11  1  0.49167000  0.00000000  0.64598400  1
  H  H12  1  0.31888400  0.12396400  0.00000000  1
  H  H13  1  0.31888400  0.87603600  0.00000000  1
  H  H14  1  0.85286300  0.08926500  0.00000000  1
  H  H15  1  0.85286300  0.91073500  0.00000000  1
  H  H16  1  0.81888400  0.62396400  0.50000000  1
  H  H17  1  0.81888400  0.37603600  0.50000000  1
  H  H18  1  0.35286300  0.58926500  0.50000000  1
  H  H19  1  0.35286300  0.41073500  0.50000000  1
  O  O20  1  0.86354250  0.34002650  0.79562150  1
  O  O21  1  0.86354250  0.65997350  0.20437850  1
  O  O22  1  0.86354250  0.65997350  0.79562150  1
  O  O23  1  0.86354250  0.34002650  0.20437850  1
  O  O24  1  0.30534600  0.50000000  0.83353500  1
  O  O25  1  0.30534600  0.50000000  0.16646500  1
  O  O26  1  0.46598950  0.19631550  0.00000000  1
  O  O27  1  0.46598950  0.80368450  0.00000000  1
  O  O28  1  0.91075700  0.50000000  0.00000000  1
  O  O29  1  0.97301600  0.00000000  0.00000000  1
  O  O30  1  0.36354250  0.84002650  0.29562150  1
  O  O31  1  0.36354250  0.15997350  0.70437850  1
  O  O32  1  0.36354250  0.15997350  0.29562150  1
  O  O33  1  0.36354250  0.84002650  0.70437850  1
  O  O34  1  0.80534600  0.00000000  0.33353500  1
  O  O35  1  0.80534600  0.00000000  0.66646500  1
  O  O36  1  0.96598950  0.69631550  0.50000000  1
  O  O37  1  0.96598950  0.30368450  0.50000000  1
  O  O38  1  0.41075700  0.00000000  0.50000000  1
  O  O39  1  0.47301600  0.50000000  0.50000000  1
