# generated using pymatgen
data_LiFeP2O7
_symmetry_space_group_name_H-M   'P 1'
_cell_length_a   15.16252800
_cell_length_b   5.44948600
_cell_length_c   8.31034100
_cell_angle_alpha   90.00000000
_cell_angle_beta   119.04966406
_cell_angle_gamma   90.00000000
_symmetry_Int_Tables_number   1
_chemical_formula_structural   LiFeP2O7
_chemical_formula_sum   'Li4 Fe4 P8 O28'
_cell_volume   600.28346301
_cell_formula_units_Z   4
loop_
 _symmetry_equiv_pos_site_id
 _symmetry_equiv_pos_as_xyz
  1  'x, y, z'
loop_
 _atom_site_type_symbol
 _atom_site_label
 _atom_site_symmetry_multiplicity
 _atom_site_fract_x
 _atom_site_fract_y
 _atom_site_fract_z
 _atom_site_occupancy
  Li  Li0  1  0.27027100  0.67656200  0.17947700  1
  Li  Li1  1  0.27027100  0.32343800  0.67947700  1
  Li  Li2  1  0.77027100  0.17656200  0.17947700  1
  Li  Li3  1  0.77027100  0.82343800  0.67947700  1
  Fe  Fe4  1  0.00114950  0.01102150  0.50051200  1
  Fe  Fe5  1  0.00114950  0.98897850  0.00051200  1
  Fe  Fe6  1  0.50114950  0.51102150  0.50051200  1
  Fe  Fe7  1  0.50114950  0.48897850  0.00051200  1
  P  P8  1  0.39216950  0.85806250  0.64927500  1
  P  P9  1  0.39216950  0.14193750  0.14927500  1
  P  P10  1  0.10852050  0.35832050  0.85573500  1
  P  P11  1  0.10852050  0.64167950  0.35573500  1
  P  P12  1  0.89216950  0.35806250  0.64927500  1
  P  P13  1  0.89216950  0.64193750  0.14927500  1
  P  P14  1  0.60852050  0.85832050  0.85573500  1
  P  P15  1  0.60852050  0.14167950  0.35573500  1
  O  O16  1  0.10547100  0.19222600  0.70079500  1
  O  O17  1  0.00039100  0.50925100  0.75516700  1
  O  O18  1  0.31195150  0.95793450  0.09858800  1
  O  O19  1  0.10084400  0.19829800  0.00249100  1
  O  O20  1  0.19278800  0.53719900  0.93277900  1
  O  O21  1  0.31195150  0.04206550  0.59858800  1
  O  O22  1  0.10084400  0.80170200  0.50249100  1
  O  O23  1  0.39462550  0.27621350  0.98511600  1
  O  O24  1  0.10547100  0.80777400  0.20079500  1
  O  O25  1  0.00039100  0.49074900  0.25516700  1
  O  O26  1  0.39735750  0.34818550  0.28468500  1
  O  O27  1  0.39462550  0.72378650  0.48511600  1
  O  O28  1  0.39735750  0.65181450  0.78468500  1
  O  O29  1  0.19278800  0.46280100  0.43277900  1
  O  O30  1  0.60547100  0.69222600  0.70079500  1
  O  O31  1  0.50039100  0.00925100  0.75516700  1
  O  O32  1  0.81195150  0.45793450  0.09858800  1
  O  O33  1  0.60084400  0.69829800  0.00249100  1
  O  O34  1  0.69278800  0.03719900  0.93277900  1
  O  O35  1  0.81195150  0.54206550  0.59858800  1
  O  O36  1  0.60084400  0.30170200  0.50249100  1
  O  O37  1  0.89462550  0.77621350  0.98511600  1
  O  O38  1  0.60547100  0.30777400  0.20079500  1
  O  O39  1  0.50039100  0.99074900  0.25516700  1
  O  O40  1  0.89735750  0.84818550  0.28468500  1
  O  O41  1  0.89462550  0.22378650  0.48511600  1
  O  O42  1  0.89735750  0.15181450  0.78468500  1
  O  O43  1  0.69278800  0.96280100  0.43277900  1
