# generated using pymatgen
data_PNCl2
_symmetry_space_group_name_H-M   'P 1'
_cell_length_a   15.50838900
_cell_length_b   15.50838900
_cell_length_c   6.06702600
_cell_angle_alpha   90.00000000
_cell_angle_beta   90.00000000
_cell_angle_gamma   90.00000000
_symmetry_Int_Tables_number   1
_chemical_formula_structural   PNCl2
_chemical_formula_sum   'P16 N16 Cl32'
_cell_volume   1459.18120818
_cell_formula_units_Z   16
loop_
 _symmetry_equiv_pos_site_id
 _symmetry_equiv_pos_as_xyz
  1  'x, y, z'
loop_
 _atom_site_type_symbol
 _atom_site_label
 _atom_site_symmetry_multiplicity
 _atom_site_fract_x
 _atom_site_fract_y
 _atom_site_fract_z
 _atom_site_occupancy
  P  P0  1  0.85866200  0.81251800  0.60695700  1
  P  P1  1  0.68504100  0.86177700  0.73576000  1
  P  P2  1  0.68748200  0.35866200  0.10695700  1
  P  P3  1  0.63822300  0.18504100  0.23576000  1
  P  P4  1  0.31495900  0.13822300  0.73576000  1
  P  P5  1  0.86177700  0.31495900  0.26424000  1
  P  P6  1  0.14133800  0.18748200  0.60695700  1
  P  P7  1  0.36177700  0.81495900  0.23576000  1
  P  P8  1  0.81495900  0.63822300  0.76424000  1
  P  P9  1  0.81251800  0.14133800  0.39304300  1
  P  P10  1  0.18748200  0.85866200  0.39304300  1
  P  P11  1  0.64133800  0.68748200  0.89304300  1
  P  P12  1  0.31251800  0.64133800  0.10695700  1
  P  P13  1  0.13822300  0.68504100  0.26424000  1
  P  P14  1  0.18504100  0.36177700  0.76424000  1
  P  P15  1  0.35866200  0.31251800  0.89304300  1
  N  N16  1  0.63697600  0.27045900  0.09213900  1
  N  N17  1  0.77045900  0.86302400  0.59213900  1
  N  N18  1  0.86720300  0.72490700  0.73917000  1
  N  N19  1  0.22954100  0.13697600  0.59213900  1
  N  N20  1  0.63279700  0.77509300  0.76083000  1
  N  N21  1  0.36720300  0.22490700  0.76083000  1
  N  N22  1  0.22490700  0.63279700  0.23917000  1
  N  N23  1  0.77509300  0.36720300  0.23917000  1
  N  N24  1  0.72490700  0.13279700  0.26083000  1
  N  N25  1  0.27509300  0.86720300  0.26083000  1
  N  N26  1  0.13697600  0.77045900  0.40786100  1
  N  N27  1  0.27045900  0.36302400  0.90786100  1
  N  N28  1  0.72954100  0.63697600  0.90786100  1
  N  N29  1  0.36302400  0.72954100  0.09213900  1
  N  N30  1  0.86302400  0.22954100  0.40786100  1
  N  N31  1  0.13279700  0.27509300  0.73917000  1
  Cl  Cl32  1  0.89065200  0.05024600  0.26212000  1
  Cl  Cl33  1  0.55024600  0.60934800  0.76212000  1
  Cl  Cl34  1  0.89483000  0.55358700  0.91049500  1
  Cl  Cl35  1  0.70687800  0.91539400  0.03577900  1
  Cl  Cl36  1  0.10934800  0.94975400  0.26212000  1
  Cl  Cl37  1  0.39483000  0.05358700  0.58950500  1
  Cl  Cl38  1  0.08460600  0.70687800  0.96422100  1
  Cl  Cl39  1  0.94641300  0.39483000  0.41049500  1
  Cl  Cl40  1  0.55358700  0.10517000  0.08950500  1
  Cl  Cl41  1  0.60934800  0.44975400  0.23788000  1
  Cl  Cl42  1  0.60164900  0.70226800  0.20775500  1
  Cl  Cl43  1  0.44641300  0.89483000  0.08950500  1
  Cl  Cl44  1  0.58460600  0.20687800  0.53577900  1
  Cl  Cl45  1  0.60517000  0.94641300  0.58950500  1
  Cl  Cl46  1  0.91539400  0.29312200  0.96422100  1
  Cl  Cl47  1  0.39065200  0.55024600  0.23788000  1
  Cl  Cl48  1  0.20687800  0.41539400  0.46422100  1
  Cl  Cl49  1  0.79773200  0.10164900  0.70775500  1
  Cl  Cl50  1  0.29312200  0.08460600  0.03577900  1
  Cl  Cl51  1  0.39835100  0.29773200  0.20775500  1
  Cl  Cl52  1  0.89835100  0.79773200  0.29224500  1
  Cl  Cl53  1  0.10517000  0.44641300  0.91049500  1
  Cl  Cl54  1  0.70226800  0.39835100  0.79224500  1
  Cl  Cl55  1  0.20226800  0.89835100  0.70775500  1
  Cl  Cl56  1  0.05024600  0.10934800  0.73788000  1
  Cl  Cl57  1  0.44975400  0.39065200  0.76212000  1
  Cl  Cl58  1  0.10164900  0.20226800  0.29224500  1
  Cl  Cl59  1  0.79312200  0.58460600  0.46422100  1
  Cl  Cl60  1  0.29773200  0.60164900  0.79224500  1
  Cl  Cl61  1  0.94975400  0.89065200  0.73788000  1
  Cl  Cl62  1  0.05358700  0.60517000  0.41049500  1
  Cl  Cl63  1  0.41539400  0.79312200  0.53577900  1
