# generated using pymatgen
data_LiSn(PO3)3
_symmetry_space_group_name_H-M   'P 1'
_cell_length_a   9.77906914
_cell_length_b   10.46807884
_cell_length_c   10.48303900
_cell_angle_alpha   112.82637183
_cell_angle_beta   103.88240859
_cell_angle_gamma   107.65777829
_symmetry_Int_Tables_number   1
_chemical_formula_structural   LiSn(PO3)3
_chemical_formula_sum   'Li4 Sn4 P12 O36'
_cell_volume   860.81990894
_cell_formula_units_Z   4
loop_
 _symmetry_equiv_pos_site_id
 _symmetry_equiv_pos_as_xyz
  1  'x, y, z'
loop_
 _atom_site_type_symbol
 _atom_site_label
 _atom_site_symmetry_multiplicity
 _atom_site_fract_x
 _atom_site_fract_y
 _atom_site_fract_z
 _atom_site_occupancy
  Li  Li0  1  0.16925500  0.57091900  0.49317300  1
  Li  Li1  1  0.03112600  0.24911000  0.63178500  1
  Li  Li2  1  0.83074500  0.42908100  0.50682700  1
  Li  Li3  1  0.96887400  0.75089000  0.36821500  1
  Sn  Sn4  1  0.90900400  0.11201700  0.21524400  1
  Sn  Sn5  1  0.54057800  0.02835700  0.72480500  1
  Sn  Sn6  1  0.45942200  0.97164300  0.27519500  1
  Sn  Sn7  1  0.09099600  0.88798300  0.78475600  1
  P  P8  1  0.86158700  0.62024800  0.17328100  1
  P  P9  1  0.36774400  0.71024100  0.64129000  1
  P  P10  1  0.71391100  0.79216600  0.59616300  1
  P  P11  1  0.13841300  0.37975200  0.82671900  1
  P  P12  1  0.63046500  0.27055900  0.87754700  1
  P  P13  1  0.70643600  0.81200700  0.08574500  1
  P  P14  1  0.85899400  0.60523500  0.70048100  1
  P  P15  1  0.29356400  0.18799300  0.91425500  1
  P  P16  1  0.14100600  0.39476500  0.29951900  1
  P  P17  1  0.63225600  0.28975900  0.35871000  1
  P  P18  1  0.28608900  0.20783400  0.40383700  1
  P  P19  1  0.36953500  0.72944100  0.12245300  1
  O  O20  1  0.65724000  0.29459500  0.48520400  1
  O  O21  1  0.70350400  0.25882700  0.73472400  1
  O  O22  1  0.97573800  0.70515100  0.72944900  1
  O  O23  1  0.06144400  0.40122400  0.44528500  1
  O  O24  1  0.28918100  0.35312100  0.28684000  1
  O  O25  1  0.00537400  0.71172000  0.01185900  1
  O  O26  1  0.89853300  0.61781000  0.29579500  1
  O  O27  1  0.29649600  0.74117300  0.26527600  1
  O  O28  1  0.34276000  0.70540500  0.51479600  1
  O  O29  1  0.93855600  0.59877600  0.55471500  1
  O  O30  1  0.71120400  0.90331500  0.65417800  1
  O  O31  1  0.85175300  0.84835300  0.43768900  1
  O  O32  1  0.53782800  0.71409400  0.09212500  1
  O  O33  1  0.32238000  0.09486500  0.83664100  1
  O  O34  1  0.46217200  0.28590600  0.90787500  1
  O  O35  1  0.75196300  0.43629600  0.84583000  1
  O  O36  1  0.53702700  0.69983200  0.61295900  1
  O  O37  1  0.24803700  0.56370400  0.15417000  1
  O  O38  1  0.23011300  0.55124300  0.79794000  1
  O  O39  1  0.63520800  0.16066900  0.32588700  1
  O  O40  1  0.85297600  0.89656900  0.92407600  1
  O  O41  1  0.28879600  0.09668500  0.34582200  1
  O  O42  1  0.67762000  0.90513500  0.16335900  1
  O  O43  1  0.99462600  0.28828000  0.98814100  1
  O  O44  1  0.71777900  0.67169100  0.19095400  1
  O  O45  1  0.14824700  0.15164700  0.56231100  1
  O  O46  1  0.59833200  0.15004200  0.01935800  1
  O  O47  1  0.76988700  0.44875700  0.20206000  1
  O  O48  1  0.28222100  0.32830900  0.80904600  1
  O  O49  1  0.40166800  0.84995800  0.98064200  1
  O  O50  1  0.71081900  0.64687900  0.71316000  1
  O  O51  1  0.14702400  0.10343100  0.07592400  1
  O  O52  1  0.10146700  0.38219000  0.70420500  1
  O  O53  1  0.46297300  0.30016800  0.38704100  1
  O  O54  1  0.36479200  0.83933100  0.67411300  1
  O  O55  1  0.02426200  0.29484900  0.27055100  1
