# generated using pymatgen
data_CsZn2P2HO8
_symmetry_space_group_name_H-M   'P 1'
_cell_length_a   6.57172800
_cell_length_b   16.24457600
_cell_length_c   7.96444600
_cell_angle_alpha   90.00000000
_cell_angle_beta   90.00000000
_cell_angle_gamma   90.00000000
_symmetry_Int_Tables_number   1
_chemical_formula_structural   CsZn2P2HO8
_chemical_formula_sum   'Cs4 Zn8 P8 H4 O32'
_cell_volume   850.24391462
_cell_formula_units_Z   4
loop_
 _symmetry_equiv_pos_site_id
 _symmetry_equiv_pos_as_xyz
  1  'x, y, z'
loop_
 _atom_site_type_symbol
 _atom_site_label
 _atom_site_symmetry_multiplicity
 _atom_site_fract_x
 _atom_site_fract_y
 _atom_site_fract_z
 _atom_site_occupancy
  Cs  Cs0  1  0.50000000  0.00000000  0.50000000  1
  Cs  Cs1  1  0.00000000  0.00000000  0.00000000  1
  Cs  Cs2  1  0.00000000  0.50000000  0.50000000  1
  Cs  Cs3  1  0.50000000  0.50000000  0.00000000  1
  Zn  Zn4  1  0.25000000  0.76702900  0.75000000  1
  Zn  Zn5  1  0.75000000  0.73297100  0.25000000  1
  Zn  Zn6  1  0.25000000  0.73297100  0.25000000  1
  Zn  Zn7  1  0.75000000  0.76702900  0.75000000  1
  Zn  Zn8  1  0.75000000  0.26702900  0.75000000  1
  Zn  Zn9  1  0.25000000  0.23297100  0.25000000  1
  Zn  Zn10  1  0.75000000  0.23297100  0.25000000  1
  Zn  Zn11  1  0.25000000  0.26702900  0.75000000  1
  P  P12  1  0.00000000  0.85726800  0.46106600  1
  P  P13  1  0.50000000  0.64273200  0.53893400  1
  P  P14  1  0.00000000  0.64273200  0.96106600  1
  P  P15  1  0.50000000  0.85726800  0.03893400  1
  P  P16  1  0.50000000  0.35726800  0.46106600  1
  P  P17  1  0.00000000  0.14273200  0.53893400  1
  P  P18  1  0.50000000  0.14273200  0.96106600  1
  P  P19  1  0.00000000  0.35726800  0.03893400  1
  H  H20  1  0.00000000  0.00000000  0.50000000  1
  H  H21  1  0.50000000  0.00000000  0.00000000  1
  H  H22  1  0.50000000  0.50000000  0.50000000  1
  H  H23  1  0.00000000  0.50000000  0.00000000  1
  O  O24  1  0.00000000  0.79896500  0.30058200  1
  O  O25  1  0.50000000  0.70103500  0.69941800  1
  O  O26  1  0.00000000  0.70103500  0.80058200  1
  O  O27  1  0.50000000  0.79896500  0.19941800  1
  O  O28  1  0.80309600  0.84105500  0.56089300  1
  O  O29  1  0.30309600  0.65894500  0.43910700  1
  O  O30  1  0.80309600  0.65894500  0.06089300  1
  O  O31  1  0.30309600  0.84105500  0.93910700  1
  O  O32  1  0.69690400  0.65894500  0.43910700  1
  O  O33  1  0.19690400  0.84105500  0.56089300  1
  O  O34  1  0.69690400  0.84105500  0.93910700  1
  O  O35  1  0.19690400  0.65894500  0.06089300  1
  O  O36  1  0.00000000  0.94710300  0.39254300  1
  O  O37  1  0.50000000  0.55289700  0.60745700  1
  O  O38  1  0.00000000  0.55289700  0.89254300  1
  O  O39  1  0.50000000  0.94710300  0.10745700  1
  O  O40  1  0.50000000  0.29896500  0.30058200  1
  O  O41  1  0.00000000  0.20103500  0.69941800  1
  O  O42  1  0.50000000  0.20103500  0.80058200  1
  O  O43  1  0.00000000  0.29896500  0.19941800  1
  O  O44  1  0.30309600  0.34105500  0.56089300  1
  O  O45  1  0.80309600  0.15894500  0.43910700  1
  O  O46  1  0.30309600  0.15894500  0.06089300  1
  O  O47  1  0.80309600  0.34105500  0.93910700  1
  O  O48  1  0.19690400  0.15894500  0.43910700  1
  O  O49  1  0.69690400  0.34105500  0.56089300  1
  O  O50  1  0.19690400  0.34105500  0.93910700  1
  O  O51  1  0.69690400  0.15894500  0.06089300  1
  O  O52  1  0.50000000  0.44710300  0.39254300  1
  O  O53  1  0.00000000  0.05289700  0.60745700  1
  O  O54  1  0.50000000  0.05289700  0.89254300  1
  O  O55  1  0.00000000  0.44710300  0.10745700  1
