# generated using pymatgen
data_Cs2SbCl6
_symmetry_space_group_name_H-M   'P 1'
_cell_length_a   10.74338600
_cell_length_b   10.74338600
_cell_length_c   21.62557800
_cell_angle_alpha   90.00000000
_cell_angle_beta   90.00000000
_cell_angle_gamma   90.00000000
_symmetry_Int_Tables_number   1
_chemical_formula_structural   Cs2SbCl6
_chemical_formula_sum   'Cs16 Sb8 Cl48'
_cell_volume   2496.03162482
_cell_formula_units_Z   8
loop_
 _symmetry_equiv_pos_site_id
 _symmetry_equiv_pos_as_xyz
  1  'x, y, z'
loop_
 _atom_site_type_symbol
 _atom_site_label
 _atom_site_symmetry_multiplicity
 _atom_site_fract_x
 _atom_site_fract_y
 _atom_site_fract_z
 _atom_site_occupancy
  Cs  Cs0  1  0.25000000  0.27536900  0.37500000  1
  Cs  Cs1  1  0.22463100  0.75000000  0.12500000  1
  Cs  Cs2  1  0.75000000  0.72463100  0.37500000  1
  Cs  Cs3  1  0.77536900  0.25000000  0.12500000  1
  Cs  Cs4  1  0.25000000  0.72463100  0.37500000  1
  Cs  Cs5  1  0.77536900  0.75000000  0.12500000  1
  Cs  Cs6  1  0.22463100  0.25000000  0.12500000  1
  Cs  Cs7  1  0.75000000  0.27536900  0.37500000  1
  Cs  Cs8  1  0.75000000  0.77536900  0.87500000  1
  Cs  Cs9  1  0.72463100  0.25000000  0.62500000  1
  Cs  Cs10  1  0.25000000  0.22463100  0.87500000  1
  Cs  Cs11  1  0.27536900  0.75000000  0.62500000  1
  Cs  Cs12  1  0.75000000  0.22463100  0.87500000  1
  Cs  Cs13  1  0.27536900  0.25000000  0.62500000  1
  Cs  Cs14  1  0.72463100  0.75000000  0.62500000  1
  Cs  Cs15  1  0.25000000  0.77536900  0.87500000  1
  Sb  Sb16  1  0.50000000  0.00000000  0.25000000  1
  Sb  Sb17  1  0.50000000  0.50000000  0.00000000  1
  Sb  Sb18  1  0.00000000  0.50000000  0.25000000  1
  Sb  Sb19  1  0.00000000  0.00000000  0.00000000  1
  Sb  Sb20  1  0.00000000  0.50000000  0.75000000  1
  Sb  Sb21  1  0.00000000  0.00000000  0.50000000  1
  Sb  Sb22  1  0.50000000  0.00000000  0.75000000  1
  Sb  Sb23  1  0.50000000  0.50000000  0.50000000  1
  Cl  Cl24  1  0.00000000  0.00000000  0.12279900  1
  Cl  Cl25  1  0.50000000  0.22750600  0.24907800  1
  Cl  Cl26  1  0.00000000  0.50000000  0.37279900  1
  Cl  Cl27  1  0.00000000  0.74711250  0.25500050  1
  Cl  Cl28  1  0.50000000  0.50000000  0.37720100  1
  Cl  Cl29  1  0.72750600  0.00000000  0.25092200  1
  Cl  Cl30  1  0.50000000  0.27249400  0.00092200  1
  Cl  Cl31  1  0.77249400  0.00000000  0.49907800  1
  Cl  Cl32  1  0.22750600  0.00000000  0.49907800  1
  Cl  Cl33  1  0.00000000  0.25288750  0.25500050  1
  Cl  Cl34  1  0.75288750  0.00000000  0.00500050  1
  Cl  Cl35  1  0.27249400  0.00000000  0.25092200  1
  Cl  Cl36  1  0.50000000  0.00000000  0.13713900  1
  Cl  Cl37  1  0.50000000  0.72750600  0.00092200  1
  Cl  Cl38  1  0.50000000  0.74711250  0.49499950  1
  Cl  Cl39  1  0.75288750  0.50000000  0.24499950  1
  Cl  Cl40  1  0.50000000  0.25288750  0.49499950  1
  Cl  Cl41  1  0.00000000  0.50000000  0.12720100  1
  Cl  Cl42  1  0.00000000  0.00000000  0.38713900  1
  Cl  Cl43  1  0.50000000  0.50000000  0.11286100  1
  Cl  Cl44  1  0.24711250  0.50000000  0.24499950  1
  Cl  Cl45  1  0.50000000  0.77249400  0.24907800  1
  Cl  Cl46  1  0.24711250  0.00000000  0.00500050  1
  Cl  Cl47  1  0.50000000  0.00000000  0.36286100  1
  Cl  Cl48  1  0.50000000  0.50000000  0.62279900  1
  Cl  Cl49  1  0.00000000  0.72750600  0.74907800  1
  Cl  Cl50  1  0.50000000  0.00000000  0.87279900  1
  Cl  Cl51  1  0.50000000  0.24711250  0.75500050  1
  Cl  Cl52  1  0.00000000  0.00000000  0.87720100  1
  Cl  Cl53  1  0.22750600  0.50000000  0.75092200  1
  Cl  Cl54  1  0.00000000  0.77249400  0.50092200  1
  Cl  Cl55  1  0.27249400  0.50000000  0.99907800  1
  Cl  Cl56  1  0.72750600  0.50000000  0.99907800  1
  Cl  Cl57  1  0.50000000  0.75288750  0.75500050  1
  Cl  Cl58  1  0.25288750  0.50000000  0.50500050  1
  Cl  Cl59  1  0.77249400  0.50000000  0.75092200  1
  Cl  Cl60  1  0.00000000  0.50000000  0.63713900  1
  Cl  Cl61  1  0.00000000  0.22750600  0.50092200  1
  Cl  Cl62  1  0.00000000  0.24711250  0.99499950  1
  Cl  Cl63  1  0.25288750  0.00000000  0.74499950  1
  Cl  Cl64  1  0.00000000  0.75288750  0.99499950  1
  Cl  Cl65  1  0.50000000  0.00000000  0.62720100  1
  Cl  Cl66  1  0.50000000  0.50000000  0.88713900  1
  Cl  Cl67  1  0.00000000  0.00000000  0.61286100  1
  Cl  Cl68  1  0.74711250  0.00000000  0.74499950  1
  Cl  Cl69  1  0.00000000  0.27249400  0.74907800  1
  Cl  Cl70  1  0.74711250  0.50000000  0.50500050  1
  Cl  Cl71  1  0.00000000  0.50000000  0.86286100  1
