# generated using pymatgen
data_CsPbCl3
_symmetry_space_group_name_H-M   'P 1'
_cell_length_a   11.43090800
_cell_length_b   11.43859400
_cell_length_c   5.76365400
_cell_angle_alpha   90.00000000
_cell_angle_beta   90.00000000
_cell_angle_gamma   90.00000000
_symmetry_Int_Tables_number   1
_chemical_formula_structural   CsPbCl3
_chemical_formula_sum   'Cs4 Pb4 Cl12'
_cell_volume   753.61802357
_cell_formula_units_Z   4
loop_
 _symmetry_equiv_pos_site_id
 _symmetry_equiv_pos_as_xyz
  1  'x, y, z'
loop_
 _atom_site_type_symbol
 _atom_site_label
 _atom_site_symmetry_multiplicity
 _atom_site_fract_x
 _atom_site_fract_y
 _atom_site_fract_z
 _atom_site_occupancy
  Cs  Cs0  1  0.50000000  0.00097900  0.50000000  1
  Cs  Cs1  1  0.50000000  0.50040900  0.50000000  1
  Cs  Cs2  1  0.00000000  0.50097900  0.50000000  1
  Cs  Cs3  1  0.00000000  0.00040900  0.50000000  1
  Pb  Pb4  1  0.75079600  0.24624800  0.00000000  1
  Pb  Pb5  1  0.24920400  0.24624800  0.00000000  1
  Pb  Pb6  1  0.25079600  0.74624800  0.00000000  1
  Pb  Pb7  1  0.74920400  0.74624800  0.00000000  1
  Cl  Cl8  1  0.20858400  0.99430100  0.00000000  1
  Cl  Cl9  1  0.24994850  0.22272350  0.50000000  1
  Cl  Cl10  1  0.75005150  0.22272350  0.50000000  1
  Cl  Cl11  1  0.50000000  0.79101800  0.00000000  1
  Cl  Cl12  1  0.50000000  0.20904900  0.00000000  1
  Cl  Cl13  1  0.79141600  0.99430100  0.00000000  1
  Cl  Cl14  1  0.70858400  0.49430100  0.00000000  1
  Cl  Cl15  1  0.74994850  0.72272350  0.50000000  1
  Cl  Cl16  1  0.25005150  0.72272350  0.50000000  1
  Cl  Cl17  1  0.00000000  0.29101800  0.00000000  1
  Cl  Cl18  1  0.00000000  0.70904900  0.00000000  1
  Cl  Cl19  1  0.29141600  0.49430100  0.00000000  1
