# generated using pymatgen
data_BaY2ZnO5
_symmetry_space_group_name_H-M   'P 1'
_cell_length_a   5.77159900
_cell_length_b   7.17136200
_cell_length_c   12.46346400
_cell_angle_alpha   90.00000000
_cell_angle_beta   90.00000000
_cell_angle_gamma   90.00000000
_symmetry_Int_Tables_number   1
_chemical_formula_structural   BaY2ZnO5
_chemical_formula_sum   'Ba4 Y8 Zn4 O20'
_cell_volume   515.86558856
_cell_formula_units_Z   4
loop_
 _symmetry_equiv_pos_site_id
 _symmetry_equiv_pos_as_xyz
  1  'x, y, z'
loop_
 _atom_site_type_symbol
 _atom_site_label
 _atom_site_symmetry_multiplicity
 _atom_site_fract_x
 _atom_site_fract_y
 _atom_site_fract_z
 _atom_site_occupancy
  Ba  Ba0  1  0.25000000  0.57712900  0.39850900  1
  Ba  Ba1  1  0.75000000  0.42287100  0.60149100  1
  Ba  Ba2  1  0.75000000  0.07712900  0.10149100  1
  Ba  Ba3  1  0.25000000  0.92287100  0.89850900  1
  Y  Y4  1  0.25000000  0.10083500  0.57445000  1
  Y  Y5  1  0.75000000  0.89916500  0.42555000  1
  Y  Y6  1  0.75000000  0.60083500  0.92555000  1
  Y  Y7  1  0.25000000  0.39916500  0.07445000  1
  Y  Y8  1  0.25000000  0.38178200  0.79193400  1
  Y  Y9  1  0.75000000  0.61821800  0.20806600  1
  Y  Y10  1  0.75000000  0.88178200  0.70806600  1
  Y  Y11  1  0.25000000  0.11821800  0.29193400  1
  Zn  Zn12  1  0.25000000  0.80835700  0.14973200  1
  Zn  Zn13  1  0.75000000  0.19164300  0.85026800  1
  Zn  Zn14  1  0.75000000  0.30835700  0.35026800  1
  Zn  Zn15  1  0.25000000  0.69164300  0.64973200  1
  O  O16  1  0.25000000  0.42568000  0.60013800  1
  O  O17  1  0.75000000  0.57432000  0.39986200  1
  O  O18  1  0.75000000  0.92568000  0.89986200  1
  O  O19  1  0.25000000  0.07432000  0.10013800  1
  O  O20  1  0.00072800  0.85742700  0.27520600  1
  O  O21  1  0.50072800  0.14257300  0.72479400  1
  O  O22  1  0.99927200  0.35742700  0.22479400  1
  O  O23  1  0.49927200  0.64257300  0.77520600  1
  O  O24  1  0.99927200  0.14257300  0.72479400  1
  O  O25  1  0.49927200  0.85742700  0.27520600  1
  O  O26  1  0.00072800  0.64257300  0.77520600  1
  O  O27  1  0.50072800  0.35742700  0.22479400  1
  O  O28  1  0.49789300  0.66336700  0.06612500  1
  O  O29  1  0.99789300  0.33663300  0.93387500  1
  O  O30  1  0.50210700  0.16336700  0.43387500  1
  O  O31  1  0.00210700  0.83663300  0.56612500  1
  O  O32  1  0.99789300  0.16336700  0.43387500  1
  O  O33  1  0.49789300  0.83663300  0.56612500  1
  O  O34  1  0.00210700  0.66336700  0.06612500  1
  O  O35  1  0.50210700  0.33663300  0.93387500  1
