# generated using pymatgen
data_Sr(H8O5)2
_symmetry_space_group_name_H-M   'P 1'
_cell_length_a   5.97827500
_cell_length_b   6.50915558
_cell_length_c   6.70989390
_cell_angle_alpha   89.64471159
_cell_angle_beta   89.59949205
_cell_angle_gamma   89.59504513
_symmetry_Int_Tables_number   1
_chemical_formula_structural   Sr(H8O5)2
_chemical_formula_sum   'Sr1 H16 O10'
_cell_volume   261.08776307
_cell_formula_units_Z   1
loop_
 _symmetry_equiv_pos_site_id
 _symmetry_equiv_pos_as_xyz
  1  'x, y, z'
loop_
 _atom_site_type_symbol
 _atom_site_label
 _atom_site_symmetry_multiplicity
 _atom_site_fract_x
 _atom_site_fract_y
 _atom_site_fract_z
 _atom_site_occupancy
  Sr  Sr0  1  0.98656000  0.01412400  0.01926000  1
  H  H1  1  0.69295500  0.65513500  0.33191700  1
  H  H2  1  0.72463000  0.65128800  0.09333200  1
  H  H3  1  0.69546700  0.33187300  0.67692100  1
  H  H4  1  0.70039500  0.08817600  0.68620400  1
  H  H5  1  0.71234800  0.67680300  0.68737200  1
  H  H6  1  0.55572300  0.79400400  0.82656900  1
  H  H7  1  0.72928000  0.33824200  0.34552100  1
  H  H8  1  0.57946000  0.22055500  0.20359100  1
  H  H9  1  0.27508700  0.32801900  0.67222800  1
  H  H10  1  0.39630700  0.22277100  0.84465200  1
  H  H11  1  0.42953000  0.81282500  0.21611300  1
  H  H12  1  0.27585400  0.69702300  0.35859800  1
  H  H13  1  0.28607600  0.09011300  0.31563400  1
  H  H14  1  0.30559900  0.33564800  0.34227000  1
  H  H15  1  0.29356500  0.67753100  0.67006000  1
  H  H16  1  0.27221100  0.92310400  0.68916600  1
  O  O17  1  0.62452900  0.51237300  0.51654200  1
  O  O18  1  0.37196500  0.50519100  0.51183800  1
  O  O19  1  0.71784600  0.74491500  0.20672000  1
  O  O20  1  0.71994900  0.20921200  0.76981400  1
  O  O21  1  0.71931700  0.77733000  0.80212900  1
  O  O22  1  0.74091900  0.23937200  0.23146100  1
  O  O23  1  0.24975000  0.21951400  0.77922700  1
  O  O24  1  0.27152700  0.81859900  0.26435800  1
  O  O25  1  0.28294600  0.22141200  0.24109100  1
  O  O26  1  0.26376900  0.79614800  0.76748700  1
