# generated using pymatgen
data_Na2Co5Mo4(ClO4)4
_symmetry_space_group_name_H-M   'P 1'
_cell_length_a   10.88034408
_cell_length_b   8.94776845
_cell_length_c   10.83103367
_cell_angle_alpha   90.00000000
_cell_angle_beta   109.98989692
_cell_angle_gamma   90.00000000
_symmetry_Int_Tables_number   1
_chemical_formula_structural   Na2Co5Mo4(ClO4)4
_chemical_formula_sum   'Na4 Co10 Mo8 Cl8 O32'
_cell_volume   990.92538503
_cell_formula_units_Z   2
loop_
 _symmetry_equiv_pos_site_id
 _symmetry_equiv_pos_as_xyz
  1  'x, y, z'
loop_
 _atom_site_type_symbol
 _atom_site_label
 _atom_site_symmetry_multiplicity
 _atom_site_fract_x
 _atom_site_fract_y
 _atom_site_fract_z
 _atom_site_occupancy
  Na  Na0  1  0.32912450  0.00000000  0.98784200  1
  Na  Na1  1  0.67087550  0.00000000  0.01215800  1
  Na  Na2  1  0.82912450  0.50000000  0.98784200  1
  Na  Na3  1  0.17087550  0.50000000  0.01215800  1
  Co  Co4  1  0.50000000  0.50000000  0.00000000  1
  Co  Co5  1  0.26211950  0.17918150  0.36478400  1
  Co  Co6  1  0.26211950  0.82081850  0.36478400  1
  Co  Co7  1  0.73788050  0.82081850  0.63521600  1
  Co  Co8  1  0.73788050  0.17918150  0.63521600  1
  Co  Co9  1  0.00000000  0.00000000  0.00000000  1
  Co  Co10  1  0.76211950  0.67918150  0.36478400  1
  Co  Co11  1  0.76211950  0.32081850  0.36478400  1
  Co  Co12  1  0.23788050  0.32081850  0.63521600  1
  Co  Co13  1  0.23788050  0.67918150  0.63521600  1
  Mo  Mo14  1  0.44886900  0.00000000  0.65166600  1
  Mo  Mo15  1  0.55113100  0.00000000  0.34833400  1
  Mo  Mo16  1  0.04239100  0.00000000  0.69411100  1
  Mo  Mo17  1  0.95760900  0.00000000  0.30588900  1
  Mo  Mo18  1  0.94886900  0.50000000  0.65166600  1
  Mo  Mo19  1  0.05113100  0.50000000  0.34833400  1
  Mo  Mo20  1  0.54239100  0.50000000  0.69411100  1
  Mo  Mo21  1  0.45760900  0.50000000  0.30588900  1
  Cl  Cl22  1  0.33948600  0.69569400  0.87463700  1
  Cl  Cl23  1  0.66051400  0.30430600  0.12536300  1
  Cl  Cl24  1  0.66051400  0.69569400  0.12536300  1
  Cl  Cl25  1  0.33948600  0.30430600  0.87463700  1
  Cl  Cl26  1  0.83948600  0.19569400  0.87463700  1
  Cl  Cl27  1  0.16051400  0.80430600  0.12536300  1
  Cl  Cl28  1  0.16051400  0.19569400  0.12536300  1
  Cl  Cl29  1  0.83948600  0.80430600  0.87463700  1
  O  O30  1  0.10018500  0.00000000  0.87071000  1
  O  O31  1  0.89981500  0.00000000  0.12929000  1
  O  O32  1  0.86228850  0.00000000  0.63219200  1
  O  O33  1  0.13771150  0.00000000  0.36780800  1
  O  O34  1  0.60846300  0.00000000  0.62654200  1
  O  O35  1  0.39153700  0.00000000  0.37345800  1
  O  O36  1  0.48064700  0.00000000  0.82121000  1
  O  O37  1  0.51935300  0.00000000  0.17879000  1
  O  O38  1  0.35230300  0.83495000  0.58276900  1
  O  O39  1  0.64769700  0.83495000  0.41723100  1
  O  O40  1  0.35230300  0.16505000  0.58276900  1
  O  O41  1  0.64769700  0.16505000  0.41723100  1
  O  O42  1  0.60657650  0.66138150  0.64224200  1
  O  O43  1  0.60657650  0.33861850  0.64224200  1
  O  O44  1  0.39342350  0.33861850  0.35775800  1
  O  O45  1  0.39342350  0.66138150  0.35775800  1
  O  O46  1  0.60018500  0.50000000  0.87071000  1
  O  O47  1  0.39981500  0.50000000  0.12929000  1
  O  O48  1  0.36228850  0.50000000  0.63219200  1
  O  O49  1  0.63771150  0.50000000  0.36780800  1
  O  O50  1  0.10846300  0.50000000  0.62654200  1
  O  O51  1  0.89153700  0.50000000  0.37345800  1
  O  O52  1  0.98064700  0.50000000  0.82121000  1
  O  O53  1  0.01935300  0.50000000  0.17879000  1
  O  O54  1  0.85230300  0.33495000  0.58276900  1
  O  O55  1  0.14769700  0.33495000  0.41723100  1
  O  O56  1  0.85230300  0.66505000  0.58276900  1
  O  O57  1  0.14769700  0.66505000  0.41723100  1
  O  O58  1  0.10657650  0.16138150  0.64224200  1
  O  O59  1  0.10657650  0.83861850  0.64224200  1
  O  O60  1  0.89342350  0.83861850  0.35775800  1
  O  O61  1  0.89342350  0.16138150  0.35775800  1
