# generated using pymatgen
data_Ba8Zr3(SbO6)4
_symmetry_space_group_name_H-M   'P 1'
_cell_length_a   8.39230200
_cell_length_b   8.39230200
_cell_length_c   16.87412600
_cell_angle_alpha   90.00000000
_cell_angle_beta   90.00000000
_cell_angle_gamma   90.00000000
_symmetry_Int_Tables_number   1
_chemical_formula_structural   Ba8Zr3(SbO6)4
_chemical_formula_sum   'Ba16 Zr6 Sb8 O48'
_cell_volume   1188.45706054
_cell_formula_units_Z   2
loop_
 _symmetry_equiv_pos_site_id
 _symmetry_equiv_pos_as_xyz
  1  'x, y, z'
loop_
 _atom_site_type_symbol
 _atom_site_label
 _atom_site_symmetry_multiplicity
 _atom_site_fract_x
 _atom_site_fract_y
 _atom_site_fract_z
 _atom_site_occupancy
  Ba  Ba0  1  0.23344350  0.23344350  0.11819750  1
  Ba  Ba1  1  0.76655650  0.23344350  0.11819750  1
  Ba  Ba2  1  0.73344350  0.26655650  0.38180250  1
  Ba  Ba3  1  0.26655650  0.26655650  0.38180250  1
  Ba  Ba4  1  0.76655650  0.76655650  0.11819750  1
  Ba  Ba5  1  0.26655650  0.73344350  0.38180250  1
  Ba  Ba6  1  0.73344350  0.73344350  0.38180250  1
  Ba  Ba7  1  0.23344350  0.76655650  0.11819750  1
  Ba  Ba8  1  0.73344350  0.73344350  0.61819750  1
  Ba  Ba9  1  0.26655650  0.73344350  0.61819750  1
  Ba  Ba10  1  0.23344350  0.76655650  0.88180250  1
  Ba  Ba11  1  0.76655650  0.76655650  0.88180250  1
  Ba  Ba12  1  0.26655650  0.26655650  0.61819750  1
  Ba  Ba13  1  0.76655650  0.23344350  0.88180250  1
  Ba  Ba14  1  0.23344350  0.23344350  0.88180250  1
  Ba  Ba15  1  0.73344350  0.26655650  0.61819750  1
  Zr  Zr16  1  0.50000000  0.00000000  0.25000000  1
  Zr  Zr17  1  0.00000000  0.50000000  0.25000000  1
  Zr  Zr18  1  0.50000000  0.50000000  0.00000000  1
  Zr  Zr19  1  0.00000000  0.50000000  0.75000000  1
  Zr  Zr20  1  0.50000000  0.00000000  0.75000000  1
  Zr  Zr21  1  0.00000000  0.00000000  0.50000000  1
  Sb  Sb22  1  0.00000000  0.00000000  0.25639100  1
  Sb  Sb23  1  0.50000000  0.50000000  0.24360900  1
  Sb  Sb24  1  0.50000000  0.00000000  0.00000000  1
  Sb  Sb25  1  0.00000000  0.50000000  0.00000000  1
  Sb  Sb26  1  0.50000000  0.50000000  0.75639100  1
  Sb  Sb27  1  0.00000000  0.00000000  0.74360900  1
  Sb  Sb28  1  0.00000000  0.50000000  0.50000000  1
  Sb  Sb29  1  0.50000000  0.00000000  0.50000000  1
  O  O30  1  0.50000000  0.75237300  0.00000000  1
  O  O31  1  0.72940300  0.00000000  0.00000000  1
  O  O32  1  0.75237300  0.50000000  0.00000000  1
  O  O33  1  0.24762700  0.50000000  0.00000000  1
  O  O34  1  0.50000000  0.00000000  0.37611300  1
  O  O35  1  0.00000000  0.72940300  0.00000000  1
  O  O36  1  0.27059700  0.00000000  0.00000000  1
  O  O37  1  0.24591800  0.00000000  0.25459900  1
  O  O38  1  0.50000000  0.24762700  0.00000000  1
  O  O39  1  0.00000000  0.00000000  0.14102400  1
  O  O40  1  0.00000000  0.27059700  0.00000000  1
  O  O41  1  0.50000000  0.74591800  0.24540100  1
  O  O42  1  0.50000000  0.25408200  0.24540100  1
  O  O43  1  0.50000000  0.50000000  0.12588300  1
  O  O44  1  0.00000000  0.75408200  0.25459900  1
  O  O45  1  0.50000000  0.50000000  0.35897600  1
  O  O46  1  0.74591800  0.50000000  0.24540100  1
  O  O47  1  0.00000000  0.24591800  0.25459900  1
  O  O48  1  0.00000000  0.00000000  0.37411700  1
  O  O49  1  0.75408200  0.00000000  0.25459900  1
  O  O50  1  0.25408200  0.50000000  0.24540100  1
  O  O51  1  0.50000000  0.00000000  0.12388700  1
  O  O52  1  0.00000000  0.50000000  0.12388700  1
  O  O53  1  0.00000000  0.50000000  0.37611300  1
  O  O54  1  0.00000000  0.25237300  0.50000000  1
  O  O55  1  0.22940300  0.50000000  0.50000000  1
  O  O56  1  0.25237300  0.00000000  0.50000000  1
  O  O57  1  0.74762700  0.00000000  0.50000000  1
  O  O58  1  0.00000000  0.50000000  0.87611300  1
  O  O59  1  0.50000000  0.22940300  0.50000000  1
  O  O60  1  0.77059700  0.50000000  0.50000000  1
  O  O61  1  0.74591800  0.50000000  0.75459900  1
  O  O62  1  0.00000000  0.74762700  0.50000000  1
  O  O63  1  0.50000000  0.50000000  0.64102400  1
  O  O64  1  0.50000000  0.77059700  0.50000000  1
  O  O65  1  0.00000000  0.24591800  0.74540100  1
  O  O66  1  0.00000000  0.75408200  0.74540100  1
  O  O67  1  0.00000000  0.00000000  0.62588300  1
  O  O68  1  0.50000000  0.25408200  0.75459900  1
  O  O69  1  0.00000000  0.00000000  0.85897600  1
  O  O70  1  0.24591800  0.00000000  0.74540100  1
  O  O71  1  0.50000000  0.74591800  0.75459900  1
  O  O72  1  0.50000000  0.50000000  0.87411700  1
  O  O73  1  0.25408200  0.50000000  0.75459900  1
  O  O74  1  0.75408200  0.00000000  0.74540100  1
  O  O75  1  0.00000000  0.50000000  0.62388700  1
  O  O76  1  0.50000000  0.00000000  0.62388700  1
  O  O77  1  0.50000000  0.00000000  0.87611300  1
