# generated using pymatgen
data_Ho2Zr8O19
_symmetry_space_group_name_H-M   'P 1'
_cell_length_a   3.63842000
_cell_length_b   3.63842000
_cell_length_c   25.69179000
_cell_angle_alpha   90.00000000
_cell_angle_beta   90.00000000
_cell_angle_gamma   90.00000000
_symmetry_Int_Tables_number   1
_chemical_formula_structural   Ho2Zr8O19
_chemical_formula_sum   'Ho2 Zr8 O19'
_cell_volume   340.11048768
_cell_formula_units_Z   1
loop_
 _symmetry_equiv_pos_site_id
 _symmetry_equiv_pos_as_xyz
  1  'x, y, z'
loop_
 _atom_site_type_symbol
 _atom_site_label
 _atom_site_symmetry_multiplicity
 _atom_site_fract_x
 _atom_site_fract_y
 _atom_site_fract_z
 _atom_site_occupancy
  Ho  Ho0  1  0.50000000  0.00000000  0.94377000  1
  Ho  Ho1  1  0.00000000  0.50000000  0.05623000  1
  Zr  Zr2  1  0.50000000  0.00000000  0.15229100  1
  Zr  Zr3  1  0.00000000  0.50000000  0.25161900  1
  Zr  Zr4  1  0.50000000  0.00000000  0.35096900  1
  Zr  Zr5  1  0.00000000  0.50000000  0.45034200  1
  Zr  Zr6  1  0.50000000  0.00000000  0.54965800  1
  Zr  Zr7  1  0.00000000  0.50000000  0.64903100  1
  Zr  Zr8  1  0.50000000  0.00000000  0.74838100  1
  Zr  Zr9  1  0.00000000  0.50000000  0.84770900  1
  O  O10  1  0.50000000  0.50000000  0.19659900  1
  O  O11  1  0.00000000  0.00000000  0.30521900  1
  O  O12  1  0.50000000  0.50000000  0.39828400  1
  O  O13  1  0.00000000  0.00000000  0.50000000  1
  O  O14  1  0.50000000  0.50000000  0.60171600  1
  O  O15  1  0.00000000  0.00000000  0.69478100  1
  O  O16  1  0.50000000  0.50000000  0.80340100  1
  O  O17  1  0.00000000  0.00000000  0.79276600  1
  O  O18  1  0.00000000  0.00000000  0.89146700  1
  O  O19  1  0.50000000  0.50000000  0.90309500  1
  O  O20  1  0.00000000  0.00000000  0.00000000  1
  O  O21  1  0.00000000  0.00000000  0.10853300  1
  O  O22  1  0.50000000  0.50000000  0.09690500  1
  O  O23  1  0.00000000  0.00000000  0.20723400  1
  O  O24  1  0.50000000  0.50000000  0.29715200  1
  O  O25  1  0.00000000  0.00000000  0.40276700  1
  O  O26  1  0.50000000  0.50000000  0.50000000  1
  O  O27  1  0.00000000  0.00000000  0.59723300  1
  O  O28  1  0.50000000  0.50000000  0.70284800  1
