# generated using pymatgen
data_SiO2
_symmetry_space_group_name_H-M   'P 1'
_cell_length_a   7.21393000
_cell_length_b   7.21393000
_cell_length_c   42.34480800
_cell_angle_alpha   90.00000000
_cell_angle_beta   90.00000000
_cell_angle_gamma   90.00000000
_symmetry_Int_Tables_number   1
_chemical_formula_structural   SiO2
_chemical_formula_sum   'Si36 O72'
_cell_volume   2203.65709324
_cell_formula_units_Z   36
loop_
 _symmetry_equiv_pos_site_id
 _symmetry_equiv_pos_as_xyz
  1  'x, y, z'
loop_
 _atom_site_type_symbol
 _atom_site_label
 _atom_site_symmetry_multiplicity
 _atom_site_fract_x
 _atom_site_fract_y
 _atom_site_fract_z
 _atom_site_occupancy
  Si  Si0  1  0.29305400  0.00000000  0.18907200  1
  Si  Si1  1  0.00000000  0.79305400  0.43907200  1
  Si  Si2  1  0.00000000  0.20694600  0.43907200  1
  Si  Si3  1  0.29305400  0.50000000  0.06092800  1
  Si  Si4  1  0.70694600  0.50000000  0.06092800  1
  Si  Si5  1  0.70694600  0.00000000  0.18907200  1
  Si  Si6  1  0.50000000  0.79305400  0.31092800  1
  Si  Si7  1  0.50000000  0.20694600  0.31092800  1
  Si  Si8  1  0.00000000  0.21904700  0.08706700  1
  Si  Si9  1  0.78095300  0.50000000  0.33706700  1
  Si  Si10  1  0.21904700  0.50000000  0.33706700  1
  Si  Si11  1  0.00000000  0.28095300  0.16293300  1
  Si  Si12  1  0.00000000  0.71904700  0.16293300  1
  Si  Si13  1  0.00000000  0.78095300  0.08706700  1
  Si  Si14  1  0.71904700  0.50000000  0.41293300  1
  Si  Si15  1  0.28095300  0.50000000  0.41293300  1
  Si  Si16  1  0.50000000  0.00000000  0.25000000  1
  Si  Si17  1  0.50000000  0.50000000  0.00000000  1
  Si  Si18  1  0.79305400  0.50000000  0.68907200  1
  Si  Si19  1  0.50000000  0.29305400  0.93907200  1
  Si  Si20  1  0.50000000  0.70694600  0.93907200  1
  Si  Si21  1  0.79305400  0.00000000  0.56092800  1
  Si  Si22  1  0.20694600  0.00000000  0.56092800  1
  Si  Si23  1  0.20694600  0.50000000  0.68907200  1
  Si  Si24  1  0.00000000  0.29305400  0.81092800  1
  Si  Si25  1  0.00000000  0.70694600  0.81092800  1
  Si  Si26  1  0.50000000  0.71904700  0.58706700  1
  Si  Si27  1  0.28095300  0.00000000  0.83706700  1
  Si  Si28  1  0.71904700  0.00000000  0.83706700  1
  Si  Si29  1  0.50000000  0.78095300  0.66293300  1
  Si  Si30  1  0.50000000  0.21904700  0.66293300  1
  Si  Si31  1  0.50000000  0.28095300  0.58706700  1
  Si  Si32  1  0.21904700  0.00000000  0.91293300  1
  Si  Si33  1  0.78095300  0.00000000  0.91293300  1
  Si  Si34  1  0.00000000  0.50000000  0.75000000  1
  Si  Si35  1  0.00000000  0.00000000  0.50000000  1
  O  O36  1  0.31563900  0.00000000  0.22753800  1
  O  O37  1  0.00000000  0.81563900  0.47753800  1
  O  O38  1  0.00000000  0.18436100  0.47753800  1
  O  O39  1  0.31563900  0.50000000  0.02246200  1
  O  O40  1  0.68436100  0.50000000  0.02246200  1
  O  O41  1  0.68436100  0.00000000  0.22753800  1
  O  O42  1  0.50000000  0.81563900  0.27246200  1
  O  O43  1  0.50000000  0.18436100  0.27246200  1
  O  O44  1  0.18396350  0.81387350  0.17813250  1
  O  O45  1  0.18612650  0.68396350  0.42813250  1
  O  O46  1  0.81387350  0.31603650  0.42813250  1
  O  O47  1  0.18396350  0.68612650  0.07186750  1
  O  O48  1  0.81603650  0.31387350  0.07186750  1
  O  O49  1  0.81603650  0.18612650  0.17813250  1
  O  O50  1  0.31387350  0.68396350  0.32186750  1
  O  O51  1  0.68612650  0.31603650  0.32186750  1
  O  O52  1  0.81603650  0.68612650  0.07186750  1
  O  O53  1  0.31387350  0.31603650  0.32186750  1
  O  O54  1  0.68612650  0.68396350  0.32186750  1
  O  O55  1  0.81603650  0.81387350  0.17813250  1
  O  O56  1  0.18396350  0.18612650  0.17813250  1
  O  O57  1  0.18396350  0.31387350  0.07186750  1
  O  O58  1  0.18612650  0.31603650  0.42813250  1
  O  O59  1  0.81387350  0.68396350  0.42813250  1
  O  O60  1  0.50000000  0.00000000  0.17332800  1
  O  O61  1  0.00000000  0.00000000  0.42332800  1
  O  O62  1  0.50000000  0.50000000  0.07667200  1
  O  O63  1  0.50000000  0.00000000  0.32667200  1
  O  O64  1  0.00000000  0.00000000  0.07873600  1
  O  O65  1  0.00000000  0.50000000  0.32873600  1
  O  O66  1  0.00000000  0.50000000  0.17126400  1
  O  O67  1  0.50000000  0.50000000  0.42126400  1
  O  O68  1  0.00000000  0.25000000  0.12500000  1
  O  O69  1  0.75000000  0.50000000  0.37500000  1
  O  O70  1  0.25000000  0.50000000  0.37500000  1
  O  O71  1  0.00000000  0.75000000  0.12500000  1
  O  O72  1  0.81563900  0.50000000  0.72753800  1
  O  O73  1  0.50000000  0.31563900  0.97753800  1
  O  O74  1  0.50000000  0.68436100  0.97753800  1
  O  O75  1  0.81563900  0.00000000  0.52246200  1
  O  O76  1  0.18436100  0.00000000  0.52246200  1
  O  O77  1  0.18436100  0.50000000  0.72753800  1
  O  O78  1  0.00000000  0.31563900  0.77246200  1
  O  O79  1  0.00000000  0.68436100  0.77246200  1
  O  O80  1  0.68396350  0.31387350  0.67813250  1
  O  O81  1  0.68612650  0.18396350  0.92813250  1
  O  O82  1  0.31387350  0.81603650  0.92813250  1
  O  O83  1  0.68396350  0.18612650  0.57186750  1
  O  O84  1  0.31603650  0.81387350  0.57186750  1
  O  O85  1  0.31603650  0.68612650  0.67813250  1
  O  O86  1  0.81387350  0.18396350  0.82186750  1
  O  O87  1  0.18612650  0.81603650  0.82186750  1
  O  O88  1  0.31603650  0.18612650  0.57186750  1
  O  O89  1  0.81387350  0.81603650  0.82186750  1
  O  O90  1  0.18612650  0.18396350  0.82186750  1
  O  O91  1  0.31603650  0.31387350  0.67813250  1
  O  O92  1  0.68396350  0.68612650  0.67813250  1
  O  O93  1  0.68396350  0.81387350  0.57186750  1
  O  O94  1  0.68612650  0.81603650  0.92813250  1
  O  O95  1  0.31387350  0.18396350  0.92813250  1
  O  O96  1  0.00000000  0.50000000  0.67332800  1
  O  O97  1  0.50000000  0.50000000  0.92332800  1
  O  O98  1  0.00000000  0.00000000  0.57667200  1
  O  O99  1  0.00000000  0.50000000  0.82667200  1
  O  O100  1  0.50000000  0.50000000  0.57873600  1
  O  O101  1  0.50000000  0.00000000  0.82873600  1
  O  O102  1  0.50000000  0.00000000  0.67126400  1
  O  O103  1  0.00000000  0.00000000  0.92126400  1
  O  O104  1  0.50000000  0.75000000  0.62500000  1
  O  O105  1  0.25000000  0.00000000  0.87500000  1
  O  O106  1  0.75000000  0.00000000  0.87500000  1
  O  O107  1  0.50000000  0.25000000  0.62500000  1
