# generated using pymatgen
data_CoH12(BrO7)2
_symmetry_space_group_name_H-M   'P 1'
_cell_length_a   7.85523541
_cell_length_b   7.85523541
_cell_length_c   6.11749017
_cell_angle_alpha   90.00000000
_cell_angle_beta   90.00000000
_cell_angle_gamma   120.00000000
_symmetry_Int_Tables_number   1
_chemical_formula_structural   CoH12(BrO7)2
_chemical_formula_sum   'Co1 H12 Br2 O14'
_cell_volume   326.90557047
_cell_formula_units_Z   1
loop_
 _symmetry_equiv_pos_site_id
 _symmetry_equiv_pos_as_xyz
  1  'x, y, z'
loop_
 _atom_site_type_symbol
 _atom_site_label
 _atom_site_symmetry_multiplicity
 _atom_site_fract_x
 _atom_site_fract_y
 _atom_site_fract_z
 _atom_site_occupancy
  Co  Co0  1  0.00000000  0.00000000  0.00000000  1
  H  H1  1  0.33379450  0.26802075  0.77998375  1
  H  H2  1  0.93422625  0.66620550  0.77998375  1
  H  H3  1  0.73197925  0.06577375  0.77998375  1
  H  H4  1  0.33379450  0.06577375  0.77998375  1
  H  H5  1  0.73197925  0.66620550  0.77998375  1
  H  H6  1  0.93422625  0.26802075  0.77998375  1
  H  H7  1  0.66620550  0.73197925  0.22001625  1
  H  H8  1  0.06577375  0.33379450  0.22001625  1
  H  H9  1  0.26802075  0.93422625  0.22001625  1
  H  H10  1  0.66620550  0.93422625  0.22001625  1
  H  H11  1  0.26802075  0.33379450  0.22001625  1
  H  H12  1  0.06577375  0.73197925  0.22001625  1
  Br  Br13  1  0.66666667  0.33333333  0.32306450  1
  Br  Br14  1  0.33333333  0.66666667  0.67693550  1
  O  O15  1  0.66666667  0.33333333  0.59150775  1
  O  O16  1  0.33333333  0.66666667  0.40849225  1
  O  O17  1  0.55239863  0.10479725  0.22836325  1
  O  O18  1  0.55239863  0.44760137  0.22836325  1
  O  O19  1  0.89520275  0.44760137  0.22836325  1
  O  O20  1  0.44760137  0.89520275  0.77163675  1
  O  O21  1  0.44760137  0.55239863  0.77163675  1
  O  O22  1  0.10479725  0.55239863  0.77163675  1
  O  O23  1  0.25167250  0.12583625  0.80130550  1
  O  O24  1  0.87416375  0.74832750  0.80130550  1
  O  O25  1  0.87416375  0.12583625  0.80130550  1
  O  O26  1  0.74832750  0.87416375  0.19869450  1
  O  O27  1  0.12583625  0.25167250  0.19869450  1
  O  O28  1  0.12583625  0.87416375  0.19869450  1
