# generated using pymatgen
data_Al(HO)3
_symmetry_space_group_name_H-M   'P 1'
_cell_length_a   5.23085300
_cell_length_b   9.46592600
_cell_length_c   8.66745869
_cell_angle_alpha   90.00000000
_cell_angle_beta   91.43166780
_cell_angle_gamma   90.00000000
_symmetry_Int_Tables_number   1
_chemical_formula_structural   Al(HO)3
_chemical_formula_sum   'Al8 H24 O24'
_cell_volume   429.03409598
_cell_formula_units_Z   8
loop_
 _symmetry_equiv_pos_site_id
 _symmetry_equiv_pos_as_xyz
  1  'x, y, z'
loop_
 _atom_site_type_symbol
 _atom_site_label
 _atom_site_symmetry_multiplicity
 _atom_site_fract_x
 _atom_site_fract_y
 _atom_site_fract_z
 _atom_site_occupancy
  Al  Al0  1  0.98711600  0.25072500  0.17190600  1
  Al  Al1  1  0.50499000  0.24797500  0.67204200  1
  Al  Al2  1  0.49473100  0.74765800  0.83148500  1
  Al  Al3  1  0.01403600  0.75223100  0.33295900  1
  Al  Al4  1  0.01403600  0.24776900  0.83295900  1
  Al  Al5  1  0.49473100  0.25234200  0.33148500  1
  Al  Al6  1  0.50499000  0.75202500  0.17204200  1
  Al  Al7  1  0.98711600  0.74927500  0.67190600  1
  H  H8  1  0.19850000  0.37979700  0.49854900  1
  H  H9  1  0.30964100  0.12973200  0.02726600  1
  H  H10  1  0.70029300  0.62021100  0.49443400  1
  H  H11  1  0.80405300  0.87894600  0.00559400  1
  H  H12  1  0.80405300  0.12105400  0.50559400  1
  H  H13  1  0.70029300  0.37978900  0.99443400  1
  H  H14  1  0.30964100  0.87026800  0.52726600  1
  H  H15  1  0.19850000  0.62020300  0.99854900  1
  H  H16  1  0.28000700  0.45856600  0.21344000  1
  H  H17  1  0.21366000  0.04116000  0.70979500  1
  H  H18  1  0.78711400  0.53929500  0.78681200  1
  H  H19  1  0.65509900  0.90530400  0.40946500  1
  H  H20  1  0.65509900  0.09469600  0.90946500  1
  H  H21  1  0.78711400  0.46070500  0.28681200  1
  H  H22  1  0.21366000  0.95884000  0.20979500  1
  H  H23  1  0.28000700  0.54143400  0.71344000  1
  H  H24  1  0.85792300  0.39205500  0.58447000  1
  H  H25  1  0.68715700  0.04379900  0.20175800  1
  H  H26  1  0.36531300  0.58841100  0.41047400  1
  H  H27  1  0.13892100  0.91379400  0.90771800  1
  H  H28  1  0.13892100  0.08620600  0.40771800  1
  H  H29  1  0.36531300  0.41158900  0.91047400  1
  H  H30  1  0.68715700  0.95620100  0.70175800  1
  H  H31  1  0.85792300  0.60794500  0.08447000  1
  O  O32  1  0.38182900  0.36328100  0.50358900  1
  O  O33  1  0.12602400  0.13714200  0.00707500  1
  O  O34  1  0.88262500  0.63886500  0.49781700  1
  O  O35  1  0.62098900  0.86171100  0.99995400  1
  O  O36  1  0.62098900  0.13828900  0.49995400  1
  O  O37  1  0.88262500  0.36113500  0.99781700  1
  O  O38  1  0.12602400  0.86285800  0.50707500  1
  O  O39  1  0.38182900  0.63671900  0.00358900  1
  O  O40  1  0.29871700  0.35848000  0.18642000  1
  O  O41  1  0.19821900  0.14219900  0.68507500  1
  O  O42  1  0.80345000  0.63899700  0.81736100  1
  O  O43  1  0.70903800  0.86410200  0.31245400  1
  O  O44  1  0.70903800  0.13589800  0.81245400  1
  O  O45  1  0.80345000  0.36100300  0.31736100  1
  O  O46  1  0.19821900  0.85780100  0.18507500  1
  O  O47  1  0.29871700  0.64152000  0.68642000  1
  O  O48  1  0.81249300  0.35765900  0.68619700  1
  O  O49  1  0.67146300  0.14476900  0.17818000  1
  O  O50  1  0.31598100  0.64025700  0.31733400  1
  O  O51  1  0.18596900  0.86114300  0.81604900  1
  O  O52  1  0.18596900  0.13885700  0.31604900  1
  O  O53  1  0.31598100  0.35974300  0.81733400  1
  O  O54  1  0.67146300  0.85523100  0.67818000  1
  O  O55  1  0.81249300  0.64234100  0.18619700  1
