# generated using pymatgen
data_Mg3AlFe(SiO4)3
_symmetry_space_group_name_H-M   'P 1'
_cell_length_a   4.85827800
_cell_length_b   5.02941400
_cell_length_c   14.09001085
_cell_angle_alpha   90.00000000
_cell_angle_beta   90.01984815
_cell_angle_gamma   90.00000000
_symmetry_Int_Tables_number   1
_chemical_formula_structural   Mg3AlFe(SiO4)3
_chemical_formula_sum   'Mg6 Al2 Fe2 Si6 O24'
_cell_volume   344.27941002
_cell_formula_units_Z   2
loop_
 _symmetry_equiv_pos_site_id
 _symmetry_equiv_pos_as_xyz
  1  'x, y, z'
loop_
 _atom_site_type_symbol
 _atom_site_label
 _atom_site_symmetry_multiplicity
 _atom_site_fract_x
 _atom_site_fract_y
 _atom_site_fract_z
 _atom_site_occupancy
  Mg  Mg0  1  0.24071900  0.94793400  0.75654300  1
  Mg  Mg1  1  0.23724800  0.94572100  0.24339000  1
  Mg  Mg2  1  0.76275200  0.44572100  0.75661000  1
  Mg  Mg3  1  0.75928100  0.44793400  0.24345700  1
  Mg  Mg4  1  0.73669300  0.56364200  0.00054200  1
  Mg  Mg5  1  0.26330700  0.06364200  0.99945800  1
  Al  Al6  1  0.24268100  0.49393100  0.37052600  1
  Al  Al7  1  0.75731900  0.99393100  0.62947400  1
  Fe  Fe8  1  0.72931300  0.55856400  0.50021800  1
  Fe  Fe9  1  0.27068700  0.05856400  0.49978200  1
  Si  Si10  1  0.25181800  0.50681000  0.12380400  1
  Si  Si11  1  0.25098900  0.50661100  0.87667300  1
  Si  Si12  1  0.24040600  0.49196900  0.62863600  1
  Si  Si13  1  0.74818200  0.00681000  0.87619600  1
  Si  Si14  1  0.75959400  0.99196900  0.37136400  1
  Si  Si15  1  0.74901100  0.00661100  0.12332700  1
  O  O16  1  0.14682700  0.47228100  0.00062300  1
  O  O17  1  0.12893100  0.44854100  0.50311000  1
  O  O18  1  0.07888100  0.18715300  0.65344600  1
  O  O19  1  0.05405500  0.21154300  0.85031800  1
  O  O20  1  0.04990200  0.20990900  0.15036200  1
  O  O21  1  0.05967900  0.17220900  0.34773200  1
  O  O22  1  0.94032100  0.67220900  0.65226800  1
  O  O23  1  0.95009800  0.70990900  0.84963800  1
  O  O24  1  0.92111900  0.68715300  0.34655400  1
  O  O25  1  0.94594500  0.71154300  0.14968200  1
  O  O26  1  0.85317300  0.97228100  0.99937700  1
  O  O27  1  0.87106900  0.94854100  0.49689000  1
  O  O28  1  0.64692900  0.04215700  0.75618200  1
  O  O29  1  0.64348300  0.04205100  0.24881400  1
  O  O30  1  0.55380400  0.30398700  0.09699800  1
  O  O31  1  0.55297800  0.30731100  0.90381600  1
  O  O32  1  0.54595200  0.30212700  0.59387200  1
  O  O33  1  0.56472000  0.28554200  0.40675800  1
  O  O34  1  0.44702200  0.80731100  0.09618400  1
  O  O35  1  0.44619600  0.80398700  0.90300200  1
  O  O36  1  0.45404800  0.80212700  0.40612800  1
  O  O37  1  0.43528000  0.78554200  0.59324200  1
  O  O38  1  0.35651700  0.54205100  0.75118600  1
  O  O39  1  0.35307100  0.54215700  0.24381800  1
