# generated using pymatgen
data_Li2ZrTeO6
_symmetry_space_group_name_H-M   'P 1'
_cell_length_a   5.24581624
_cell_length_b   5.24581624
_cell_length_c   14.05469232
_cell_angle_alpha   90.00000000
_cell_angle_beta   90.00000000
_cell_angle_gamma   120.00000000
_symmetry_Int_Tables_number   1
_chemical_formula_structural   Li2ZrTeO6
_chemical_formula_sum   'Li6 Zr3 Te3 O18'
_cell_volume   334.94856462
_cell_formula_units_Z   3
loop_
 _symmetry_equiv_pos_site_id
 _symmetry_equiv_pos_as_xyz
  1  'x, y, z'
loop_
 _atom_site_type_symbol
 _atom_site_label
 _atom_site_symmetry_multiplicity
 _atom_site_fract_x
 _atom_site_fract_y
 _atom_site_fract_z
 _atom_site_occupancy
  Li  Li0  1  0.66666667  0.33333333  0.05685333  1
  Li  Li1  1  0.00000000  0.00000000  0.21258800  1
  Li  Li2  1  0.33333333  0.66666667  0.39018667  1
  Li  Li3  1  0.66666667  0.33333333  0.54592133  1
  Li  Li4  1  0.00000000  0.00000000  0.72352000  1
  Li  Li5  1  0.33333333  0.66666667  0.87925467  1
  Zr  Zr6  1  0.66666667  0.33333333  0.33247233  1
  Zr  Zr7  1  0.33333333  0.66666667  0.66580567  1
  Zr  Zr8  1  0.00000000  0.00000000  0.99913900  1
  Te  Te9  1  0.33333333  0.66666667  0.17040667  1
  Te  Te10  1  0.00000000  0.00000000  0.50374000  1
  Te  Te11  1  0.66666667  0.33333333  0.83707333  1
  O  O12  1  0.04276167  0.33783833  0.09670733  1
  O  O13  1  0.02796200  0.64503500  0.25629700  1
  O  O14  1  0.61707300  0.97203800  0.25629700  1
  O  O15  1  0.35496500  0.38292700  0.25629700  1
  O  O16  1  0.66216167  0.70492333  0.09670733  1
  O  O17  1  0.29507667  0.95723833  0.09670733  1
  O  O18  1  0.70942833  0.67117167  0.43004067  1
  O  O19  1  0.69462867  0.97836833  0.58963033  1
  O  O20  1  0.28373967  0.30537133  0.58963033  1
  O  O21  1  0.02163167  0.71626033  0.58963033  1
  O  O22  1  0.32882833  0.03825667  0.43004067  1
  O  O23  1  0.96174333  0.29057167  0.43004067  1
  O  O24  1  0.37609500  0.00450500  0.76337400  1
  O  O25  1  0.36129533  0.31170167  0.92296367  1
  O  O26  1  0.95040633  0.63870467  0.92296367  1
  O  O27  1  0.68829833  0.04959367  0.92296367  1
  O  O28  1  0.99549500  0.37159000  0.76337400  1
  O  O29  1  0.62841000  0.62390500  0.76337400  1
