# generated using pymatgen
data_H8PtO6
_symmetry_space_group_name_H-M   'P 1'
_cell_length_a   5.57288100
_cell_length_b   5.57829422
_cell_length_c   7.33712762
_cell_angle_alpha   87.96834248
_cell_angle_beta   87.11439364
_cell_angle_gamma   82.96113059
_symmetry_Int_Tables_number   1
_chemical_formula_structural   H8PtO6
_chemical_formula_sum   'H16 Pt2 O12'
_cell_volume   225.98576001
_cell_formula_units_Z   2
loop_
 _symmetry_equiv_pos_site_id
 _symmetry_equiv_pos_as_xyz
  1  'x, y, z'
loop_
 _atom_site_type_symbol
 _atom_site_label
 _atom_site_symmetry_multiplicity
 _atom_site_fract_x
 _atom_site_fract_y
 _atom_site_fract_z
 _atom_site_occupancy
  H  H0  1  0.60081800  0.92622500  0.82591100  1
  H  H1  1  0.10803000  0.36854800  0.64805000  1
  H  H2  1  0.86515900  0.24644100  0.74405200  1
  H  H3  1  0.37290700  0.12883500  0.14536600  1
  H  H4  1  0.52216400  0.85172200  0.15254900  1
  H  H5  1  0.12716500  0.75009900  0.24443600  1
  H  H6  1  0.15923400  0.47839800  0.33851200  1
  H  H7  1  0.54862300  0.54407500  0.00630500  1
  H  H8  1  0.42416200  0.46111900  0.51060300  1
  H  H9  1  0.41046300  0.24265800  0.90151400  1
  H  H10  1  0.75465900  0.60766700  0.62039100  1
  H  H11  1  0.79041700  0.63753000  0.40668300  1
  H  H12  1  0.14562700  0.82939500  0.79739800  1
  H  H13  1  0.04400100  0.97736400  0.51890700  1
  H  H14  1  0.97195000  0.04260200  0.02034600  1
  H  H15  1  0.82721800  0.15540500  0.28641400  1
  Pt  Pt16  1  0.49175300  0.01549300  0.49655900  1
  Pt  Pt17  1  0.00205900  0.49187100  0.00006800  1
  O  O18  1  0.58320500  0.07964500  0.75022800  1
  O  O19  1  0.95459700  0.39432900  0.73934300  1
  O  O20  1  0.39983500  0.96424500  0.23077900  1
  O  O21  1  0.04368400  0.60038800  0.25942900  1
  O  O22  1  0.66094500  0.67052300  0.00069700  1
  O  O23  1  0.30323500  0.34864000  0.49199400  1
  O  O24  1  0.34584000  0.32494100  0.01702200  1
  O  O25  1  0.66406600  0.66400200  0.50862500  1
  O  O26  1  0.12998600  0.80853500  0.93424700  1
  O  O27  1  0.18314800  0.87238300  0.57701600  1
  O  O28  1  0.86340800  0.18331300  0.07755000  1
  O  O29  1  0.80922200  0.14412000  0.42610800  1
