# generated using pymatgen
data_GeS2
_symmetry_space_group_name_H-M   'P 1'
_cell_length_a   11.27541800
_cell_length_b   11.27541800
_cell_length_c   19.19716400
_cell_angle_alpha   90.00000000
_cell_angle_beta   90.00000000
_cell_angle_gamma   90.00000000
_symmetry_Int_Tables_number   1
_chemical_formula_structural   GeS2
_chemical_formula_sum   'Ge32 S64'
_cell_volume   2440.63242563
_cell_formula_units_Z   32
loop_
 _symmetry_equiv_pos_site_id
 _symmetry_equiv_pos_as_xyz
  1  'x, y, z'
loop_
 _atom_site_type_symbol
 _atom_site_label
 _atom_site_symmetry_multiplicity
 _atom_site_fract_x
 _atom_site_fract_y
 _atom_site_fract_z
 _atom_site_occupancy
  Ge  Ge0  1  0.12520550  0.59233350  0.18607550  1
  Ge  Ge1  1  0.62520550  0.40766650  0.06392450  1
  Ge  Ge2  1  0.90766650  0.87479450  0.43607550  1
  Ge  Ge3  1  0.90766650  0.62520550  0.31392450  1
  Ge  Ge4  1  0.59233350  0.37479450  0.43607550  1
  Ge  Ge5  1  0.40766650  0.87479450  0.31392450  1
  Ge  Ge6  1  0.40766650  0.62520550  0.43607550  1
  Ge  Ge7  1  0.37479450  0.09233350  0.18607550  1
  Ge  Ge8  1  0.87479450  0.40766650  0.18607550  1
  Ge  Ge9  1  0.62520550  0.90766650  0.18607550  1
  Ge  Ge10  1  0.37479450  0.59233350  0.06392450  1
  Ge  Ge11  1  0.87479450  0.90766650  0.06392450  1
  Ge  Ge12  1  0.09233350  0.37479450  0.31392450  1
  Ge  Ge13  1  0.59233350  0.12520550  0.31392450  1
  Ge  Ge14  1  0.09233350  0.12520550  0.43607550  1
  Ge  Ge15  1  0.12520550  0.09233350  0.06392450  1
  Ge  Ge16  1  0.62520550  0.09233350  0.68607550  1
  Ge  Ge17  1  0.12520550  0.90766650  0.56392450  1
  Ge  Ge18  1  0.40766650  0.37479450  0.93607550  1
  Ge  Ge19  1  0.40766650  0.12520550  0.81392450  1
  Ge  Ge20  1  0.09233350  0.87479450  0.93607550  1
  Ge  Ge21  1  0.90766650  0.37479450  0.81392450  1
  Ge  Ge22  1  0.90766650  0.12520550  0.93607550  1
  Ge  Ge23  1  0.87479450  0.59233350  0.68607550  1
  Ge  Ge24  1  0.37479450  0.90766650  0.68607550  1
  Ge  Ge25  1  0.12520550  0.40766650  0.68607550  1
  Ge  Ge26  1  0.87479450  0.09233350  0.56392450  1
  Ge  Ge27  1  0.37479450  0.40766650  0.56392450  1
  Ge  Ge28  1  0.59233350  0.87479450  0.81392450  1
  Ge  Ge29  1  0.09233350  0.62520550  0.81392450  1
  Ge  Ge30  1  0.59233350  0.62520550  0.93607550  1
  Ge  Ge31  1  0.62520550  0.59233350  0.56392450  1
  S  S32  1  0.76628950  0.96654650  0.49947150  1
  S  S33  1  0.29208600  0.75000000  0.37500000  1
  S  S34  1  0.00000000  0.50000000  0.11223900  1
  S  S35  1  0.70791400  0.25000000  0.37500000  1
  S  S36  1  0.96654650  0.26628950  0.24947150  1
  S  S37  1  0.96654650  0.76628950  0.00052850  1
  S  S38  1  0.79208600  0.75000000  0.37500000  1
  S  S39  1  0.75000000  0.79208600  0.12500000  1
  S  S40  1  0.53345350  0.76628950  0.24947150  1
  S  S41  1  0.20791400  0.25000000  0.37500000  1
  S  S42  1  0.00000000  0.00000000  0.13776100  1
  S  S43  1  0.73371050  0.03345350  0.25052850  1
  S  S44  1  0.50000000  0.50000000  0.36223900  1
  S  S45  1  0.23371050  0.03345350  0.49947150  1
  S  S46  1  0.50000000  0.00000000  0.11223900  1
  S  S47  1  0.50000000  0.50000000  0.13776100  1
  S  S48  1  0.00000000  0.50000000  0.38776100  1
  S  S49  1  0.76628950  0.53345350  0.25052850  1
  S  S50  1  0.46654650  0.23371050  0.24947150  1
  S  S51  1  0.53345350  0.26628950  0.00052850  1
  S  S52  1  0.75000000  0.29208600  0.12500000  1
  S  S53  1  0.50000000  0.00000000  0.38776100  1
  S  S54  1  0.73371050  0.46654650  0.49947150  1
  S  S55  1  0.03345350  0.73371050  0.24947150  1
  S  S56  1  0.46654650  0.73371050  0.00052850  1
  S  S57  1  0.26628950  0.53345350  0.49947150  1
  S  S58  1  0.25000000  0.70791400  0.12500000  1
  S  S59  1  0.00000000  0.00000000  0.36223900  1
  S  S60  1  0.26628950  0.96654650  0.25052850  1
  S  S61  1  0.23371050  0.46654650  0.25052850  1
  S  S62  1  0.03345350  0.23371050  0.00052850  1
  S  S63  1  0.25000000  0.20791400  0.12500000  1
  S  S64  1  0.26628950  0.46654650  0.99947150  1
  S  S65  1  0.79208600  0.25000000  0.87500000  1
  S  S66  1  0.50000000  0.00000000  0.61223900  1
  S  S67  1  0.20791400  0.75000000  0.87500000  1
  S  S68  1  0.46654650  0.76628950  0.74947150  1
  S  S69  1  0.46654650  0.26628950  0.50052850  1
  S  S70  1  0.29208600  0.25000000  0.87500000  1
  S  S71  1  0.25000000  0.29208600  0.62500000  1
  S  S72  1  0.03345350  0.26628950  0.74947150  1
  S  S73  1  0.70791400  0.75000000  0.87500000  1
  S  S74  1  0.50000000  0.50000000  0.63776100  1
  S  S75  1  0.23371050  0.53345350  0.75052850  1
  S  S76  1  0.00000000  0.00000000  0.86223900  1
  S  S77  1  0.73371050  0.53345350  0.99947150  1
  S  S78  1  0.00000000  0.50000000  0.61223900  1
  S  S79  1  0.00000000  0.00000000  0.63776100  1
  S  S80  1  0.50000000  0.00000000  0.88776100  1
  S  S81  1  0.26628950  0.03345350  0.75052850  1
  S  S82  1  0.96654650  0.73371050  0.74947150  1
  S  S83  1  0.03345350  0.76628950  0.50052850  1
  S  S84  1  0.25000000  0.79208600  0.62500000  1
  S  S85  1  0.00000000  0.50000000  0.88776100  1
  S  S86  1  0.23371050  0.96654650  0.99947150  1
  S  S87  1  0.53345350  0.23371050  0.74947150  1
  S  S88  1  0.96654650  0.23371050  0.50052850  1
  S  S89  1  0.76628950  0.03345350  0.99947150  1
  S  S90  1  0.75000000  0.20791400  0.62500000  1
  S  S91  1  0.50000000  0.50000000  0.86223900  1
  S  S92  1  0.76628950  0.46654650  0.75052850  1
  S  S93  1  0.73371050  0.96654650  0.75052850  1
  S  S94  1  0.53345350  0.73371050  0.50052850  1
  S  S95  1  0.75000000  0.70791400  0.62500000  1
