# generated using pymatgen
data_Rb3ZnH5
_symmetry_space_group_name_H-M   'P 1'
_cell_length_a   7.97083600
_cell_length_b   7.97083600
_cell_length_c   11.69628200
_cell_angle_alpha   90.00000000
_cell_angle_beta   90.00000000
_cell_angle_gamma   90.00000000
_symmetry_Int_Tables_number   1
_chemical_formula_structural   Rb3ZnH5
_chemical_formula_sum   'Rb12 Zn4 H20'
_cell_volume   743.11423025
_cell_formula_units_Z   4
loop_
 _symmetry_equiv_pos_site_id
 _symmetry_equiv_pos_as_xyz
  1  'x, y, z'
loop_
 _atom_site_type_symbol
 _atom_site_label
 _atom_site_symmetry_multiplicity
 _atom_site_fract_x
 _atom_site_fract_y
 _atom_site_fract_z
 _atom_site_occupancy
  Rb  Rb0  1  0.68128050  0.18128050  0.50000000  1
  Rb  Rb1  1  0.81871950  0.31871950  0.00000000  1
  Rb  Rb2  1  0.31871950  0.18128050  0.00000000  1
  Rb  Rb3  1  0.68128050  0.81871950  0.00000000  1
  Rb  Rb4  1  0.50000000  0.50000000  0.25000000  1
  Rb  Rb5  1  0.00000000  0.00000000  0.25000000  1
  Rb  Rb6  1  0.18128050  0.68128050  0.00000000  1
  Rb  Rb7  1  0.31871950  0.81871950  0.50000000  1
  Rb  Rb8  1  0.81871950  0.68128050  0.50000000  1
  Rb  Rb9  1  0.18128050  0.31871950  0.50000000  1
  Rb  Rb10  1  0.00000000  0.00000000  0.75000000  1
  Rb  Rb11  1  0.50000000  0.50000000  0.75000000  1
  Zn  Zn12  1  0.00000000  0.50000000  0.25000000  1
  Zn  Zn13  1  0.50000000  0.00000000  0.25000000  1
  Zn  Zn14  1  0.50000000  0.00000000  0.75000000  1
  Zn  Zn15  1  0.00000000  0.50000000  0.75000000  1
  H  H16  1  0.11970550  0.61970550  0.33518350  1
  H  H17  1  0.88029450  0.38029450  0.33518350  1
  H  H18  1  0.38029450  0.11970550  0.33518350  1
  H  H19  1  0.61970550  0.88029450  0.33518350  1
  H  H20  1  0.38029450  0.88029450  0.16481650  1
  H  H21  1  0.61970550  0.11970550  0.16481650  1
  H  H22  1  0.11970550  0.38029450  0.16481650  1
  H  H23  1  0.88029450  0.61970550  0.16481650  1
  H  H24  1  0.00000000  0.00000000  0.00000000  1
  H  H25  1  0.50000000  0.50000000  0.00000000  1
  H  H26  1  0.61970550  0.11970550  0.83518350  1
  H  H27  1  0.38029450  0.88029450  0.83518350  1
  H  H28  1  0.88029450  0.61970550  0.83518350  1
  H  H29  1  0.11970550  0.38029450  0.83518350  1
  H  H30  1  0.88029450  0.38029450  0.66481650  1
  H  H31  1  0.11970550  0.61970550  0.66481650  1
  H  H32  1  0.61970550  0.88029450  0.66481650  1
  H  H33  1  0.38029450  0.11970550  0.66481650  1
  H  H34  1  0.50000000  0.50000000  0.50000000  1
  H  H35  1  0.00000000  0.00000000  0.50000000  1
