# generated using pymatgen
data_Mn(GaS2)2
_symmetry_space_group_name_H-M   'P 1'
_cell_length_a   12.85330079
_cell_length_b   22.75386366
_cell_length_c   6.44441900
_cell_angle_alpha   90.00000000
_cell_angle_beta   108.67134598
_cell_angle_gamma   90.00000000
_symmetry_Int_Tables_number   1
_chemical_formula_structural   Mn(GaS2)2
_chemical_formula_sum   'Mn12 Ga24 S48'
_cell_volume   1785.55589170
_cell_formula_units_Z   12
loop_
 _symmetry_equiv_pos_site_id
 _symmetry_equiv_pos_as_xyz
  1  'x, y, z'
loop_
 _atom_site_type_symbol
 _atom_site_label
 _atom_site_symmetry_multiplicity
 _atom_site_fract_x
 _atom_site_fract_y
 _atom_site_fract_z
 _atom_site_occupancy
  Mn  Mn0  1  0.00000000  0.21758400  0.25000000  1
  Mn  Mn1  1  0.50000000  0.37058450  0.25000000  1
  Mn  Mn2  1  0.50000000  0.28241600  0.75000000  1
  Mn  Mn3  1  0.50000000  0.45680600  0.75000000  1
  Mn  Mn4  1  0.00000000  0.04319400  0.25000000  1
  Mn  Mn5  1  0.00000000  0.12941550  0.75000000  1
  Mn  Mn6  1  0.50000000  0.71758400  0.25000000  1
  Mn  Mn7  1  0.00000000  0.87058450  0.25000000  1
  Mn  Mn8  1  0.00000000  0.78241600  0.75000000  1
  Mn  Mn9  1  0.00000000  0.95680600  0.75000000  1
  Mn  Mn10  1  0.50000000  0.54319400  0.25000000  1
  Mn  Mn11  1  0.50000000  0.62941550  0.75000000  1
  Ga  Ga12  1  0.78713100  0.46026300  0.62428300  1
  Ga  Ga13  1  0.29237900  0.12667500  0.62357100  1
  Ga  Ga14  1  0.70762100  0.12667500  0.87642900  1
  Ga  Ga15  1  0.71286900  0.03973700  0.37571700  1
  Ga  Ga16  1  0.31339450  0.20181850  0.14970700  1
  Ga  Ga17  1  0.21286900  0.46026300  0.87571700  1
  Ga  Ga18  1  0.18660550  0.29818150  0.85029300  1
  Ga  Ga19  1  0.68660550  0.20181850  0.35029300  1
  Ga  Ga20  1  0.81339450  0.29818150  0.64970700  1
  Ga  Ga21  1  0.20762100  0.37332500  0.37642900  1
  Ga  Ga22  1  0.79237900  0.37332500  0.12357100  1
  Ga  Ga23  1  0.28713100  0.03973700  0.12428300  1
  Ga  Ga24  1  0.28713100  0.96026300  0.62428300  1
  Ga  Ga25  1  0.79237900  0.62667500  0.62357100  1
  Ga  Ga26  1  0.20762100  0.62667500  0.87642900  1
  Ga  Ga27  1  0.21286900  0.53973700  0.37571700  1
  Ga  Ga28  1  0.81339450  0.70181850  0.14970700  1
  Ga  Ga29  1  0.71286900  0.96026300  0.87571700  1
  Ga  Ga30  1  0.68660550  0.79818150  0.85029300  1
  Ga  Ga31  1  0.18660550  0.70181850  0.35029300  1
  Ga  Ga32  1  0.31339450  0.79818150  0.64970700  1
  Ga  Ga33  1  0.70762100  0.87332500  0.37642900  1
  Ga  Ga34  1  0.29237900  0.87332500  0.12357100  1
  Ga  Ga35  1  0.78713100  0.53973700  0.12428300  1
  S  S36  1  0.37469750  0.11929150  0.00606600  1
  S  S37  1  0.12530250  0.38070850  0.99393400  1
  S  S38  1  0.88697800  0.30219200  0.01540500  1
  S  S39  1  0.89332400  0.04468600  0.52355600  1
  S  S40  1  0.86746800  0.45966700  0.00789200  1
  S  S41  1  0.39332400  0.45531400  0.02355600  1
  S  S42  1  0.87469750  0.38070850  0.50606600  1
  S  S43  1  0.89269800  0.13247400  0.02031700  1
  S  S44  1  0.13253200  0.45966700  0.49210800  1
  S  S45  1  0.62530250  0.11929150  0.49393400  1
  S  S46  1  0.37219850  0.28511650  0.00812200  1
  S  S47  1  0.10667600  0.04468600  0.97644400  1
  S  S48  1  0.12780150  0.21488350  0.99187800  1
  S  S49  1  0.63253200  0.04033300  0.99210800  1
  S  S50  1  0.60667600  0.45531400  0.47644400  1
  S  S51  1  0.87219850  0.21488350  0.50812200  1
  S  S52  1  0.61302200  0.19780800  0.98459500  1
  S  S53  1  0.39269800  0.36752600  0.52031700  1
  S  S54  1  0.38697800  0.19780800  0.51540500  1
  S  S55  1  0.10730200  0.13247400  0.47968300  1
  S  S56  1  0.60730200  0.36752600  0.97968300  1
  S  S57  1  0.62780150  0.28511650  0.49187800  1
  S  S58  1  0.36746800  0.04033300  0.50789200  1
  S  S59  1  0.11302200  0.30219200  0.48459500  1
  S  S60  1  0.87469750  0.61929150  0.00606600  1
  S  S61  1  0.62530250  0.88070850  0.99393400  1
  S  S62  1  0.38697800  0.80219200  0.01540500  1
  S  S63  1  0.39332400  0.54468600  0.52355600  1
  S  S64  1  0.36746800  0.95966700  0.00789200  1
  S  S65  1  0.89332400  0.95531400  0.02355600  1
  S  S66  1  0.37469750  0.88070850  0.50606600  1
  S  S67  1  0.39269800  0.63247400  0.02031700  1
  S  S68  1  0.63253200  0.95966700  0.49210800  1
  S  S69  1  0.12530250  0.61929150  0.49393400  1
  S  S70  1  0.87219850  0.78511650  0.00812200  1
  S  S71  1  0.60667600  0.54468600  0.97644400  1
  S  S72  1  0.62780150  0.71488350  0.99187800  1
  S  S73  1  0.13253200  0.54033300  0.99210800  1
  S  S74  1  0.10667600  0.95531400  0.47644400  1
  S  S75  1  0.37219850  0.71488350  0.50812200  1
  S  S76  1  0.11302200  0.69780800  0.98459500  1
  S  S77  1  0.89269800  0.86752600  0.52031700  1
  S  S78  1  0.88697800  0.69780800  0.51540500  1
  S  S79  1  0.60730200  0.63247400  0.47968300  1
  S  S80  1  0.10730200  0.86752600  0.97968300  1
  S  S81  1  0.12780150  0.78511650  0.49187800  1
  S  S82  1  0.86746800  0.54033300  0.50789200  1
  S  S83  1  0.61302200  0.80219200  0.48459500  1
