# generated using pymatgen
data_BaH4(ClO)2
_symmetry_space_group_name_H-M   'P 1'
_cell_length_a   6.81902400
_cell_length_b   11.05456500
_cell_length_c   9.80828426
_cell_angle_alpha   90.00000000
_cell_angle_beta   132.92018817
_cell_angle_gamma   90.00000000
_symmetry_Int_Tables_number   1
_chemical_formula_structural   BaH4(ClO)2
_chemical_formula_sum   'Ba4 H16 Cl8 O8'
_cell_volume   541.43675546
_cell_formula_units_Z   4
loop_
 _symmetry_equiv_pos_site_id
 _symmetry_equiv_pos_as_xyz
  1  'x, y, z'
loop_
 _atom_site_type_symbol
 _atom_site_label
 _atom_site_symmetry_multiplicity
 _atom_site_fract_x
 _atom_site_fract_y
 _atom_site_fract_z
 _atom_site_occupancy
  Ba  Ba0  1  0.10548900  0.21660500  0.14609700  1
  Ba  Ba1  1  0.10548900  0.28339500  0.64609700  1
  Ba  Ba2  1  0.89451100  0.78339500  0.85390300  1
  Ba  Ba3  1  0.89451100  0.71660500  0.35390300  1
  H  H4  1  0.52805100  0.43907800  0.38161000  1
  H  H5  1  0.52805100  0.06092200  0.88161000  1
  H  H6  1  0.47194900  0.56092200  0.61839000  1
  H  H7  1  0.47194900  0.93907800  0.11839000  1
  H  H8  1  0.56640700  0.37473200  0.54292200  1
  H  H9  1  0.56640700  0.12526800  0.04292200  1
  H  H10  1  0.43359300  0.62526800  0.45707800  1
  H  H11  1  0.43359300  0.87473200  0.95707800  1
  H  H12  1  0.50421200  0.36247300  0.09950900  1
  H  H13  1  0.50421200  0.13752700  0.59950900  1
  H  H14  1  0.49578800  0.63752700  0.90049100  1
  H  H15  1  0.49578800  0.86247300  0.40049100  1
  H  H16  1  0.23957000  0.43581800  0.98825700  1
  H  H17  1  0.23957000  0.06418200  0.48825700  1
  H  H18  1  0.76043000  0.56418200  0.01174300  1
  H  H19  1  0.76043000  0.93581800  0.51174300  1
  Cl  Cl20  1  0.92746000  0.41855700  0.29187200  1
  Cl  Cl21  1  0.92746000  0.08144300  0.79187200  1
  Cl  Cl22  1  0.07254000  0.58144300  0.70812800  1
  Cl  Cl23  1  0.07254000  0.91855700  0.20812800  1
  Cl  Cl24  1  0.65775500  0.39671700  0.79916000  1
  Cl  Cl25  1  0.65775500  0.10328300  0.29916000  1
  Cl  Cl26  1  0.34224500  0.60328300  0.20084000  1
  Cl  Cl27  1  0.34224500  0.89671700  0.70084000  1
  O  O28  1  0.56353700  0.35982500  0.44141600  1
  O  O29  1  0.56353700  0.14017500  0.94141600  1
  O  O30  1  0.43646300  0.64017500  0.55858400  1
  O  O31  1  0.43646300  0.85982500  0.05858400  1
  O  O32  1  0.30649500  0.35302200  0.00689600  1
  O  O33  1  0.30649500  0.14697800  0.50689600  1
  O  O34  1  0.69350500  0.64697800  0.99310400  1
  O  O35  1  0.69350500  0.85302200  0.49310400  1
