# generated using pymatgen
data_Ba4In6O13
_symmetry_space_group_name_H-M   'P 1'
_cell_length_a   5.88181600
_cell_length_b   12.04429000
_cell_length_c   21.40304400
_cell_angle_alpha   90.00000000
_cell_angle_beta   90.00000000
_cell_angle_gamma   90.00000000
_symmetry_Int_Tables_number   1
_chemical_formula_structural   Ba4In6O13
_chemical_formula_sum   'Ba16 In24 O52'
_cell_volume   1516.24081325
_cell_formula_units_Z   4
loop_
 _symmetry_equiv_pos_site_id
 _symmetry_equiv_pos_as_xyz
  1  'x, y, z'
loop_
 _atom_site_type_symbol
 _atom_site_label
 _atom_site_symmetry_multiplicity
 _atom_site_fract_x
 _atom_site_fract_y
 _atom_site_fract_z
 _atom_site_occupancy
  Ba  Ba0  1  0.49439100  0.37136200  0.34374800  1
  Ba  Ba1  1  0.49439100  0.87136200  0.15625200  1
  Ba  Ba2  1  0.49662850  0.37569350  0.16289850  1
  Ba  Ba3  1  0.99439100  0.62863800  0.34374800  1
  Ba  Ba4  1  0.99439100  0.12863800  0.15625200  1
  Ba  Ba5  1  0.99662850  0.62430650  0.16289850  1
  Ba  Ba6  1  0.99662850  0.12430650  0.33710150  1
  Ba  Ba7  1  0.49662850  0.87569350  0.33710150  1
  Ba  Ba8  1  0.99439100  0.87136200  0.84374800  1
  Ba  Ba9  1  0.99439100  0.37136200  0.65625200  1
  Ba  Ba10  1  0.99662850  0.87569350  0.66289850  1
  Ba  Ba11  1  0.49439100  0.12863800  0.84374800  1
  Ba  Ba12  1  0.49439100  0.62863800  0.65625200  1
  Ba  Ba13  1  0.49662850  0.12430650  0.66289850  1
  Ba  Ba14  1  0.49662850  0.62430650  0.83710150  1
  Ba  Ba15  1  0.99662850  0.37569350  0.83710150  1
  In  In16  1  0.99139850  0.39131150  0.04680050  1
  In  In17  1  0.44303350  0.12571750  0.03776450  1
  In  In18  1  0.49139850  0.60868850  0.04680050  1
  In  In19  1  0.49730950  0.62403450  0.25040950  1
  In  In20  1  0.99730950  0.87596550  0.24959050  1
  In  In21  1  0.49139850  0.10868850  0.45319950  1
  In  In22  1  0.94303350  0.37428250  0.46223550  1
  In  In23  1  0.99139850  0.89131150  0.45319950  1
  In  In24  1  0.44303350  0.62571750  0.46223550  1
  In  In25  1  0.94303350  0.87428250  0.03776450  1
  In  In26  1  0.99730950  0.37596550  0.25040950  1
  In  In27  1  0.49730950  0.12403450  0.24959050  1
  In  In28  1  0.49139850  0.89131150  0.54680050  1
  In  In29  1  0.94303350  0.62571750  0.53776450  1
  In  In30  1  0.99139850  0.10868850  0.54680050  1
  In  In31  1  0.99730950  0.12403450  0.75040950  1
  In  In32  1  0.49730950  0.37596550  0.74959050  1
  In  In33  1  0.99139850  0.60868850  0.95319950  1
  In  In34  1  0.44303350  0.87428250  0.96223550  1
  In  In35  1  0.49139850  0.39131150  0.95319950  1
  In  In36  1  0.94303350  0.12571750  0.96223550  1
  In  In37  1  0.44303350  0.37428250  0.53776450  1
  In  In38  1  0.49730950  0.87596550  0.75040950  1
  In  In39  1  0.99730950  0.62403450  0.74959050  1
  O  O40  1  0.74715200  0.74959900  0.25312100  1
  O  O41  1  0.50163000  0.12479700  0.13293800  1
  O  O42  1  0.62097000  0.92078300  0.45429700  1
  O  O43  1  0.10469400  0.71764900  0.46583000  1
  O  O44  1  0.60469400  0.78235100  0.03417000  1
  O  O45  1  0.62097000  0.42078300  0.04570300  1
  O  O46  1  0.00163000  0.37520300  0.36706200  1
  O  O47  1  0.71698400  0.00000000  0.00000000  1
  O  O48  1  0.21698400  0.00000000  0.00000000  1
  O  O49  1  0.12097000  0.57921700  0.04570300  1
  O  O50  1  0.24715200  0.75040100  0.24687900  1
  O  O51  1  0.74354400  0.49787700  0.25670200  1
  O  O52  1  0.24354400  0.00212300  0.24329800  1
  O  O53  1  0.51859500  0.62059200  0.14375600  1
  O  O54  1  0.24715200  0.25040100  0.25312100  1
  O  O55  1  0.74354400  0.99787700  0.24329800  1
  O  O56  1  0.74715200  0.24959900  0.24687900  1
  O  O57  1  0.50163000  0.62479700  0.36706200  1
  O  O58  1  0.01859500  0.37940800  0.14375600  1
  O  O59  1  0.10469400  0.21764900  0.03417000  1
  O  O60  1  0.51859500  0.12059200  0.35624400  1
  O  O61  1  0.01859500  0.87940800  0.35624400  1
  O  O62  1  0.24354400  0.50212300  0.25670200  1
  O  O63  1  0.12097000  0.07921700  0.45429700  1
  O  O64  1  0.60469400  0.28235100  0.46583000  1
  O  O65  1  0.00163000  0.87520300  0.13293800  1
  O  O66  1  0.24715200  0.24959900  0.75312100  1
  O  O67  1  0.00163000  0.62479700  0.63293800  1
  O  O68  1  0.12097000  0.42078300  0.95429700  1
  O  O69  1  0.60469400  0.21764900  0.96583000  1
  O  O70  1  0.10469400  0.28235100  0.53417000  1
  O  O71  1  0.12097000  0.92078300  0.54570300  1
  O  O72  1  0.50163000  0.87520300  0.86706200  1
  O  O73  1  0.21698400  0.50000000  0.50000000  1
  O  O74  1  0.71698400  0.50000000  0.50000000  1
  O  O75  1  0.62097000  0.07921700  0.54570300  1
  O  O76  1  0.74715200  0.25040100  0.74687900  1
  O  O77  1  0.24354400  0.99787700  0.75670200  1
  O  O78  1  0.74354400  0.50212300  0.74329800  1
  O  O79  1  0.01859500  0.12059200  0.64375600  1
  O  O80  1  0.74715200  0.75040100  0.75312100  1
  O  O81  1  0.24354400  0.49787700  0.74329800  1
  O  O82  1  0.24715200  0.74959900  0.74687900  1
  O  O83  1  0.00163000  0.12479700  0.86706200  1
  O  O84  1  0.51859500  0.87940800  0.64375600  1
  O  O85  1  0.60469400  0.71764900  0.53417000  1
  O  O86  1  0.01859500  0.62059200  0.85624400  1
  O  O87  1  0.51859500  0.37940800  0.85624400  1
  O  O88  1  0.74354400  0.00212300  0.75670200  1
  O  O89  1  0.62097000  0.57921700  0.95429700  1
  O  O90  1  0.10469400  0.78235100  0.96583000  1
  O  O91  1  0.50163000  0.37520300  0.63293800  1
