# generated using pymatgen
data_Ba2ScCl7
_symmetry_space_group_name_H-M   'P 1'
_cell_length_a   7.01195300
_cell_length_b   13.67386100
_cell_length_c   12.26118687
_cell_angle_alpha   90.00000000
_cell_angle_beta   95.42987370
_cell_angle_gamma   90.00000000
_symmetry_Int_Tables_number   1
_chemical_formula_structural   Ba2ScCl7
_chemical_formula_sum   'Ba8 Sc4 Cl28'
_cell_volume   1170.33313280
_cell_formula_units_Z   4
loop_
 _symmetry_equiv_pos_site_id
 _symmetry_equiv_pos_as_xyz
  1  'x, y, z'
loop_
 _atom_site_type_symbol
 _atom_site_label
 _atom_site_symmetry_multiplicity
 _atom_site_fract_x
 _atom_site_fract_y
 _atom_site_fract_z
 _atom_site_occupancy
  Ba  Ba0  1  0.26008100  0.07268800  0.86858600  1
  Ba  Ba1  1  0.73425900  0.33691600  0.01462400  1
  Ba  Ba2  1  0.26008100  0.42731200  0.36858600  1
  Ba  Ba3  1  0.73425900  0.16308400  0.51462400  1
  Ba  Ba4  1  0.73991900  0.57268800  0.63141400  1
  Ba  Ba5  1  0.73991900  0.92731200  0.13141400  1
  Ba  Ba6  1  0.26574100  0.66308400  0.98537600  1
  Ba  Ba7  1  0.26574100  0.83691600  0.48537600  1
  Sc  Sc8  1  0.80120800  0.63342700  0.20469200  1
  Sc  Sc9  1  0.80120800  0.86657300  0.70469200  1
  Sc  Sc10  1  0.19879200  0.13342700  0.29530800  1
  Sc  Sc11  1  0.19879200  0.36657300  0.79530800  1
  Cl  Cl12  1  0.95390500  0.23120700  0.76119600  1
  Cl  Cl13  1  0.04609500  0.73120700  0.73880400  1
  Cl  Cl14  1  0.22663900  0.19416500  0.48836500  1
  Cl  Cl15  1  0.45230100  0.00358100  0.34359200  1
  Cl  Cl16  1  0.95164300  0.48473500  0.85750800  1
  Cl  Cl17  1  0.77336100  0.80583500  0.51163500  1
  Cl  Cl18  1  0.45230100  0.49641900  0.84359200  1
  Cl  Cl19  1  0.46209500  0.25472600  0.76176600  1
  Cl  Cl20  1  0.95390500  0.26879300  0.26119600  1
  Cl  Cl21  1  0.46209500  0.24527400  0.26176600  1
  Cl  Cl22  1  0.62589100  0.37698200  0.51763600  1
  Cl  Cl23  1  0.54769900  0.50358100  0.15640800  1
  Cl  Cl24  1  0.12052200  0.06691800  0.11123900  1
  Cl  Cl25  1  0.04835700  0.98473500  0.64249200  1
  Cl  Cl26  1  0.54769900  0.99641900  0.65640800  1
  Cl  Cl27  1  0.12052200  0.43308200  0.61123900  1
  Cl  Cl28  1  0.87947800  0.56691800  0.38876100  1
  Cl  Cl29  1  0.62589100  0.12301800  0.01763600  1
  Cl  Cl30  1  0.04835700  0.51526500  0.14249200  1
  Cl  Cl31  1  0.77336100  0.69416500  0.01163500  1
  Cl  Cl32  1  0.53790500  0.74527400  0.23823400  1
  Cl  Cl33  1  0.37410900  0.62301800  0.48236400  1
  Cl  Cl34  1  0.22663900  0.30583500  0.98836500  1
  Cl  Cl35  1  0.87947800  0.93308200  0.88876100  1
  Cl  Cl36  1  0.53790500  0.75472600  0.73823400  1
  Cl  Cl37  1  0.95164300  0.01526500  0.35750800  1
  Cl  Cl38  1  0.37410900  0.87698200  0.98236400  1
  Cl  Cl39  1  0.04609500  0.76879300  0.23880400  1
