# generated using pymatgen
data_Ca(H8O5)2
_symmetry_space_group_name_H-M   'P 1'
_cell_length_a   6.20947500
_cell_length_b   6.21322600
_cell_length_c   10.94680791
_cell_angle_alpha   90.00000000
_cell_angle_beta   90.05424013
_cell_angle_gamma   90.00000000
_symmetry_Int_Tables_number   1
_chemical_formula_structural   Ca(H8O5)2
_chemical_formula_sum   'Ca2 H32 O20'
_cell_volume   422.33720006
_cell_formula_units_Z   2
loop_
 _symmetry_equiv_pos_site_id
 _symmetry_equiv_pos_as_xyz
  1  'x, y, z'
loop_
 _atom_site_type_symbol
 _atom_site_label
 _atom_site_symmetry_multiplicity
 _atom_site_fract_x
 _atom_site_fract_y
 _atom_site_fract_z
 _atom_site_occupancy
  Ca  Ca0  1  0.00280500  0.99727700  0.24872700  1
  Ca  Ca1  1  0.00280500  0.00272300  0.74872700  1
  H  H2  1  0.72474000  0.62021900  0.35268700  1
  H  H3  1  0.96896700  0.55366100  0.36866600  1
  H  H4  1  0.27524600  0.38194800  0.35174300  1
  H  H5  1  0.13195400  0.30102700  0.46411400  1
  H  H6  1  0.44366600  0.96719900  0.36819000  1
  H  H7  1  0.37870700  0.72109100  0.35257400  1
  H  H8  1  0.62316000  0.26269600  0.34103400  1
  H  H9  1  0.69786100  0.13378600  0.45952300  1
  H  H10  1  0.27524600  0.61805200  0.85174300  1
  H  H11  1  0.13195400  0.69897300  0.96411400  1
  H  H12  1  0.72474000  0.37978100  0.85268700  1
  H  H13  1  0.96896700  0.44633900  0.86866600  1
  H  H14  1  0.62316000  0.73730400  0.84103400  1
  H  H15  1  0.69786100  0.86621400  0.95952300  1
  H  H16  1  0.37870700  0.27890900  0.85257400  1
  H  H17  1  0.44366600  0.03280100  0.86819000  1
  H  H18  1  0.03074200  0.44485800  0.63147500  1
  H  H19  1  0.27608000  0.37872100  0.64656600  1
  H  H20  1  0.72563000  0.61604200  0.64682200  1
  H  H21  1  0.86882200  0.69942800  0.53566600  1
  H  H22  1  0.55824900  0.03141700  0.62964300  1
  H  H23  1  0.62042300  0.27707300  0.64595500  1
  H  H24  1  0.38138100  0.72546500  0.64747900  1
  H  H25  1  0.30143700  0.86977600  0.53554900  1
  H  H26  1  0.72563000  0.38395800  0.14682200  1
  H  H27  1  0.86882200  0.30057200  0.03566600  1
  H  H28  1  0.03074200  0.55514200  0.13147500  1
  H  H29  1  0.27608000  0.62127900  0.14656600  1
  H  H30  1  0.38138100  0.27453500  0.14747900  1
  H  H31  1  0.30143700  0.13022400  0.03554900  1
  H  H32  1  0.62042300  0.72292700  0.14595500  1
  H  H33  1  0.55824900  0.96858300  0.12964300  1
  O  O34  1  0.50096600  0.49772300  0.31624300  1
  O  O35  1  0.50096600  0.50227700  0.81624300  1
  O  O36  1  0.49840200  0.49792900  0.67985800  1
  O  O37  1  0.49840200  0.50207100  0.17985800  1
  O  O38  1  0.87239200  0.68168800  0.37461500  1
  O  O39  1  0.12895200  0.31784600  0.37342900  1
  O  O40  1  0.31706100  0.86845800  0.37499500  1
  O  O41  1  0.68367600  0.11750000  0.36809800  1
  O  O42  1  0.12895200  0.68215400  0.87342900  1
  O  O43  1  0.87239200  0.31831200  0.87461500  1
  O  O44  1  0.68367600  0.88250000  0.86809800  1
  O  O45  1  0.31706100  0.13154200  0.87499500  1
  O  O46  1  0.12800800  0.31746600  0.62526200  1
  O  O47  1  0.87152600  0.68117200  0.62630500  1
  O  O48  1  0.68385000  0.13071500  0.62178200  1
  O  O49  1  0.31977400  0.87293000  0.62624500  1
  O  O50  1  0.87152600  0.31882800  0.12630500  1
  O  O51  1  0.12800800  0.68253400  0.12526200  1
  O  O52  1  0.31977400  0.12707000  0.12624500  1
  O  O53  1  0.68385000  0.86928500  0.12178200  1
