# generated using pymatgen
data_Na2MgAlF7
_symmetry_space_group_name_H-M   'P 1'
_cell_length_a   7.15846400
_cell_length_b   7.43167200
_cell_length_c   10.13346400
_cell_angle_alpha   90.00000000
_cell_angle_beta   90.00000000
_cell_angle_gamma   90.00000000
_symmetry_Int_Tables_number   1
_chemical_formula_structural   Na2MgAlF7
_chemical_formula_sum   'Na8 Mg4 Al4 F28'
_cell_volume   539.09376363
_cell_formula_units_Z   4
loop_
 _symmetry_equiv_pos_site_id
 _symmetry_equiv_pos_as_xyz
  1  'x, y, z'
loop_
 _atom_site_type_symbol
 _atom_site_label
 _atom_site_symmetry_multiplicity
 _atom_site_fract_x
 _atom_site_fract_y
 _atom_site_fract_z
 _atom_site_occupancy
  Na  Na0  1  0.25000000  0.75000000  0.25000000  1
  Na  Na1  1  0.75000000  0.75000000  0.25000000  1
  Na  Na2  1  0.00000000  0.00000000  0.50000000  1
  Na  Na3  1  0.00000000  0.00000000  0.00000000  1
  Na  Na4  1  0.75000000  0.25000000  0.75000000  1
  Na  Na5  1  0.25000000  0.25000000  0.75000000  1
  Na  Na6  1  0.50000000  0.50000000  0.00000000  1
  Na  Na7  1  0.50000000  0.50000000  0.50000000  1
  Mg  Mg8  1  0.25000000  0.25000000  0.25000000  1
  Mg  Mg9  1  0.75000000  0.25000000  0.25000000  1
  Mg  Mg10  1  0.75000000  0.75000000  0.75000000  1
  Mg  Mg11  1  0.25000000  0.75000000  0.75000000  1
  Al  Al12  1  0.50000000  0.00000000  0.00000000  1
  Al  Al13  1  0.50000000  0.00000000  0.50000000  1
  Al  Al14  1  0.00000000  0.50000000  0.50000000  1
  Al  Al15  1  0.00000000  0.50000000  0.00000000  1
  F  F16  1  0.00000000  0.13756600  0.25000000  1
  F  F17  1  0.00000000  0.86243400  0.75000000  1
  F  F18  1  0.00000000  0.72121000  0.41342400  1
  F  F19  1  0.00000000  0.27879000  0.58657600  1
  F  F20  1  0.50000000  0.22121000  0.58657600  1
  F  F21  1  0.50000000  0.77879000  0.41342400  1
  F  F22  1  0.68477750  0.93145550  0.88699750  1
  F  F23  1  0.68477750  0.06854450  0.11300250  1
  F  F24  1  0.68477750  0.93145550  0.61300250  1
  F  F25  1  0.68477750  0.06854450  0.38699750  1
  F  F26  1  0.31522250  0.06854450  0.38699750  1
  F  F27  1  0.31522250  0.93145550  0.61300250  1
  F  F28  1  0.31522250  0.06854450  0.11300250  1
  F  F29  1  0.31522250  0.93145550  0.88699750  1
  F  F30  1  0.50000000  0.63756600  0.75000000  1
  F  F31  1  0.50000000  0.36243400  0.25000000  1
  F  F32  1  0.50000000  0.22121000  0.91342400  1
  F  F33  1  0.50000000  0.77879000  0.08657600  1
  F  F34  1  0.00000000  0.72121000  0.08657600  1
  F  F35  1  0.00000000  0.27879000  0.91342400  1
  F  F36  1  0.18477750  0.43145550  0.38699750  1
  F  F37  1  0.18477750  0.56854450  0.61300250  1
  F  F38  1  0.18477750  0.43145550  0.11300250  1
  F  F39  1  0.18477750  0.56854450  0.88699750  1
  F  F40  1  0.81522250  0.56854450  0.88699750  1
  F  F41  1  0.81522250  0.43145550  0.11300250  1
  F  F42  1  0.81522250  0.56854450  0.61300250  1
  F  F43  1  0.81522250  0.43145550  0.38699750  1
