# generated using pymatgen
data_Ba9La3Mg5Nb7O36
_symmetry_space_group_name_H-M   'P 1'
_cell_length_a   5.81651700
_cell_length_b   8.23106500
_cell_length_c   17.44612300
_cell_angle_alpha   90.00000000
_cell_angle_beta   90.00000000
_cell_angle_gamma   90.00000000
_symmetry_Int_Tables_number   1
_chemical_formula_structural   Ba9La3Mg5Nb7O36
_chemical_formula_sum   'Ba9 La3 Mg5 Nb7 O36'
_cell_volume   835.25284403
_cell_formula_units_Z   1
loop_
 _symmetry_equiv_pos_site_id
 _symmetry_equiv_pos_as_xyz
  1  'x, y, z'
loop_
 _atom_site_type_symbol
 _atom_site_label
 _atom_site_symmetry_multiplicity
 _atom_site_fract_x
 _atom_site_fract_y
 _atom_site_fract_z
 _atom_site_occupancy
  Ba  Ba0  1  0.00000000  0.25804200  0.00000000  1
  Ba  Ba1  1  0.50000000  0.74278600  0.16998400  1
  Ba  Ba2  1  0.50000000  0.25655700  0.17043100  1
  Ba  Ba3  1  0.00000000  0.74859300  0.33692600  1
  Ba  Ba4  1  0.50000000  0.24767400  0.50000000  1
  Ba  Ba5  1  0.50000000  0.74278600  0.83001600  1
  Ba  Ba6  1  0.00000000  0.74859300  0.66307400  1
  Ba  Ba7  1  0.50000000  0.25655700  0.82956900  1
  Ba  Ba8  1  0.00000000  0.74285200  0.00000000  1
  La  La9  1  0.00000000  0.26852600  0.33460100  1
  La  La10  1  0.50000000  0.75343600  0.50000000  1
  La  La11  1  0.00000000  0.26852600  0.66539900  1
  Mg  Mg12  1  0.00000000  0.49956600  0.16676800  1
  Mg  Mg13  1  0.50000000  0.00089900  0.33631800  1
  Mg  Mg14  1  0.50000000  0.00089900  0.66368200  1
  Mg  Mg15  1  0.00000000  0.49921600  0.50000000  1
  Mg  Mg16  1  0.00000000  0.49956600  0.83323200  1
  Nb  Nb17  1  0.50000000  0.00061100  0.00000000  1
  Nb  Nb18  1  0.50000000  0.49890700  0.00000000  1
  Nb  Nb19  1  0.00000000  0.00203200  0.17480100  1
  Nb  Nb20  1  0.50000000  0.49831300  0.33632500  1
  Nb  Nb21  1  0.00000000  0.00198400  0.50000000  1
  Nb  Nb22  1  0.50000000  0.49831300  0.66367500  1
  Nb  Nb23  1  0.00000000  0.00203200  0.82519900  1
  O  O24  1  0.74103400  0.50109100  0.08125500  1
  O  O25  1  0.50000000  0.75370800  0.00000000  1
  O  O26  1  0.25896600  0.50109100  0.08125500  1
  O  O27  1  0.24259500  0.00693600  0.25045000  1
  O  O28  1  0.25498700  0.00152900  0.08176200  1
  O  O29  1  0.00000000  0.76103500  0.16550600  1
  O  O30  1  0.00000000  0.24281000  0.16831900  1
  O  O31  1  0.75740500  0.00693600  0.25045000  1
  O  O32  1  0.74501300  0.00152900  0.08176200  1
  O  O33  1  0.74752700  0.49552400  0.41615800  1
  O  O34  1  0.75423600  0.48823400  0.25645500  1
  O  O35  1  0.50000000  0.74249000  0.34071300  1
  O  O36  1  0.50000000  0.25330100  0.33547100  1
  O  O37  1  0.25247300  0.49552400  0.41615800  1
  O  O38  1  0.24576400  0.48823400  0.25645500  1
  O  O39  1  0.24598800  0.99759800  0.58102500  1
  O  O40  1  0.24598800  0.99759800  0.41897500  1
  O  O41  1  0.00000000  0.75305500  0.50000000  1
  O  O42  1  0.00000000  0.24480400  0.50000000  1
  O  O43  1  0.75401200  0.99759800  0.58102500  1
  O  O44  1  0.75401200  0.99759800  0.41897500  1
  O  O45  1  0.75423600  0.48823400  0.74354500  1
  O  O46  1  0.74752700  0.49552400  0.58384200  1
  O  O47  1  0.50000000  0.25330100  0.66452900  1
  O  O48  1  0.50000000  0.74249000  0.65928700  1
  O  O49  1  0.24576400  0.48823400  0.74354500  1
  O  O50  1  0.25247300  0.49552400  0.58384200  1
  O  O51  1  0.24259500  0.00693600  0.74955000  1
  O  O52  1  0.25498700  0.00152900  0.91823800  1
  O  O53  1  0.00000000  0.76103500  0.83449400  1
  O  O54  1  0.00000000  0.24281000  0.83168100  1
  O  O55  1  0.75740500  0.00693600  0.74955000  1
  O  O56  1  0.74501300  0.00152900  0.91823800  1
  O  O57  1  0.74103400  0.50109100  0.91874500  1
  O  O58  1  0.50000000  0.24825500  0.00000000  1
  O  O59  1  0.25896600  0.50109100  0.91874500  1
