# generated using pymatgen
data_K2LiAlP2
_symmetry_space_group_name_H-M   'P 1'
_cell_length_a   6.12420200
_cell_length_b   6.16256200
_cell_length_c   14.91191200
_cell_angle_alpha   90.00000000
_cell_angle_beta   90.00000000
_cell_angle_gamma   90.00000000
_symmetry_Int_Tables_number   1
_chemical_formula_structural   K2LiAlP2
_chemical_formula_sum   'K8 Li4 Al4 P8'
_cell_volume   562.78710854
_cell_formula_units_Z   4
loop_
 _symmetry_equiv_pos_site_id
 _symmetry_equiv_pos_as_xyz
  1  'x, y, z'
loop_
 _atom_site_type_symbol
 _atom_site_label
 _atom_site_symmetry_multiplicity
 _atom_site_fract_x
 _atom_site_fract_y
 _atom_site_fract_z
 _atom_site_occupancy
  K  K0  1  0.00000000  0.27269600  0.17315300  1
  K  K1  1  0.50000000  0.22730400  0.32684700  1
  K  K2  1  0.00000000  0.77269600  0.32684700  1
  K  K3  1  0.50000000  0.72730400  0.17315300  1
  K  K4  1  0.50000000  0.77269600  0.67315300  1
  K  K5  1  0.00000000  0.72730400  0.82684700  1
  K  K6  1  0.50000000  0.27269600  0.82684700  1
  K  K7  1  0.00000000  0.22730400  0.67315300  1
  Li  Li8  1  0.75000000  0.50000000  0.00000000  1
  Li  Li9  1  0.25000000  0.50000000  0.00000000  1
  Li  Li10  1  0.25000000  0.00000000  0.50000000  1
  Li  Li11  1  0.75000000  0.00000000  0.50000000  1
  Al  Al12  1  0.75000000  0.00000000  0.00000000  1
  Al  Al13  1  0.25000000  0.00000000  0.00000000  1
  Al  Al14  1  0.25000000  0.50000000  0.50000000  1
  Al  Al15  1  0.75000000  0.50000000  0.50000000  1
  P  P16  1  0.00000000  0.77894650  0.08836350  1
  P  P17  1  0.50000000  0.22105350  0.08836350  1
  P  P18  1  0.00000000  0.27894650  0.41163650  1
  P  P19  1  0.50000000  0.72105350  0.41163650  1
  P  P20  1  0.50000000  0.27894650  0.58836350  1
  P  P21  1  0.00000000  0.72105350  0.58836350  1
  P  P22  1  0.50000000  0.77894650  0.91163650  1
  P  P23  1  0.00000000  0.22105350  0.91163650  1
