# generated using pymatgen
data_Al3Bi5Cl12
_symmetry_space_group_name_H-M   'P 1'
_cell_length_a   12.04181950
_cell_length_b   12.04181950
_cell_length_c   30.79822121
_cell_angle_alpha   90.00000000
_cell_angle_beta   90.00000000
_cell_angle_gamma   120.00000000
_symmetry_Int_Tables_number   1
_chemical_formula_structural   Al3Bi5Cl12
_chemical_formula_sum   'Al18 Bi30 Cl72'
_cell_volume   3867.59056027
_cell_formula_units_Z   6
loop_
 _symmetry_equiv_pos_site_id
 _symmetry_equiv_pos_as_xyz
  1  'x, y, z'
loop_
 _atom_site_type_symbol
 _atom_site_label
 _atom_site_symmetry_multiplicity
 _atom_site_fract_x
 _atom_site_fract_y
 _atom_site_fract_z
 _atom_site_occupancy
  Al  Al0  1  0.66666667  0.85470533  0.08333333  1
  Al  Al1  1  0.00000000  0.47862800  0.25000000  1
  Al  Al2  1  0.52137200  0.52137200  0.25000000  1
  Al  Al3  1  0.14529467  0.81196133  0.08333333  1
  Al  Al4  1  0.47862800  0.00000000  0.25000000  1
  Al  Al5  1  0.18803867  0.33333333  0.08333333  1
  Al  Al6  1  0.33333333  0.18803867  0.41666667  1
  Al  Al7  1  0.66666667  0.81196133  0.58333333  1
  Al  Al8  1  0.18803867  0.85470533  0.58333333  1
  Al  Al9  1  0.81196133  0.14529467  0.41666667  1
  Al  Al10  1  0.14529467  0.33333333  0.58333333  1
  Al  Al11  1  0.85470533  0.66666667  0.41666667  1
  Al  Al12  1  0.00000000  0.52137200  0.75000000  1
  Al  Al13  1  0.33333333  0.14529467  0.91666667  1
  Al  Al14  1  0.85470533  0.18803867  0.91666667  1
  Al  Al15  1  0.47862800  0.47862800  0.75000000  1
  Al  Al16  1  0.81196133  0.66666667  0.91666667  1
  Al  Al17  1  0.52137200  0.00000000  0.75000000  1
  Bi  Bi18  1  0.50849467  0.17516133  0.08333333  1
  Bi  Bi19  1  0.66666667  0.33333333  0.00549533  1
  Bi  Bi20  1  0.00000000  0.00000000  0.17216200  1
  Bi  Bi21  1  0.00000000  0.84182800  0.25000000  1
  Bi  Bi22  1  0.00000000  0.00000000  0.32783800  1
  Bi  Bi23  1  0.15817200  0.15817200  0.25000000  1
  Bi  Bi24  1  0.66666667  0.33333333  0.16117133  1
  Bi  Bi25  1  0.66666667  0.49150533  0.08333333  1
  Bi  Bi26  1  0.82483867  0.33333333  0.08333333  1
  Bi  Bi27  1  0.84182800  0.00000000  0.25000000  1
  Bi  Bi28  1  0.17516133  0.50849467  0.41666667  1
  Bi  Bi29  1  0.33333333  0.66666667  0.33882867  1
  Bi  Bi30  1  0.66666667  0.33333333  0.50549533  1
  Bi  Bi31  1  0.66666667  0.17516133  0.58333333  1
  Bi  Bi32  1  0.66666667  0.33333333  0.66117133  1
  Bi  Bi33  1  0.82483867  0.49150533  0.58333333  1
  Bi  Bi34  1  0.33333333  0.66666667  0.49450467  1
  Bi  Bi35  1  0.33333333  0.82483867  0.41666667  1
  Bi  Bi36  1  0.49150533  0.66666667  0.41666667  1
  Bi  Bi37  1  0.50849467  0.33333333  0.58333333  1
  Bi  Bi38  1  0.84182800  0.84182800  0.75000000  1
  Bi  Bi39  1  0.00000000  0.00000000  0.67216200  1
  Bi  Bi40  1  0.33333333  0.66666667  0.83882867  1
  Bi  Bi41  1  0.33333333  0.50849467  0.91666667  1
  Bi  Bi42  1  0.33333333  0.66666667  0.99450467  1
  Bi  Bi43  1  0.49150533  0.82483867  0.91666667  1
  Bi  Bi44  1  0.00000000  1.00000000  0.82783800  1
  Bi  Bi45  1  0.00000000  0.15817200  0.75000000  1
  Bi  Bi46  1  0.15817200  0.00000000  0.75000000  1
  Bi  Bi47  1  0.17516133  0.66666667  0.91666667  1
  Cl  Cl48  1  0.45404667  0.16629333  0.24200333  1
  Cl  Cl49  1  0.24530833  0.91954367  0.02652167  1
  Cl  Cl50  1  0.12071333  0.62108667  0.07533667  1
  Cl  Cl51  1  0.08045633  0.32576467  0.02652167  1
  Cl  Cl52  1  0.71224667  0.54595333  0.24200333  1
  Cl  Cl53  1  0.95442000  0.78738000  0.09133000  1
  Cl  Cl54  1  0.99243133  0.57864167  0.30681167  1
  Cl  Cl55  1  0.42135833  0.41378967  0.30681167  1
  Cl  Cl56  1  0.37891333  0.49962667  0.07533667  1
  Cl  Cl57  1  0.57864167  0.99243133  0.19318833  1
  Cl  Cl58  1  0.83370667  0.28775333  0.24200333  1
  Cl  Cl59  1  0.83296000  0.04558000  0.09133000  1
  Cl  Cl60  1  0.67423533  0.75469167  0.02652167  1
  Cl  Cl61  1  0.54595333  0.71224667  0.25799667  1
  Cl  Cl62  1  0.16629333  0.45404667  0.25799667  1
  Cl  Cl63  1  0.58621033  0.00756867  0.30681167  1
  Cl  Cl64  1  0.41378967  0.42135833  0.19318833  1
  Cl  Cl65  1  0.65909800  0.74712300  0.14014500  1
  Cl  Cl66  1  0.25287700  0.91197500  0.14014500  1
  Cl  Cl67  1  0.21262000  0.16704000  0.09133000  1
  Cl  Cl68  1  0.08802500  0.34090200  0.14014500  1
  Cl  Cl69  1  0.50037333  0.87928667  0.07533667  1
  Cl  Cl70  1  0.00756867  0.58621033  0.19318833  1
  Cl  Cl71  1  0.28775333  0.83370667  0.25799667  1
  Cl  Cl72  1  0.12071333  0.49962667  0.57533667  1
  Cl  Cl73  1  0.91197500  0.25287700  0.35985500  1
  Cl  Cl74  1  0.78738000  0.95442000  0.40867000  1
  Cl  Cl75  1  0.74712300  0.65909800  0.35985500  1
  Cl  Cl76  1  0.37891333  0.87928667  0.57533667  1
  Cl  Cl77  1  0.62108667  0.12071333  0.42466333  1
  Cl  Cl78  1  0.65909800  0.91197500  0.64014500  1
  Cl  Cl79  1  0.08802500  0.74712300  0.64014500  1
  Cl  Cl80  1  0.04558000  0.83296000  0.40867000  1
  Cl  Cl81  1  0.24530833  0.32576467  0.52652167  1
  Cl  Cl82  1  0.50037333  0.62108667  0.57533667  1
  Cl  Cl83  1  0.49962667  0.37891333  0.42466333  1
  Cl  Cl84  1  0.34090200  0.08802500  0.35985500  1
  Cl  Cl85  1  0.21262000  0.04558000  0.59133000  1
  Cl  Cl86  1  0.83296000  0.78738000  0.59133000  1
  Cl  Cl87  1  0.25287700  0.34090200  0.64014500  1
  Cl  Cl88  1  0.08045633  0.75469167  0.52652167  1
  Cl  Cl89  1  0.32576467  0.08045633  0.47347833  1
  Cl  Cl90  1  0.91954367  0.24530833  0.47347833  1
  Cl  Cl91  1  0.87928667  0.50037333  0.42466333  1
  Cl  Cl92  1  0.75469167  0.67423533  0.47347833  1
  Cl  Cl93  1  0.16704000  0.21262000  0.40867000  1
  Cl  Cl94  1  0.67423533  0.91954367  0.52652167  1
  Cl  Cl95  1  0.95442000  0.16704000  0.59133000  1
  Cl  Cl96  1  0.78738000  0.83296000  0.90867000  1
  Cl  Cl97  1  0.57864167  0.58621033  0.69318833  1
  Cl  Cl98  1  0.45404667  0.28775333  0.74200333  1
  Cl  Cl99  1  0.41378967  0.99243133  0.69318833  1
  Cl  Cl100  1  0.04558000  0.21262000  0.90867000  1
  Cl  Cl101  1  0.28775333  0.45404667  0.75799667  1
  Cl  Cl102  1  0.32576467  0.24530833  0.97347833  1
  Cl  Cl103  1  0.75469167  0.08045633  0.97347833  1
  Cl  Cl104  1  0.71224667  0.16629333  0.74200333  1
  Cl  Cl105  1  0.91197500  0.65909800  0.85985500  1
  Cl  Cl106  1  0.16704000  0.95442000  0.90867000  1
  Cl  Cl107  1  0.16629333  0.71224667  0.75799667  1
  Cl  Cl108  1  0.00756867  0.42135833  0.69318833  1
  Cl  Cl109  1  0.87928667  0.37891333  0.92466333  1
  Cl  Cl110  1  0.49962667  0.12071333  0.92466333  1
  Cl  Cl111  1  0.91954367  0.67423533  0.97347833  1
  Cl  Cl112  1  0.74712300  0.08802500  0.85985500  1
  Cl  Cl113  1  0.99243133  0.41378967  0.80681167  1
  Cl  Cl114  1  0.58621033  0.57864167  0.80681167  1
  Cl  Cl115  1  0.54595333  0.83370667  0.75799667  1
  Cl  Cl116  1  0.42135833  0.00756867  0.80681167  1
  Cl  Cl117  1  0.83370667  0.54595333  0.74200333  1
  Cl  Cl118  1  0.34090200  0.25287700  0.85985500  1
  Cl  Cl119  1  0.62108667  0.50037333  0.92466333  1
