# generated using pymatgen
data_K7Th6F31
_symmetry_space_group_name_H-M   'P 1'
_cell_length_a   15.53345408
_cell_length_b   15.53345408
_cell_length_c   10.63526468
_cell_angle_alpha   90.00000000
_cell_angle_beta   90.00000000
_cell_angle_gamma   120.00000000
_symmetry_Int_Tables_number   1
_chemical_formula_structural   K7Th6F31
_chemical_formula_sum   'K21 Th18 F93'
_cell_volume   2222.36306376
_cell_formula_units_Z   3
loop_
 _symmetry_equiv_pos_site_id
 _symmetry_equiv_pos_as_xyz
  1  'x, y, z'
loop_
 _atom_site_type_symbol
 _atom_site_label
 _atom_site_symmetry_multiplicity
 _atom_site_fract_x
 _atom_site_fract_y
 _atom_site_fract_z
 _atom_site_occupancy
  K  K0  1  0.91750700  0.69091600  0.50449500  1
  K  K1  1  0.69118033  0.77260367  0.49473167  1
  K  K2  1  0.22739633  0.91857667  0.49473167  1
  K  K3  1  0.00000000  0.00000000  0.49979000  1
  K  K4  1  0.77340900  0.08249300  0.50449500  1
  K  K5  1  0.30908400  0.22659100  0.50449500  1
  K  K6  1  0.08142333  0.30881967  0.49473167  1
  K  K7  1  0.58417367  0.02424933  0.83782833  1
  K  K8  1  0.35784700  0.10593700  0.82806500  1
  K  K9  1  0.89406300  0.25191000  0.82806500  1
  K  K10  1  0.66666667  0.33333333  0.83312333  1
  K  K11  1  0.44007567  0.41582633  0.83782833  1
  K  K12  1  0.97575067  0.55992433  0.83782833  1
  K  K13  1  0.74809000  0.64215300  0.82806500  1
  K  K14  1  0.25084033  0.35758267  0.17116167  1
  K  K15  1  0.02451367  0.43927033  0.16139833  1
  K  K16  1  0.56072967  0.58524333  0.16139833  1
  K  K17  1  0.33333333  0.66666667  0.16645667  1
  K  K18  1  0.10674233  0.74915967  0.17116167  1
  K  K19  1  0.64241733  0.89325767  0.17116167  1
  K  K20  1  0.41475667  0.97548633  0.16139833  1
  Th  Th21  1  0.05263200  0.86188200  0.82329700  1
  Th  Th22  1  0.80925000  0.94736800  0.82329700  1
  Th  Th23  1  0.86518567  0.81467633  0.17454233  1
  Th  Th24  1  0.13811800  0.19075000  0.82329700  1
  Th  Th25  1  0.18532367  0.05050933  0.17454233  1
  Th  Th26  1  0.94949067  0.13481433  0.17454233  1
  Th  Th27  1  0.71929867  0.19521533  0.15663033  1
  Th  Th28  1  0.47591667  0.28070133  0.15663033  1
  Th  Th29  1  0.53185233  0.14800967  0.50787567  1
  Th  Th30  1  0.80478467  0.52408333  0.15663033  1
  Th  Th31  1  0.85199033  0.38384267  0.50787567  1
  Th  Th32  1  0.61615733  0.46814767  0.50787567  1
  Th  Th33  1  0.38596533  0.52854867  0.48996367  1
  Th  Th34  1  0.14258333  0.61403467  0.48996367  1
  Th  Th35  1  0.19851900  0.48134300  0.84120900  1
  Th  Th36  1  0.47145133  0.85741667  0.48996367  1
  Th  Th37  1  0.51865700  0.71717600  0.84120900  1
  Th  Th38  1  0.28282400  0.80148100  0.84120900  1
  F  F39  1  0.71701700  0.54369500  0.32985500  1
  F  F40  1  0.72369367  0.62507333  0.57268033  1
  F  F41  1  0.17263233  0.71621667  0.66868467  1
  F  F42  1  0.68783833  0.78034467  0.76055567  1
  F  F43  1  0.09782033  0.72461167  0.42595167  1
  F  F44  1  0.90866133  0.68946467  0.23872367  1
  F  F45  1  0.54358433  0.82736767  0.66868467  1
  F  F46  1  0.91155600  0.87728500  0.78054600  1
  F  F47  1  0.21965533  0.90749367  0.76055567  1
  F  F48  1  0.05450367  0.87173933  0.61127533  1
  F  F49  1  0.87196833  0.81751767  0.38741567  1
  F  F50  1  0.81723567  0.94549633  0.61127533  1
  F  F51  1  0.62679133  0.90217967  0.42595167  1
  F  F52  1  0.12271500  0.03427100  0.78054600  1
  F  F53  1  0.03555133  0.90677367  0.22878667  1
  F  F54  1  0.96572900  0.08844400  0.78054600  1
  F  F55  1  0.87122233  0.96444867  0.22878667  1
  F  F56  1  0.37492667  0.09862033  0.57268033  1
  F  F57  1  0.18248233  0.05445067  0.38741567  1
  F  F58  1  0.00000000  0.00000000  0.02559300  1
  F  F59  1  0.12826067  0.18276433  0.61127533  1
  F  F60  1  0.94554933  0.12803167  0.38741567  1
  F  F61  1  0.78080333  0.09133867  0.23872367  1
  F  F62  1  0.09322633  0.12877767  0.22878667  1
  F  F63  1  0.45630500  0.17332200  0.32985500  1
  F  F64  1  0.09250633  0.31216167  0.76055567  1
  F  F65  1  0.90137967  0.27630633  0.57268033  1
  F  F66  1  0.31053533  0.21919667  0.23872367  1
  F  F67  1  0.82667800  0.28298300  0.32985500  1
  F  F68  1  0.27538833  0.37320867  0.42595167  1
  F  F69  1  0.28378333  0.45641567  0.66868467  1
  F  F70  1  0.38368367  0.87702833  0.66318833  1
  F  F71  1  0.39036033  0.95840667  0.90601367  1
  F  F72  1  0.83929900  0.04955000  0.00201800  1
  F  F73  1  0.35450500  0.11367800  0.09388900  1
  F  F74  1  0.76448700  0.05794500  0.75928500  1
  F  F75  1  0.57532800  0.02279800  0.57205700  1
  F  F76  1  0.21025100  0.16070100  0.00201800  1
  F  F77  1  0.57822267  0.21061833  0.11387933  1
  F  F78  1  0.88632200  0.24082700  0.09388900  1
  F  F79  1  0.72117033  0.20507267  0.94460867  1
  F  F80  1  0.53863500  0.15085100  0.72074900  1
  F  F81  1  0.48390233  0.27882967  0.94460867  1
  F  F82  1  0.29345800  0.23551300  0.75928500  1
  F  F83  1  0.78938167  0.36760433  0.11387933  1
  F  F84  1  0.70221800  0.24010700  0.56212000  1
  F  F85  1  0.63239567  0.42177733  0.11387933  1
  F  F86  1  0.53788900  0.29778200  0.56212000  1
  F  F87  1  0.04159333  0.43195367  0.90601367  1
  F  F88  1  0.84914900  0.38778400  0.72074900  1
  F  F89  1  0.66666667  0.33333333  0.35892633  1
  F  F90  1  0.79492733  0.51609767  0.94460867  1
  F  F91  1  0.61221600  0.46136500  0.72074900  1
  F  F92  1  0.44747000  0.42467200  0.57205700  1
  F  F93  1  0.75989300  0.46211100  0.56212000  1
  F  F94  1  0.12297167  0.50665533  0.66318833  1
  F  F95  1  0.75917300  0.64549500  0.09388900  1
  F  F96  1  0.56804633  0.60963967  0.90601367  1
  F  F97  1  0.97720200  0.55253000  0.57205700  1
  F  F98  1  0.49334467  0.61631633  0.66318833  1
  F  F99  1  0.94205500  0.70654200  0.75928500  1
  F  F100  1  0.95045000  0.78974900  0.00201800  1
  F  F101  1  0.05035033  0.21036167  0.99652167  1
  F  F102  1  0.05702700  0.29174000  0.23934700  1
  F  F103  1  0.50596567  0.38288333  0.33535133  1
  F  F104  1  0.02117167  0.44701133  0.42722233  1
  F  F105  1  0.43115367  0.39127833  0.09261833  1
  F  F106  1  0.24199467  0.35613133  0.90539033  1
  F  F107  1  0.87691767  0.49403433  0.33535133  1
  F  F108  1  0.24488933  0.54395167  0.44721267  1
  F  F109  1  0.55298867  0.57416033  0.42722233  1
  F  F110  1  0.38783700  0.53840600  0.27794200  1
  F  F111  1  0.20530167  0.48418433  0.05408233  1
  F  F112  1  0.15056900  0.61216300  0.27794200  1
  F  F113  1  0.96012467  0.56884633  0.09261833  1
  F  F114  1  0.45604833  0.70093767  0.44721267  1
  F  F115  1  0.36888467  0.57344033  0.89545333  1
  F  F116  1  0.29906233  0.75511067  0.44721267  1
  F  F117  1  0.20455567  0.63111533  0.89545333  1
  F  F118  1  0.70826000  0.76528700  0.23934700  1
  F  F119  1  0.51581567  0.72111733  0.05408233  1
  F  F120  1  0.33333333  0.66666667  0.69225967  1
  F  F121  1  0.46159400  0.84943100  0.27794200  1
  F  F122  1  0.27888267  0.79469833  0.05408233  1
  F  F123  1  0.11413667  0.75800533  0.90539033  1
  F  F124  1  0.42655967  0.79544433  0.89545333  1
  F  F125  1  0.78963833  0.83998867  0.99652167  1
  F  F126  1  0.42583967  0.97882833  0.42722233  1
  F  F127  1  0.23471300  0.94297300  0.23934700  1
  F  F128  1  0.64386867  0.88586333  0.90539033  1
  F  F129  1  0.16001133  0.94964967  0.99652167  1
  F  F130  1  0.60872167  0.03987533  0.09261833  1
  F  F131  1  0.61711667  0.12308233  0.33535133  1
