# generated using pymatgen
data_H9BrO4
_symmetry_space_group_name_H-M   'P 1'
_cell_length_a   6.88955500
_cell_length_b   12.05327800
_cell_length_c   7.48493153
_cell_angle_alpha   90.00000000
_cell_angle_beta   109.49928956
_cell_angle_gamma   90.00000000
_symmetry_Int_Tables_number   1
_chemical_formula_structural   H9BrO4
_chemical_formula_sum   'H36 Br4 O16'
_cell_volume   585.91232729
_cell_formula_units_Z   4
loop_
 _symmetry_equiv_pos_site_id
 _symmetry_equiv_pos_as_xyz
  1  'x, y, z'
loop_
 _atom_site_type_symbol
 _atom_site_label
 _atom_site_symmetry_multiplicity
 _atom_site_fract_x
 _atom_site_fract_y
 _atom_site_fract_z
 _atom_site_occupancy
  H  H0  1  0.32521500  0.32821400  0.99807500  1
  H  H1  1  0.11379300  0.25757600  0.02281100  1
  H  H2  1  0.88620700  0.75757600  0.97718900  1
  H  H3  1  0.67478500  0.82821400  0.00192500  1
  H  H4  1  0.97617500  0.17550300  0.14973700  1
  H  H5  1  0.82712500  0.25372600  0.98713200  1
  H  H6  1  0.02382500  0.67550300  0.85026300  1
  H  H7  1  0.17287500  0.75372600  0.01286800  1
  H  H8  1  0.53662100  0.18319900  0.80672500  1
  H  H9  1  0.64325200  0.25121000  0.68838800  1
  H  H10  1  0.46337900  0.68319900  0.19327500  1
  H  H11  1  0.35674800  0.75121000  0.31161200  1
  H  H12  1  0.70105400  0.30943100  0.37615500  1
  H  H13  1  0.61475800  0.18765200  0.35785800  1
  H  H14  1  0.29894600  0.80943100  0.62384500  1
  H  H15  1  0.38524200  0.68765200  0.64214200  1
  H  H16  1  0.03638700  0.18180200  0.54642300  1
  H  H17  1  0.17811400  0.28714100  0.55132800  1
  H  H18  1  0.20026300  0.24199300  0.82015300  1
  H  H19  1  0.96361300  0.68180200  0.45357700  1
  H  H20  1  0.82188600  0.78714100  0.44867200  1
  H  H21  1  0.79973700  0.74199300  0.17984700  1
  H  H22  1  0.19653500  0.44210500  0.35262400  1
  H  H23  1  0.39252600  0.35669900  0.42214200  1
  H  H24  1  0.60747400  0.85669900  0.57785800  1
  H  H25  1  0.80346500  0.94210500  0.64737600  1
  H  H26  1  0.50890400  0.50440600  0.84993500  1
  H  H27  1  0.65315200  0.52292600  0.71475200  1
  H  H28  1  0.40826300  0.46922500  0.60933500  1
  H  H29  1  0.49109600  0.00440600  0.15006500  1
  H  H30  1  0.34684800  0.02292600  0.28524800  1
  H  H31  1  0.59173700  0.96922500  0.39066500  1
  H  H32  1  0.04759300  0.50586200  0.07244500  1
  H  H33  1  0.89540600  0.49364900  0.18571500  1
  H  H34  1  0.95240700  0.00586200  0.92755500  1
  H  H35  1  0.10459400  0.99364900  0.81428500  1
  Br  Br36  1  0.95115400  0.50690900  0.72338400  1
  Br  Br37  1  0.04884600  0.00690900  0.27661600  1
  Br  Br38  1  0.53744500  0.47089800  0.13062900  1
  Br  Br39  1  0.46255500  0.97089800  0.86937100  1
  O  O40  1  0.24759200  0.25687800  0.96768500  1
  O  O41  1  0.75240800  0.75687800  0.03231500  1
  O  O42  1  0.96383000  0.25205500  0.09610300  1
  O  O43  1  0.03617000  0.75205500  0.90389700  1
  O  O44  1  0.61553500  0.25127800  0.80940700  1
  O  O45  1  0.38446500  0.75127800  0.19059300  1
  O  O46  1  0.65772200  0.25059300  0.44472900  1
  O  O47  1  0.34227800  0.75059300  0.55527100  1
  O  O48  1  0.16224700  0.21965100  0.62062600  1
  O  O49  1  0.83775300  0.71965100  0.37937400  1
  O  O50  1  0.29573400  0.39882400  0.46689800  1
  O  O51  1  0.70426600  0.89882400  0.53310200  1
  O  O52  1  0.50313900  0.52767500  0.71631500  1
  O  O53  1  0.49686100  0.02767500  0.28368500  1
  O  O54  1  0.04003900  0.51243600  0.20099900  1
  O  O55  1  0.95996100  0.01243600  0.79900100  1
