# generated using pymatgen
data_RbUN3O11
_symmetry_space_group_name_H-M   'P 1'
_cell_length_a   9.78941237
_cell_length_b   9.78941237
_cell_length_c   19.24896334
_cell_angle_alpha   90.00000000
_cell_angle_beta   90.00000000
_cell_angle_gamma   120.00000000
_symmetry_Int_Tables_number   1
_chemical_formula_structural   RbUN3O11
_chemical_formula_sum   'Rb6 U6 N18 O66'
_cell_volume   1597.53809490
_cell_formula_units_Z   6
loop_
 _symmetry_equiv_pos_site_id
 _symmetry_equiv_pos_as_xyz
  1  'x, y, z'
loop_
 _atom_site_type_symbol
 _atom_site_label
 _atom_site_symmetry_multiplicity
 _atom_site_fract_x
 _atom_site_fract_y
 _atom_site_fract_z
 _atom_site_occupancy
  Rb  Rb0  1  0.00000000  0.00000000  0.00000000  1
  Rb  Rb1  1  0.33333333  0.66666667  0.16666667  1
  Rb  Rb2  1  0.66666667  0.33333333  0.33333333  1
  Rb  Rb3  1  0.00000000  0.00000000  0.50000000  1
  Rb  Rb4  1  0.33333333  0.66666667  0.66666667  1
  Rb  Rb5  1  0.66666667  0.33333333  0.83333333  1
  U  U6  1  0.33333333  0.66666667  0.91666667  1
  U  U7  1  0.33333333  0.66666667  0.41666667  1
  U  U8  1  0.00000000  0.00000000  0.25000000  1
  U  U9  1  0.00000000  0.00000000  0.75000000  1
  U  U10  1  0.66666667  0.33333333  0.58333333  1
  U  U11  1  0.66666667  0.33333333  0.08333333  1
  N  N12  1  0.66666667  0.63358833  0.08333333  1
  N  N13  1  0.36641167  0.03307833  0.08333333  1
  N  N14  1  0.96692167  0.33333333  0.08333333  1
  N  N15  1  0.00000000  0.69974500  0.25000000  1
  N  N16  1  0.30025500  0.30025500  0.25000000  1
  N  N17  1  0.69974500  0.00000000  0.25000000  1
  N  N18  1  0.33333333  0.96692167  0.41666667  1
  N  N19  1  0.03307833  0.36641167  0.41666667  1
  N  N20  1  0.63358833  0.66666667  0.41666667  1
  N  N21  1  0.66666667  0.03307833  0.58333333  1
  N  N22  1  0.96692167  0.63358833  0.58333333  1
  N  N23  1  0.36641167  0.33333333  0.58333333  1
  N  N24  1  0.00000000  0.30025500  0.75000000  1
  N  N25  1  0.69974500  0.69974500  0.75000000  1
  N  N26  1  0.30025500  0.00000000  0.75000000  1
  N  N27  1  0.33333333  0.36641167  0.91666667  1
  N  N28  1  0.63358833  0.96692167  0.91666667  1
  N  N29  1  0.03307833  0.66666667  0.91666667  1
  O  O30  1  0.33333333  0.66666667  0.51016667  1
  O  O31  1  0.33333333  0.66666667  0.32316667  1
  O  O32  1  0.33333333  0.66666667  0.01016667  1
  O  O33  1  0.33333333  0.66666667  0.82316667  1
  O  O34  1  0.46117467  0.96007333  0.41065233  1
  O  O35  1  0.96007333  0.46117467  0.08934767  1
  O  O36  1  0.50110133  0.03992667  0.08934767  1
  O  O37  1  0.53882533  0.49889867  0.08934767  1
  O  O38  1  0.57440500  0.00000000  0.25000000  1
  O  O39  1  0.42559500  0.42559500  0.25000000  1
  O  O40  1  0.00000000  0.57440500  0.25000000  1
  O  O41  1  0.09226167  0.33333333  0.08333333  1
  O  O42  1  0.24107167  0.90773833  0.08333333  1
  O  O43  1  0.66666667  0.75892833  0.08333333  1
  O  O44  1  0.16776800  0.79450800  0.92268100  1
  O  O45  1  0.62674000  0.83223200  0.92268100  1
  O  O46  1  0.20549200  0.37326000  0.92268100  1
  O  O47  1  0.70659333  0.87215867  0.24398567  1
  O  O48  1  0.16556533  0.29340667  0.24398567  1
  O  O49  1  0.12784133  0.83443467  0.24398567  1
  O  O50  1  0.49889867  0.53882533  0.41065233  1
  O  O51  1  0.03992667  0.50110133  0.41065233  1
  O  O52  1  0.00000000  0.00000000  0.84350000  1
  O  O53  1  1.00000000  0.00000000  0.65650000  1
  O  O54  1  0.00000000  0.00000000  0.34350000  1
  O  O55  1  0.00000000  0.00000000  0.15650000  1
  O  O56  1  0.12784133  0.29340667  0.74398567  1
  O  O57  1  0.62674000  0.79450800  0.42268100  1
  O  O58  1  0.16776800  0.37326000  0.42268100  1
  O  O59  1  0.20549200  0.83223200  0.42268100  1
  O  O60  1  0.24107167  0.33333333  0.58333333  1
  O  O61  1  0.09226167  0.75892833  0.58333333  1
  O  O62  1  0.66666667  0.90773833  0.58333333  1
  O  O63  1  0.75892833  0.66666667  0.41666667  1
  O  O64  1  0.90773833  0.24107167  0.41666667  1
  O  O65  1  0.33333333  0.09226167  0.41666667  1
  O  O66  1  0.83443467  0.12784133  0.25601433  1
  O  O67  1  0.29340667  0.16556533  0.25601433  1
  O  O68  1  0.87215867  0.70659333  0.25601433  1
  O  O69  1  0.37326000  0.20549200  0.57731900  1
  O  O70  1  0.83223200  0.62674000  0.57731900  1
  O  O71  1  0.79450800  0.16776800  0.57731900  1
  O  O72  1  0.16556533  0.87215867  0.74398567  1
  O  O73  1  0.70659333  0.83443467  0.74398567  1
  O  O74  1  0.66666667  0.33333333  0.17683333  1
  O  O75  1  0.66666667  0.33333333  0.98983333  1
  O  O76  1  0.66666667  0.33333333  0.67683333  1
  O  O77  1  0.66666667  0.33333333  0.48983333  1
  O  O78  1  0.79450800  0.62674000  0.07731900  1
  O  O79  1  0.29340667  0.12784133  0.75601433  1
  O  O80  1  0.83443467  0.70659333  0.75601433  1
  O  O81  1  0.87215867  0.16556533  0.75601433  1
  O  O82  1  0.90773833  0.66666667  0.91666667  1
  O  O83  1  0.75892833  0.09226167  0.91666667  1
  O  O84  1  0.33333333  0.24107167  0.91666667  1
  O  O85  1  0.42559500  0.00000000  0.75000000  1
  O  O86  1  0.57440500  0.57440500  0.75000000  1
  O  O87  1  0.00000000  0.42559500  0.75000000  1
  O  O88  1  0.50110133  0.46117467  0.58934767  1
  O  O89  1  0.96007333  0.49889867  0.58934767  1
  O  O90  1  0.53882533  0.03992667  0.58934767  1
  O  O91  1  0.03992667  0.53882533  0.91065233  1
  O  O92  1  0.49889867  0.96007333  0.91065233  1
  O  O93  1  0.46117467  0.50110133  0.91065233  1
  O  O94  1  0.83223200  0.20549200  0.07731900  1
  O  O95  1  0.37326000  0.16776800  0.07731900  1
