# generated using pymatgen
data_Na3Al2P2O8F3
_symmetry_space_group_name_H-M   'P 1'
_cell_length_a   8.87748400
_cell_length_b   10.52638200
_cell_length_c   8.85687800
_cell_angle_alpha   90.00000000
_cell_angle_beta   90.00000000
_cell_angle_gamma   90.00000000
_symmetry_Int_Tables_number   1
_chemical_formula_structural   Na3Al2P2O8F3
_chemical_formula_sum   'Na12 Al8 P8 O32 F12'
_cell_volume   827.65565576
_cell_formula_units_Z   4
loop_
 _symmetry_equiv_pos_site_id
 _symmetry_equiv_pos_as_xyz
  1  'x, y, z'
loop_
 _atom_site_type_symbol
 _atom_site_label
 _atom_site_symmetry_multiplicity
 _atom_site_fract_x
 _atom_site_fract_y
 _atom_site_fract_z
 _atom_site_occupancy
  Na  Na0  1  0.52537100  0.00000000  0.98914700  1
  Na  Na1  1  0.76119600  0.00000000  0.22189000  1
  Na  Na2  1  0.11134200  0.00000000  0.35562900  1
  Na  Na3  1  0.23880400  0.00000000  0.72189000  1
  Na  Na4  1  0.47462900  0.00000000  0.48914700  1
  Na  Na5  1  0.88865800  0.00000000  0.85562900  1
  Na  Na6  1  0.02537100  0.50000000  0.98914700  1
  Na  Na7  1  0.26119600  0.50000000  0.22189000  1
  Na  Na8  1  0.61134200  0.50000000  0.35562900  1
  Na  Na9  1  0.73880400  0.50000000  0.72189000  1
  Na  Na10  1  0.97462900  0.50000000  0.48914700  1
  Na  Na11  1  0.38865800  0.50000000  0.85562900  1
  Al  Al12  1  0.24611250  0.18001250  0.00445000  1
  Al  Al13  1  0.24611250  0.81998750  0.00445000  1
  Al  Al14  1  0.75388750  0.18001250  0.50445000  1
  Al  Al15  1  0.75388750  0.81998750  0.50445000  1
  Al  Al16  1  0.74611250  0.68001250  0.00445000  1
  Al  Al17  1  0.74611250  0.31998750  0.00445000  1
  Al  Al18  1  0.25388750  0.68001250  0.50445000  1
  Al  Al19  1  0.25388750  0.31998750  0.50445000  1
  P  P20  1  0.49936450  0.24825250  0.24839500  1
  P  P21  1  0.49936450  0.75174750  0.24839500  1
  P  P22  1  0.50063550  0.75174750  0.74839500  1
  P  P23  1  0.50063550  0.24825250  0.74839500  1
  P  P24  1  0.99936450  0.74825250  0.24839500  1
  P  P25  1  0.99936450  0.25174750  0.24839500  1
  P  P26  1  0.00063550  0.25174750  0.74839500  1
  P  P27  1  0.00063550  0.74825250  0.74839500  1
  O  O28  1  0.40340400  0.16131300  0.14774100  1
  O  O29  1  0.40008600  0.33654100  0.34846600  1
  O  O30  1  0.59751000  0.33935500  0.15409900  1
  O  O31  1  0.60049150  0.16132050  0.34812300  1
  O  O32  1  0.40340400  0.83868700  0.14774100  1
  O  O33  1  0.40008600  0.66345900  0.34846600  1
  O  O34  1  0.59751000  0.66064500  0.15409900  1
  O  O35  1  0.60049150  0.83867950  0.34812300  1
  O  O36  1  0.40249000  0.66064500  0.65409900  1
  O  O37  1  0.39950850  0.83867950  0.84812300  1
  O  O38  1  0.59659600  0.83868700  0.64774100  1
  O  O39  1  0.59991400  0.66345900  0.84846600  1
  O  O40  1  0.40249000  0.33935500  0.65409900  1
  O  O41  1  0.39950850  0.16132050  0.84812300  1
  O  O42  1  0.59659600  0.16131300  0.64774100  1
  O  O43  1  0.59991400  0.33654100  0.84846600  1
  O  O44  1  0.90340400  0.66131300  0.14774100  1
  O  O45  1  0.90008600  0.83654100  0.34846600  1
  O  O46  1  0.09751000  0.83935500  0.15409900  1
  O  O47  1  0.10049150  0.66132050  0.34812300  1
  O  O48  1  0.90340400  0.33868700  0.14774100  1
  O  O49  1  0.90008600  0.16345900  0.34846600  1
  O  O50  1  0.09751000  0.16064500  0.15409900  1
  O  O51  1  0.10049150  0.33867950  0.34812300  1
  O  O52  1  0.90249000  0.16064500  0.65409900  1
  O  O53  1  0.89950850  0.33867950  0.84812300  1
  O  O54  1  0.09659600  0.33868700  0.64774100  1
  O  O55  1  0.09991400  0.16345900  0.84846600  1
  O  O56  1  0.90249000  0.83935500  0.65409900  1
  O  O57  1  0.89950850  0.66132050  0.84812300  1
  O  O58  1  0.09659600  0.66131300  0.64774100  1
  O  O59  1  0.09991400  0.83654100  0.84846600  1
  F  F60  1  0.24979500  0.00000000  0.99609000  1
  F  F61  1  0.74337450  0.85541750  0.00446100  1
  F  F62  1  0.74337450  0.14458250  0.00446100  1
  F  F63  1  0.75020500  0.00000000  0.49609000  1
  F  F64  1  0.25662550  0.85541750  0.50446100  1
  F  F65  1  0.25662550  0.14458250  0.50446100  1
  F  F66  1  0.74979500  0.50000000  0.99609000  1
  F  F67  1  0.24337450  0.35541750  0.00446100  1
  F  F68  1  0.24337450  0.64458250  0.00446100  1
  F  F69  1  0.25020500  0.50000000  0.49609000  1
  F  F70  1  0.75662550  0.35541750  0.50446100  1
  F  F71  1  0.75662550  0.64458250  0.50446100  1
