# generated using pymatgen
data_Cu6Hg3(AsS3)4
_symmetry_space_group_name_H-M   'P 1'
_cell_length_a   13.90720443
_cell_length_b   13.90720443
_cell_length_c   9.42386545
_cell_angle_alpha   90.00000000
_cell_angle_beta   90.00000000
_cell_angle_gamma   120.00000000
_symmetry_Int_Tables_number   1
_chemical_formula_structural   Cu6Hg3(AsS3)4
_chemical_formula_sum   'Cu18 Hg9 As12 S36'
_cell_volume   1578.48109783
_cell_formula_units_Z   3
loop_
 _symmetry_equiv_pos_site_id
 _symmetry_equiv_pos_as_xyz
  1  'x, y, z'
loop_
 _atom_site_type_symbol
 _atom_site_label
 _atom_site_symmetry_multiplicity
 _atom_site_fract_x
 _atom_site_fract_y
 _atom_site_fract_z
 _atom_site_occupancy
  Cu  Cu0  1  0.10583400  0.73732300  0.63805700  1
  Cu  Cu1  1  0.26267700  0.36851100  0.63805700  1
  Cu  Cu2  1  0.15495533  0.05129467  0.63178867  1
  Cu  Cu3  1  0.89633933  0.84504467  0.63178867  1
  Cu  Cu4  1  0.63148900  0.89416600  0.63805700  1
  Cu  Cu5  1  0.94870533  0.10366067  0.63178867  1
  Cu  Cu6  1  0.77250067  0.07065633  0.97139033  1
  Cu  Cu7  1  0.92934367  0.70184433  0.97139033  1
  Cu  Cu8  1  0.82162200  0.38462800  0.96512200  1
  Cu  Cu9  1  0.56300600  0.17837800  0.96512200  1
  Cu  Cu10  1  0.29815567  0.22749933  0.97139033  1
  Cu  Cu11  1  0.61537200  0.43699400  0.96512200  1
  Cu  Cu12  1  0.43916733  0.40398967  0.30472367  1
  Cu  Cu13  1  0.59601033  0.03517767  0.30472367  1
  Cu  Cu14  1  0.48828867  0.71796133  0.29845533  1
  Cu  Cu15  1  0.22967267  0.51171133  0.29845533  1
  Cu  Cu16  1  0.96482233  0.56083267  0.30472367  1
  Cu  Cu17  1  0.28203867  0.77032733  0.29845533  1
  Hg  Hg18  1  0.74667767  0.63733433  0.30892633  1
  Hg  Hg19  1  0.89065667  0.25332233  0.30892633  1
  Hg  Hg20  1  0.36266567  0.10934333  0.30892633  1
  Hg  Hg21  1  0.41334433  0.97066767  0.64225967  1
  Hg  Hg22  1  0.55732333  0.58665567  0.64225967  1
  Hg  Hg23  1  0.02933233  0.44267667  0.64225967  1
  Hg  Hg24  1  0.08001100  0.30400100  0.97559300  1
  Hg  Hg25  1  0.22399000  0.91998900  0.97559300  1
  Hg  Hg26  1  0.69599900  0.77601000  0.97559300  1
  As  As27  1  0.05249200  0.88300200  0.31450100  1
  As  As28  1  0.11699800  0.16949000  0.31450100  1
  As  As29  1  0.83051000  0.94750800  0.31450100  1
  As  As30  1  0.00000000  0.00000000  0.99486100  1
  As  As31  1  0.71915867  0.21633533  0.64783433  1
  As  As32  1  0.78366467  0.50282333  0.64783433  1
  As  As33  1  0.49717667  0.28084133  0.64783433  1
  As  As34  1  0.66666667  0.33333333  0.32819433  1
  As  As35  1  0.38582533  0.54966867  0.98116767  1
  As  As36  1  0.45033133  0.83615667  0.98116767  1
  As  As37  1  0.16384333  0.61417467  0.98116767  1
  As  As38  1  0.33333333  0.66666667  0.66152767  1
  S  S39  1  0.06346867  0.87040733  0.55705433  1
  S  S40  1  0.80693867  0.93653133  0.55705433  1
  S  S41  1  0.12959267  0.19306133  0.55705433  1
  S  S42  1  0.22494833  0.49977867  0.54454767  1
  S  S43  1  0.34522500  0.11042200  0.58589500  1
  S  S44  1  0.76519700  0.65477500  0.58589500  1
  S  S45  1  0.88957800  0.23480300  0.58589500  1
  S  S46  1  0.61033933  0.03775867  0.55010967  1
  S  S47  1  0.50022133  0.72516967  0.54454767  1
  S  S48  1  0.96224133  0.57258067  0.55010967  1
  S  S49  1  0.27483033  0.77505167  0.54454767  1
  S  S50  1  0.42741933  0.38966067  0.55010967  1
  S  S51  1  0.73013533  0.20374067  0.89038767  1
  S  S52  1  0.47360533  0.26986467  0.89038767  1
  S  S53  1  0.79625933  0.52639467  0.89038767  1
  S  S54  1  0.89161500  0.83311200  0.87788100  1
  S  S55  1  0.01189167  0.44375533  0.91922833  1
  S  S56  1  0.43186367  0.98810833  0.91922833  1
  S  S57  1  0.55624467  0.56813633  0.91922833  1
  S  S58  1  0.27700600  0.37109200  0.88344300  1
  S  S59  1  0.16688800  0.05850300  0.87788100  1
  S  S60  1  0.62890800  0.90591400  0.88344300  1
  S  S61  1  0.94149700  0.10838500  0.87788100  1
  S  S62  1  0.09408600  0.72299400  0.88344300  1
  S  S63  1  0.39680200  0.53707400  0.22372100  1
  S  S64  1  0.14027200  0.60319800  0.22372100  1
  S  S65  1  0.46292600  0.85972800  0.22372100  1
  S  S66  1  0.55828167  0.16644533  0.21121433  1
  S  S67  1  0.67855833  0.77708867  0.25256167  1
  S  S68  1  0.09853033  0.32144167  0.25256167  1
  S  S69  1  0.22291133  0.90146967  0.25256167  1
  S  S70  1  0.94367267  0.70442533  0.21677633  1
  S  S71  1  0.83355467  0.39183633  0.21121433  1
  S  S72  1  0.29557467  0.23924733  0.21677633  1
  S  S73  1  0.60816367  0.44171833  0.21121433  1
  S  S74  1  0.76075267  0.05632733  0.21677633  1
