# generated using pymatgen
data_BaCa(CO3)2
_symmetry_space_group_name_H-M   'P 1'
_cell_length_a   6.63415100
_cell_length_b   5.30128400
_cell_length_c   8.25831701
_cell_angle_alpha   90.00000000
_cell_angle_beta   105.95121778
_cell_angle_gamma   90.00000000
_symmetry_Int_Tables_number   1
_chemical_formula_structural   BaCa(CO3)2
_chemical_formula_sum   'Ba2 Ca2 C4 O12'
_cell_volume   279.25789975
_cell_formula_units_Z   2
loop_
 _symmetry_equiv_pos_site_id
 _symmetry_equiv_pos_as_xyz
  1  'x, y, z'
loop_
 _atom_site_type_symbol
 _atom_site_label
 _atom_site_symmetry_multiplicity
 _atom_site_fract_x
 _atom_site_fract_y
 _atom_site_fract_z
 _atom_site_occupancy
  Ba  Ba0  1  0.71383600  0.25000000  0.85496700  1
  Ba  Ba1  1  0.28616400  0.75000000  0.14503300  1
  Ca  Ca2  1  0.19885400  0.75000000  0.62207600  1
  Ca  Ca3  1  0.80114600  0.25000000  0.37792400  1
  C  C4  1  0.74792100  0.75000000  0.61516000  1
  C  C5  1  0.25207900  0.25000000  0.38484000  1
  C  C6  1  0.24917400  0.25000000  0.89492800  1
  C  C7  1  0.75082600  0.75000000  0.10507200  1
  O  O8  1  0.15252700  0.03948200  0.39423400  1
  O  O9  1  0.84747300  0.53948200  0.60576600  1
  O  O10  1  0.15252700  0.46051800  0.39423400  1
  O  O11  1  0.84747300  0.96051800  0.60576600  1
  O  O12  1  0.85958700  0.75000000  0.99716500  1
  O  O13  1  0.14041300  0.25000000  0.00283500  1
  O  O14  1  0.69011200  0.53689200  0.15573400  1
  O  O15  1  0.30988800  0.03689200  0.84426600  1
  O  O16  1  0.69011200  0.96310800  0.15573400  1
  O  O17  1  0.30988800  0.46310800  0.84426600  1
  O  O18  1  0.43424900  0.25000000  0.36070800  1
  O  O19  1  0.56575100  0.75000000  0.63929200  1
