# generated using pymatgen
data_CsHS2(O3F)2
_symmetry_space_group_name_H-M   'P 1'
_cell_length_a   13.54364400
_cell_length_b   7.83859000
_cell_length_c   9.56379934
_cell_angle_alpha   90.00000000
_cell_angle_beta   128.47331889
_cell_angle_gamma   90.00000000
_symmetry_Int_Tables_number   1
_chemical_formula_structural   CsHS2(O3F)2
_chemical_formula_sum   'Cs4 H4 S8 O24 F8'
_cell_volume   794.89377533
_cell_formula_units_Z   4
loop_
 _symmetry_equiv_pos_site_id
 _symmetry_equiv_pos_as_xyz
  1  'x, y, z'
loop_
 _atom_site_type_symbol
 _atom_site_label
 _atom_site_symmetry_multiplicity
 _atom_site_fract_x
 _atom_site_fract_y
 _atom_site_fract_z
 _atom_site_occupancy
  Cs  Cs0  1  0.00000000  0.88429100  0.75000000  1
  Cs  Cs1  1  0.50000000  0.61570900  0.25000000  1
  Cs  Cs2  1  0.50000000  0.38429100  0.75000000  1
  Cs  Cs3  1  0.00000000  0.11570900  0.25000000  1
  H  H4  1  0.25000000  0.75000000  0.50000000  1
  H  H5  1  0.75000000  0.75000000  0.00000000  1
  H  H6  1  0.75000000  0.25000000  0.50000000  1
  H  H7  1  0.25000000  0.25000000  0.00000000  1
  S  S8  1  0.33008350  0.84580450  0.78090000  1
  S  S9  1  0.66991650  0.84580450  0.71910000  1
  S  S10  1  0.16991650  0.65419550  0.21910000  1
  S  S11  1  0.83008350  0.65419550  0.28090000  1
  S  S12  1  0.83008350  0.34580450  0.78090000  1
  S  S13  1  0.16991650  0.34580450  0.71910000  1
  S  S14  1  0.66991650  0.15419550  0.21910000  1
  S  S15  1  0.33008350  0.15419550  0.28090000  1
  O  O16  1  0.42461500  0.71453900  0.85023400  1
  O  O17  1  0.57538500  0.71453900  0.64976600  1
  O  O18  1  0.07538500  0.78546100  0.14976600  1
  O  O19  1  0.92461500  0.78546100  0.35023400  1
  O  O20  1  0.28191100  0.88249600  0.87544200  1
  O  O21  1  0.71808900  0.88249600  0.62455800  1
  O  O22  1  0.21808900  0.61750400  0.12455800  1
  O  O23  1  0.78191100  0.61750400  0.37544200  1
  O  O24  1  0.22786300  0.83724600  0.58247200  1
  O  O25  1  0.77213700  0.83724600  0.91752800  1
  O  O26  1  0.27213700  0.66275400  0.41752800  1
  O  O27  1  0.72786300  0.66275400  0.08247200  1
  O  O28  1  0.92461500  0.21453900  0.85023400  1
  O  O29  1  0.07538500  0.21453900  0.64976600  1
  O  O30  1  0.57538500  0.28546100  0.14976600  1
  O  O31  1  0.42461500  0.28546100  0.35023400  1
  O  O32  1  0.78191100  0.38249600  0.87544200  1
  O  O33  1  0.21808900  0.38249600  0.62455800  1
  O  O34  1  0.71808900  0.11750400  0.12455800  1
  O  O35  1  0.28191100  0.11750400  0.37544200  1
  O  O36  1  0.72786300  0.33724600  0.58247200  1
  O  O37  1  0.27213700  0.33724600  0.91752800  1
  O  O38  1  0.77213700  0.16275400  0.41752800  1
  O  O39  1  0.22786300  0.16275400  0.08247200  1
  F  F40  1  0.40140850  0.01913550  0.79714800  1
  F  F41  1  0.59859150  0.01913550  0.70285200  1
  F  F42  1  0.09859150  0.48086450  0.20285200  1
  F  F43  1  0.90140850  0.48086450  0.29714800  1
  F  F44  1  0.90140850  0.51913550  0.79714800  1
  F  F45  1  0.09859150  0.51913550  0.70285200  1
  F  F46  1  0.59859150  0.98086450  0.20285200  1
  F  F47  1  0.40140850  0.98086450  0.29714800  1
