# generated using pymatgen
data_KAl2P2H8O12F
_symmetry_space_group_name_H-M   'P 1'
_cell_length_a   5.62887400
_cell_length_b   9.43686400
_cell_length_c   9.79408200
_cell_angle_alpha   90.00000000
_cell_angle_beta   90.00000000
_cell_angle_gamma   90.00000000
_symmetry_Int_Tables_number   1
_chemical_formula_structural   KAl2P2H8O12F
_chemical_formula_sum   'K2 Al4 P4 H16 O24 F2'
_cell_volume   520.25104267
_cell_formula_units_Z   2
loop_
 _symmetry_equiv_pos_site_id
 _symmetry_equiv_pos_as_xyz
  1  'x, y, z'
loop_
 _atom_site_type_symbol
 _atom_site_label
 _atom_site_symmetry_multiplicity
 _atom_site_fract_x
 _atom_site_fract_y
 _atom_site_fract_z
 _atom_site_occupancy
  K  K0  1  0.92069700  0.50000000  0.50000000  1
  K  K1  1  0.92069700  0.00000000  0.00000000  1
  Al  Al2  1  0.96328500  0.36018800  0.11139100  1
  Al  Al3  1  0.96328500  0.63981200  0.88860900  1
  Al  Al4  1  0.96328500  0.13981200  0.61139100  1
  Al  Al5  1  0.96328500  0.86018800  0.38860900  1
  P  P6  1  0.71369100  0.35209500  0.82544800  1
  P  P7  1  0.71369100  0.64790500  0.17455200  1
  P  P8  1  0.71369100  0.14790500  0.32544800  1
  P  P9  1  0.71369100  0.85209500  0.67455200  1
  H  H10  1  0.29508900  0.51352200  0.22630700  1
  H  H11  1  0.29508900  0.48647800  0.77369300  1
  H  H12  1  0.29508900  0.98647800  0.72630700  1
  H  H13  1  0.29508900  0.01352200  0.27369300  1
  H  H14  1  0.31949900  0.34980800  0.27372600  1
  H  H15  1  0.31949900  0.65019200  0.72627400  1
  H  H16  1  0.31949900  0.15019200  0.77372600  1
  H  H17  1  0.31949900  0.84980800  0.22627400  1
  H  H18  1  0.32263000  0.27269100  0.96285900  1
  H  H19  1  0.32263000  0.72730900  0.03714100  1
  H  H20  1  0.32263000  0.22730900  0.46285900  1
  H  H21  1  0.32263000  0.77269100  0.53714100  1
  H  H22  1  0.35052200  0.21587300  0.11848000  1
  H  H23  1  0.35052200  0.78412700  0.88152000  1
  H  H24  1  0.35052200  0.28412700  0.61848000  1
  H  H25  1  0.35052200  0.71587300  0.38152000  1
  O  O26  1  0.88256400  0.28988800  0.71690800  1
  O  O27  1  0.88256400  0.71011200  0.28309200  1
  O  O28  1  0.88256400  0.21011200  0.21690800  1
  O  O29  1  0.88256400  0.78988800  0.78309200  1
  O  O30  1  0.77930300  0.29238700  0.96796400  1
  O  O31  1  0.77930300  0.70761300  0.03203600  1
  O  O32  1  0.77930300  0.20761300  0.46796400  1
  O  O33  1  0.77930300  0.79238700  0.53203600  1
  O  O34  1  0.74101600  0.51522000  0.82007300  1
  O  O35  1  0.74101600  0.48478000  0.17992700  1
  O  O36  1  0.74101600  0.98478000  0.32007300  1
  O  O37  1  0.74101600  0.01522000  0.67992700  1
  O  O38  1  0.20302600  0.42646600  0.25048400  1
  O  O39  1  0.20302600  0.57353400  0.74951600  1
  O  O40  1  0.20302600  0.07353400  0.75048400  1
  O  O41  1  0.20302600  0.92646600  0.24951600  1
  O  O42  1  0.23499300  0.23612600  0.04423300  1
  O  O43  1  0.23499300  0.76387400  0.95576700  1
  O  O44  1  0.23499300  0.26387400  0.54423300  1
  O  O45  1  0.23499300  0.73612600  0.45576700  1
  O  O46  1  0.44989300  0.31475600  0.79482500  1
  O  O47  1  0.44989300  0.68524400  0.20517500  1
  O  O48  1  0.44989300  0.18524400  0.29482500  1
  O  O49  1  0.44989300  0.81475600  0.70517500  1
  F  F50  1  0.09628000  0.50000000  0.00000000  1
  F  F51  1  0.09628000  0.00000000  0.50000000  1
