# generated using pymatgen
data_LiMn3Al2(HO2)6
_symmetry_space_group_name_H-M   'P 1'
_cell_length_a   5.18476800
_cell_length_b   8.82803400
_cell_length_c   9.70022248
_cell_angle_alpha   90.00000000
_cell_angle_beta   100.75204025
_cell_angle_gamma   90.00000000
_symmetry_Int_Tables_number   1
_chemical_formula_structural   LiMn3Al2(HO2)6
_chemical_formula_sum   'Li2 Mn6 Al4 H12 O24'
_cell_volume   436.19704262
_cell_formula_units_Z   2
loop_
 _symmetry_equiv_pos_site_id
 _symmetry_equiv_pos_as_xyz
  1  'x, y, z'
loop_
 _atom_site_type_symbol
 _atom_site_label
 _atom_site_symmetry_multiplicity
 _atom_site_fract_x
 _atom_site_fract_y
 _atom_site_fract_z
 _atom_site_occupancy
  Li  Li0  1  0.50000000  0.00000000  0.50000000  1
  Li  Li1  1  0.00000000  0.50000000  0.50000000  1
  Mn  Mn2  1  0.00000000  0.00000000  0.00000000  1
  Mn  Mn3  1  0.50000000  0.83517000  0.00000000  1
  Mn  Mn4  1  0.50000000  0.16483000  0.00000000  1
  Mn  Mn5  1  0.50000000  0.50000000  0.00000000  1
  Mn  Mn6  1  0.00000000  0.33517000  0.00000000  1
  Mn  Mn7  1  0.00000000  0.66483000  0.00000000  1
  Al  Al8  1  0.50000000  0.33318600  0.50000000  1
  Al  Al9  1  0.50000000  0.66681400  0.50000000  1
  Al  Al10  1  0.00000000  0.83318600  0.50000000  1
  Al  Al11  1  0.00000000  0.16681400  0.50000000  1
  H  H12  1  0.77503300  0.00000000  0.29305800  1
  H  H13  1  0.25564050  0.82562250  0.29342900  1
  H  H14  1  0.25564050  0.17437750  0.29342900  1
  H  H15  1  0.74435950  0.82562250  0.70657100  1
  H  H16  1  0.74435950  0.17437750  0.70657100  1
  H  H17  1  0.22496700  0.00000000  0.70694200  1
  H  H18  1  0.27503300  0.50000000  0.29305800  1
  H  H19  1  0.75564050  0.32562250  0.29342900  1
  H  H20  1  0.75564050  0.67437750  0.29342900  1
  H  H21  1  0.24435950  0.32562250  0.70657100  1
  H  H22  1  0.24435950  0.67437750  0.70657100  1
  H  H23  1  0.72496700  0.50000000  0.70694200  1
  O  O24  1  0.82973200  0.00000000  0.39579600  1
  O  O25  1  0.67394600  0.00000000  0.10883400  1
  O  O26  1  0.28215850  0.81861050  0.39616100  1
  O  O27  1  0.20582600  0.83171700  0.10111300  1
  O  O28  1  0.28215850  0.18138950  0.39616100  1
  O  O29  1  0.20582600  0.16828300  0.10111300  1
  O  O30  1  0.79417400  0.83171700  0.89888700  1
  O  O31  1  0.71784150  0.81861050  0.60383900  1
  O  O32  1  0.79417400  0.16828300  0.89888700  1
  O  O33  1  0.71784150  0.18138950  0.60383900  1
  O  O34  1  0.32605400  0.00000000  0.89116600  1
  O  O35  1  0.17026800  0.00000000  0.60420400  1
  O  O36  1  0.32973200  0.50000000  0.39579600  1
  O  O37  1  0.17394600  0.50000000  0.10883400  1
  O  O38  1  0.78215850  0.31861050  0.39616100  1
  O  O39  1  0.70582600  0.33171700  0.10111300  1
  O  O40  1  0.78215850  0.68138950  0.39616100  1
  O  O41  1  0.70582600  0.66828300  0.10111300  1
  O  O42  1  0.29417400  0.33171700  0.89888700  1
  O  O43  1  0.21784150  0.31861050  0.60383900  1
  O  O44  1  0.29417400  0.66828300  0.89888700  1
  O  O45  1  0.21784150  0.68138950  0.60383900  1
  O  O46  1  0.82605400  0.50000000  0.89116600  1
  O  O47  1  0.67026800  0.50000000  0.60420400  1
