# generated using pymatgen
data_Na3Zr2Si2PO12
_symmetry_space_group_name_H-M   'P 1'
_cell_length_a   9.16840700
_cell_length_b   9.17674931
_cell_length_c   16.37344864
_cell_angle_alpha   90.59394450
_cell_angle_beta   105.67310878
_cell_angle_gamma   119.81675532
_symmetry_Int_Tables_number   1
_chemical_formula_structural   Na3Zr2Si2PO12
_chemical_formula_sum   'Na12 Zr8 Si8 P4 O48'
_cell_volume   1133.39845216
_cell_formula_units_Z   4
loop_
 _symmetry_equiv_pos_site_id
 _symmetry_equiv_pos_as_xyz
  1  'x, y, z'
loop_
 _atom_site_type_symbol
 _atom_site_label
 _atom_site_symmetry_multiplicity
 _atom_site_fract_x
 _atom_site_fract_y
 _atom_site_fract_z
 _atom_site_occupancy
  Na  Na0  1  0.51945900  0.25770500  0.24483300  1
  Na  Na1  1  0.95585400  0.79615200  0.46901000  1
  Na  Na2  1  0.39188900  0.52112300  0.12580500  1
  Na  Na3  1  0.67229700  0.76192900  0.71761300  1
  Na  Na4  1  0.61584200  0.98242900  0.37942200  1
  Na  Na5  1  0.95441200  0.29453000  0.96979600  1
  Na  Na6  1  0.09321800  0.83931100  0.09065700  1
  Na  Na7  1  0.39410200  0.01434200  0.62903000  1
  Na  Na8  1  0.23826800  0.25016900  0.34791400  1
  Na  Na9  1  0.61379900  0.48375200  0.88023800  1
  Na  Na10  1  0.09531100  0.34254800  0.59200100  1
  Na  Na11  1  0.25122400  0.74765800  0.84168500  1
  Zr  Zr12  1  0.36259500  0.18244700  0.03086100  1
  Zr  Zr13  1  0.35674300  0.68042600  0.52868700  1
  Zr  Zr14  1  0.14052000  0.56281400  0.21548700  1
  Zr  Zr15  1  0.84043400  0.92159800  0.27495100  1
  Zr  Zr16  1  0.14516700  0.06695300  0.71696700  1
  Zr  Zr17  1  0.84300000  0.42187000  0.77556500  1
  Zr  Zr18  1  0.65411800  0.32945600  0.47461400  1
  Zr  Zr19  1  0.65365400  0.82965700  0.97465700  1
  Si  Si20  1  0.05002300  0.16765200  0.12859600  1
  Si  Si21  1  0.74895200  0.58768600  0.11904100  1
  Si  Si22  1  0.53085000  0.61565400  0.36732900  1
  Si  Si23  1  0.04741900  0.66834300  0.62758400  1
  Si  Si24  1  0.46769200  0.88233200  0.13165600  1
  Si  Si25  1  0.74896500  0.08816300  0.61814100  1
  Si  Si26  1  0.53203500  0.11796300  0.86863200  1
  Si  Si27  1  0.46815000  0.38135300  0.63044000  1
  P  P28  1  0.24879100  0.91308000  0.37805900  1
  P  P29  1  0.95510500  0.33103200  0.37439500  1
  P  P30  1  0.24815600  0.41113300  0.87969300  1
  P  P31  1  0.95960800  0.83079400  0.87652000  1
  O  O32  1  0.88395400  0.04361000  0.04134600  1
  O  O33  1  0.00181600  0.41182000  0.29603700  1
  O  O34  1  0.23226700  0.18190200  0.12235100  1
  O  O35  1  0.87807800  0.54576600  0.54092800  1
  O  O36  1  0.57459600  0.40076600  0.11307800  1
  O  O37  1  0.93464200  0.59080500  0.14691600  1
  O  O38  1  0.55474500  0.45226300  0.38952800  1
  O  O39  1  0.73150400  0.66039600  0.02780100  1
  O  O40  1  0.07172700  0.35654500  0.12633900  1
  O  O41  1  0.75077700  0.71185900  0.19285100  1
  O  O42  1  0.36576700  0.54411700  0.27756900  1
  O  O43  1  0.99568200  0.90704800  0.79477600  1
  O  O44  1  0.71754100  0.78104800  0.36430900  1
  O  O45  1  0.47889000  0.68327900  0.44205500  1
  O  O46  1  0.51602200  0.81146300  0.05646800  1
  O  O47  1  0.22395300  0.67996400  0.61603100  1
  O  O48  1  0.28625400  0.72181600  0.14227800  1
  O  O49  1  0.57825200  0.89822500  0.61062300  1
  O  O50  1  0.93321900  0.08822900  0.64859400  1
  O  O51  1  0.62889000  0.95029600  0.22329100  1
  O  O52  1  0.55811500  0.95900500  0.89506900  1
  O  O53  1  0.24103200  0.79257300  0.30851000  1
  O  O54  1  0.94221200  0.15551900  0.37026000  1
  O  O55  1  0.27058500  0.85031300  0.46644300  1
  O  O56  1  0.73424000  0.16227000  0.52733300  1
  O  O57  1  0.07023700  0.85780800  0.62787400  1
  O  O58  1  0.74944800  0.21191400  0.69184500  1
  O  O59  1  0.42429200  0.03197700  0.10683900  1
  O  O60  1  0.36674700  0.04632400  0.77868500  1
  O  O61  1  0.08017500  0.92493600  0.35764500  1
  O  O62  1  0.41081200  0.09512300  0.38393300  1
  O  O63  1  0.71707500  0.28251700  0.86304100  1
  O  O64  1  0.77399900  0.30566400  0.37487300  1
  O  O65  1  0.48118700  0.18986200  0.94255300  1
  O  O66  1  0.51509300  0.30724100  0.55599100  1
  O  O67  1  0.28724900  0.22309000  0.64216900  1
  O  O68  1  0.01467600  0.09153600  0.21531300  1
  O  O69  1  0.63329700  0.45896100  0.72184100  1
  O  O70  1  0.24030800  0.29183200  0.80929400  1
  O  O71  1  0.94659800  0.65526100  0.87138200  1
  O  O72  1  0.26370200  0.34338700  0.96680100  1
  O  O73  1  0.42935100  0.53297200  0.60378900  1
  O  O74  1  0.07878300  0.42313300  0.85696700  1
  O  O75  1  0.41079000  0.59204800  0.88865800  1
  O  O76  1  0.10640900  0.44837100  0.45804900  1
  O  O77  1  0.77803300  0.80438100  0.87636000  1
  O  O78  1  0.01364300  0.59159300  0.71446000  1
  O  O79  1  0.11178200  0.95012000  0.95847200  1
