# generated using pymatgen
data_BeH8(NF2)2
_symmetry_space_group_name_H-M   'P 1'
_cell_length_a   6.10481600
_cell_length_b   7.51368700
_cell_length_c   10.58199700
_cell_angle_alpha   90.00000000
_cell_angle_beta   90.00000000
_cell_angle_gamma   90.00000000
_symmetry_Int_Tables_number   1
_chemical_formula_structural   BeH8(NF2)2
_chemical_formula_sum   'Be4 H32 N8 F16'
_cell_volume   485.39278035
_cell_formula_units_Z   4
loop_
 _symmetry_equiv_pos_site_id
 _symmetry_equiv_pos_as_xyz
  1  'x, y, z'
loop_
 _atom_site_type_symbol
 _atom_site_label
 _atom_site_symmetry_multiplicity
 _atom_site_fract_x
 _atom_site_fract_y
 _atom_site_fract_z
 _atom_site_occupancy
  Be  Be0  1  0.75000000  0.75042200  0.58276400  1
  Be  Be1  1  0.25000000  0.24957800  0.41723600  1
  Be  Be2  1  0.75000000  0.25042200  0.91723600  1
  Be  Be3  1  0.25000000  0.74957800  0.08276400  1
  H  H4  1  0.38747300  0.16966200  0.03657700  1
  H  H5  1  0.61374400  0.61381800  0.17462300  1
  H  H6  1  0.75000000  0.42044200  0.13605200  1
  H  H7  1  0.11374400  0.38618200  0.82537700  1
  H  H8  1  0.88747300  0.83033800  0.96342300  1
  H  H9  1  0.75000000  0.38341000  0.66924500  1
  H  H10  1  0.25000000  0.07955800  0.63605200  1
  H  H11  1  0.25000000  0.50293800  0.71488000  1
  H  H12  1  0.25000000  0.00293800  0.78512000  1
  H  H13  1  0.75000000  0.66790700  0.88531200  1
  H  H14  1  0.75000000  0.99706200  0.21488000  1
  H  H15  1  0.61252700  0.83033800  0.96342300  1
  H  H16  1  0.75000000  0.49706200  0.28512000  1
  H  H17  1  0.75000000  0.92044200  0.36394800  1
  H  H18  1  0.25000000  0.57955800  0.86394800  1
  H  H19  1  0.88625600  0.61381800  0.17462300  1
  H  H20  1  0.25000000  0.61659000  0.33075500  1
  H  H21  1  0.75000000  0.88341000  0.83075500  1
  H  H22  1  0.25000000  0.33209300  0.11468800  1
  H  H23  1  0.11374400  0.88618200  0.67462300  1
  H  H24  1  0.61252700  0.33033800  0.53657700  1
  H  H25  1  0.25000000  0.11659000  0.16924500  1
  H  H26  1  0.61374400  0.11381800  0.32537700  1
  H  H27  1  0.38747300  0.66966200  0.46342300  1
  H  H28  1  0.11252700  0.66966200  0.46342300  1
  H  H29  1  0.88625600  0.11381800  0.32537700  1
  H  H30  1  0.25000000  0.83209300  0.38531200  1
  H  H31  1  0.88747300  0.33033800  0.53657700  1
  H  H32  1  0.75000000  0.16790700  0.61468800  1
  H  H33  1  0.11252700  0.16966200  0.03657700  1
  H  H34  1  0.38625600  0.38618200  0.82537700  1
  H  H35  1  0.38625600  0.88618200  0.67462300  1
  N  N36  1  0.25000000  0.46469800  0.80786100  1
  N  N37  1  0.25000000  0.19585500  0.09043700  1
  N  N38  1  0.75000000  0.03530200  0.30786100  1
  N  N39  1  0.25000000  0.69585500  0.40956300  1
  N  N40  1  0.25000000  0.96469800  0.69213900  1
  N  N41  1  0.75000000  0.80414500  0.90956300  1
  N  N42  1  0.75000000  0.53530200  0.19213900  1
  N  N43  1  0.75000000  0.30414500  0.59043700  1
  F  F44  1  0.25000000  0.28174100  0.56304300  1
  F  F45  1  0.75000000  0.95503200  0.61398600  1
  F  F46  1  0.96483500  0.67127200  0.63895100  1
  F  F47  1  0.03516500  0.82872800  0.13895100  1
  F  F48  1  0.75000000  0.45503200  0.88601400  1
  F  F49  1  0.03516500  0.32872800  0.36104900  1
  F  F50  1  0.53516500  0.67127200  0.63895100  1
  F  F51  1  0.25000000  0.04496800  0.38601400  1
  F  F52  1  0.75000000  0.21825900  0.06304300  1
  F  F53  1  0.25000000  0.78174100  0.93695700  1
  F  F54  1  0.46483500  0.82872800  0.13895100  1
  F  F55  1  0.46483500  0.32872800  0.36104900  1
  F  F56  1  0.25000000  0.54496800  0.11398600  1
  F  F57  1  0.53516500  0.17127200  0.86104900  1
  F  F58  1  0.96483500  0.17127200  0.86104900  1
  F  F59  1  0.75000000  0.71825900  0.43695700  1
