# generated using pymatgen
data_Ca3Ga2Si(SnO6)2
_symmetry_space_group_name_H-M   'P 1'
_cell_length_a   12.68513200
_cell_length_b   12.68513200
_cell_length_c   12.49309600
_cell_angle_alpha   90.00000000
_cell_angle_beta   90.00000000
_cell_angle_gamma   90.00000000
_symmetry_Int_Tables_number   1
_chemical_formula_structural   Ca3Ga2Si(SnO6)2
_chemical_formula_sum   'Ca24 Ga16 Si8 Sn16 O96'
_cell_volume   2010.29623281
_cell_formula_units_Z   8
loop_
 _symmetry_equiv_pos_site_id
 _symmetry_equiv_pos_as_xyz
  1  'x, y, z'
loop_
 _atom_site_type_symbol
 _atom_site_label
 _atom_site_symmetry_multiplicity
 _atom_site_fract_x
 _atom_site_fract_y
 _atom_site_fract_z
 _atom_site_occupancy
  Ca  Ca0  1  0.50000000  0.00000000  0.00000000  1
  Ca  Ca1  1  0.25000000  0.12455800  0.37500000  1
  Ca  Ca2  1  0.12455800  0.25000000  0.12500000  1
  Ca  Ca3  1  0.50000000  0.00000000  0.50000000  1
  Ca  Ca4  1  0.75000000  0.12455800  0.87500000  1
  Ca  Ca5  1  0.37544200  0.25000000  0.62500000  1
  Ca  Ca6  1  0.12455800  0.75000000  0.62500000  1
  Ca  Ca7  1  0.50000000  0.50000000  0.25000000  1
  Ca  Ca8  1  0.75000000  0.87544200  0.37500000  1
  Ca  Ca9  1  0.87544200  0.25000000  0.62500000  1
  Ca  Ca10  1  0.75000000  0.37544200  0.37500000  1
  Ca  Ca11  1  0.00000000  0.00000000  0.25000000  1
  Ca  Ca12  1  0.00000000  0.50000000  0.50000000  1
  Ca  Ca13  1  0.75000000  0.62455800  0.87500000  1
  Ca  Ca14  1  0.62455800  0.75000000  0.62500000  1
  Ca  Ca15  1  0.00000000  0.50000000  0.00000000  1
  Ca  Ca16  1  0.25000000  0.62455800  0.37500000  1
  Ca  Ca17  1  0.87544200  0.75000000  0.12500000  1
  Ca  Ca18  1  0.62455800  0.25000000  0.12500000  1
  Ca  Ca19  1  0.00000000  0.00000000  0.75000000  1
  Ca  Ca20  1  0.25000000  0.37544200  0.87500000  1
  Ca  Ca21  1  0.37544200  0.75000000  0.12500000  1
  Ca  Ca22  1  0.25000000  0.87544200  0.87500000  1
  Ca  Ca23  1  0.50000000  0.50000000  0.75000000  1
  Ga  Ga24  1  0.62566200  0.75000000  0.12500000  1
  Ga  Ga25  1  0.75000000  0.62566200  0.37500000  1
  Ga  Ga26  1  0.75000000  0.87433800  0.87500000  1
  Ga  Ga27  1  0.87433800  0.75000000  0.62500000  1
  Ga  Ga28  1  0.62566200  0.25000000  0.62500000  1
  Ga  Ga29  1  0.75000000  0.12566200  0.37500000  1
  Ga  Ga30  1  0.75000000  0.37433800  0.87500000  1
  Ga  Ga31  1  0.87433800  0.25000000  0.12500000  1
  Ga  Ga32  1  0.12566200  0.25000000  0.62500000  1
  Ga  Ga33  1  0.25000000  0.12566200  0.87500000  1
  Ga  Ga34  1  0.25000000  0.37433800  0.37500000  1
  Ga  Ga35  1  0.37433800  0.25000000  0.12500000  1
  Ga  Ga36  1  0.12566200  0.75000000  0.12500000  1
  Ga  Ga37  1  0.25000000  0.62566200  0.87500000  1
  Ga  Ga38  1  0.25000000  0.87433800  0.37500000  1
  Ga  Ga39  1  0.37433800  0.75000000  0.62500000  1
  Si  Si40  1  0.50000000  0.00000000  0.25000000  1
  Si  Si41  1  0.50000000  0.00000000  0.75000000  1
  Si  Si42  1  0.50000000  0.50000000  0.50000000  1
  Si  Si43  1  0.00000000  0.00000000  0.50000000  1
  Si  Si44  1  0.00000000  0.50000000  0.75000000  1
  Si  Si45  1  0.00000000  0.50000000  0.25000000  1
  Si  Si46  1  0.00000000  0.00000000  0.00000000  1
  Si  Si47  1  0.50000000  0.50000000  0.00000000  1
  Sn  Sn48  1  0.75000000  0.50000000  0.12500000  1
  Sn  Sn49  1  0.50000000  0.25000000  0.87500000  1
  Sn  Sn50  1  0.50000000  0.75000000  0.37500000  1
  Sn  Sn51  1  0.75000000  0.00000000  0.62500000  1
  Sn  Sn52  1  0.50000000  0.25000000  0.37500000  1
  Sn  Sn53  1  0.25000000  0.50000000  0.62500000  1
  Sn  Sn54  1  0.75000000  0.50000000  0.62500000  1
  Sn  Sn55  1  0.00000000  0.25000000  0.37500000  1
  Sn  Sn56  1  0.25000000  0.00000000  0.62500000  1
  Sn  Sn57  1  0.00000000  0.75000000  0.37500000  1
  Sn  Sn58  1  0.00000000  0.25000000  0.87500000  1
  Sn  Sn59  1  0.25000000  0.50000000  0.12500000  1
  Sn  Sn60  1  0.00000000  0.75000000  0.87500000  1
  Sn  Sn61  1  0.75000000  0.00000000  0.12500000  1
  Sn  Sn62  1  0.25000000  0.00000000  0.12500000  1
  Sn  Sn63  1  0.50000000  0.75000000  0.87500000  1
  O  O64  1  0.90828600  0.45342300  0.66769800  1
  O  O65  1  0.80646150  0.47143750  0.97302550  1
  O  O66  1  0.72336350  0.65163050  0.07303750  1
  O  O67  1  0.02856250  0.30646150  0.52697450  1
  O  O68  1  0.80646150  0.52856250  0.47302550  1
  O  O69  1  0.95342300  0.40828600  0.33230200  1
  O  O70  1  0.15163050  0.27663650  0.32303750  1
  O  O71  1  0.69353850  0.97143750  0.97302550  1
  O  O72  1  0.34836950  0.27663650  0.42696250  1
  O  O73  1  0.45342300  0.09171400  0.33230200  1
  O  O74  1  0.34836950  0.22336350  0.82303750  1
  O  O75  1  0.97143750  0.30646150  0.02697450  1
  O  O76  1  0.27663650  0.15163050  0.17696250  1
  O  O77  1  0.90828600  0.54657700  0.16769800  1
  O  O78  1  0.54657700  0.09171400  0.83230200  1
  O  O79  1  0.59171400  0.95342300  0.66769800  1
  O  O80  1  0.22336350  0.34836950  0.67696250  1
  O  O81  1  0.65163050  0.72336350  0.42696250  1
  O  O82  1  0.09171400  0.54657700  0.66769800  1
  O  O83  1  0.80646150  0.97143750  0.77697450  1
  O  O84  1  0.97143750  0.80646150  0.72302550  1
  O  O85  1  0.77663650  0.84836950  0.57303750  1
  O  O86  1  0.52856250  0.30646150  0.72302550  1
  O  O87  1  0.54657700  0.90828600  0.33230200  1
  O  O88  1  0.45342300  0.59171400  0.41769800  1
  O  O89  1  0.47143750  0.19353850  0.02697450  1
  O  O90  1  0.72336350  0.15163050  0.67696250  1
  O  O91  1  0.52856250  0.19353850  0.52697450  1
  O  O92  1  0.69353850  0.02856250  0.47302550  1
  O  O93  1  0.40828600  0.45342300  0.58230200  1
  O  O94  1  0.84836950  0.27663650  0.82303750  1
  O  O95  1  0.27663650  0.65163050  0.57303750  1
  O  O96  1  0.90828600  0.04657700  0.58230200  1
  O  O97  1  0.95342300  0.90828600  0.41769800  1
  O  O98  1  0.09171400  0.95342300  0.58230200  1
  O  O99  1  0.72336350  0.34836950  0.57303750  1
  O  O100  1  0.52856250  0.69353850  0.22302550  1
  O  O101  1  0.65163050  0.27663650  0.92696250  1
  O  O102  1  0.65163050  0.22336350  0.32303750  1
  O  O103  1  0.54657700  0.40828600  0.41769800  1
  O  O104  1  0.80646150  0.02856250  0.27697450  1
  O  O105  1  0.84836950  0.22336350  0.42696250  1
  O  O106  1  0.04657700  0.09171400  0.41769800  1
  O  O107  1  0.69353850  0.47143750  0.77697450  1
  O  O108  1  0.97143750  0.19353850  0.22302550  1
  O  O109  1  0.77663650  0.34836950  0.17696250  1
  O  O110  1  0.69353850  0.52856250  0.27697450  1
  O  O111  1  0.59171400  0.54657700  0.58230200  1
  O  O112  1  0.40828600  0.95342300  0.16769800  1
  O  O113  1  0.30646150  0.97143750  0.47302550  1
  O  O114  1  0.22336350  0.15163050  0.57303750  1
  O  O115  1  0.52856250  0.80646150  0.02697450  1
  O  O116  1  0.30646150  0.02856250  0.97302550  1
  O  O117  1  0.45342300  0.90828600  0.83230200  1
  O  O118  1  0.65163050  0.77663650  0.82303750  1
  O  O119  1  0.19353850  0.47143750  0.47302550  1
  O  O120  1  0.84836950  0.77663650  0.92696250  1
  O  O121  1  0.95342300  0.59171400  0.83230200  1
  O  O122  1  0.84836950  0.72336350  0.32303750  1
  O  O123  1  0.47143750  0.80646150  0.52697450  1
  O  O124  1  0.77663650  0.65163050  0.67696250  1
  O  O125  1  0.40828600  0.04657700  0.66769800  1
  O  O126  1  0.04657700  0.59171400  0.33230200  1
  O  O127  1  0.09171400  0.45342300  0.16769800  1
  O  O128  1  0.72336350  0.84836950  0.17696250  1
  O  O129  1  0.15163050  0.22336350  0.92696250  1
  O  O130  1  0.59171400  0.04657700  0.16769800  1
  O  O131  1  0.30646150  0.47143750  0.27697450  1
  O  O132  1  0.47143750  0.30646150  0.22302550  1
  O  O133  1  0.27663650  0.34836950  0.07303750  1
  O  O134  1  0.02856250  0.80646150  0.22302550  1
  O  O135  1  0.04657700  0.40828600  0.83230200  1
  O  O136  1  0.95342300  0.09171400  0.91769800  1
  O  O137  1  0.97143750  0.69353850  0.52697450  1
  O  O138  1  0.22336350  0.65163050  0.17696250  1
  O  O139  1  0.02856250  0.69353850  0.02697450  1
  O  O140  1  0.19353850  0.52856250  0.97302550  1
  O  O141  1  0.90828600  0.95342300  0.08230200  1
  O  O142  1  0.34836950  0.77663650  0.32303750  1
  O  O143  1  0.77663650  0.15163050  0.07303750  1
  O  O144  1  0.40828600  0.54657700  0.08230200  1
  O  O145  1  0.45342300  0.40828600  0.91769800  1
  O  O146  1  0.59171400  0.45342300  0.08230200  1
  O  O147  1  0.22336350  0.84836950  0.07303750  1
  O  O148  1  0.02856250  0.19353850  0.72302550  1
  O  O149  1  0.15163050  0.77663650  0.42696250  1
  O  O150  1  0.15163050  0.72336350  0.82303750  1
  O  O151  1  0.04657700  0.90828600  0.91769800  1
  O  O152  1  0.30646150  0.52856250  0.77697450  1
  O  O153  1  0.34836950  0.72336350  0.92696250  1
  O  O154  1  0.54657700  0.59171400  0.91769800  1
  O  O155  1  0.19353850  0.97143750  0.27697450  1
  O  O156  1  0.47143750  0.69353850  0.72302550  1
  O  O157  1  0.27663650  0.84836950  0.67696250  1
  O  O158  1  0.19353850  0.02856250  0.77697450  1
  O  O159  1  0.09171400  0.04657700  0.08230200  1
