# generated using pymatgen
data_Al17(NO7)3
_symmetry_space_group_name_H-M   'P 1'
_cell_length_a   5.70718200
_cell_length_b   7.99814133
_cell_length_c   9.73044594
_cell_angle_alpha   113.77231299
_cell_angle_beta   106.98298761
_cell_angle_gamma   89.59044423
_symmetry_Int_Tables_number   1
_chemical_formula_structural   Al17(NO7)3
_chemical_formula_sum   'Al17 N3 O21'
_cell_volume   385.63704298
_cell_formula_units_Z   1
loop_
 _symmetry_equiv_pos_site_id
 _symmetry_equiv_pos_as_xyz
  1  'x, y, z'
loop_
 _atom_site_type_symbol
 _atom_site_label
 _atom_site_symmetry_multiplicity
 _atom_site_fract_x
 _atom_site_fract_y
 _atom_site_fract_z
 _atom_site_occupancy
  Al  Al0  1  0.99815800  0.99503200  0.00552300  1
  Al  Al1  1  0.50206600  0.25517200  0.99405000  1
  Al  Al2  1  0.32482500  0.32371200  0.66934400  1
  Al  Al3  1  0.74062000  0.63206300  0.99111600  1
  Al  Al4  1  0.83773800  0.58833500  0.66007900  1
  Al  Al5  1  0.65669500  0.66273300  0.33588400  1
  Al  Al6  1  0.92048200  0.28872100  0.82711200  1
  Al  Al7  1  0.25212300  0.63017900  0.98997200  1
  Al  Al8  1  0.09526100  0.95933100  0.67300700  1
  Al  Al9  1  0.17784200  0.92034000  0.33131800  1
  Al  Al10  1  0.26762100  0.62644800  0.50956800  1
  Al  Al11  1  0.58390600  0.95206700  0.67560900  1
  Al  Al12  1  0.41889400  0.29252800  0.33450600  1
  Al  Al13  1  0.75007800  0.11835800  0.49803700  1
  Al  Al14  1  0.57001600  0.95824400  0.15835600  1
  Al  Al15  1  0.91811000  0.29172700  0.33341900  1
  Al  Al16  1  0.09217000  0.46507900  0.17158600  1
  N  N17  1  0.43988000  0.05402300  0.33384800  1
  N  N18  1  0.05776400  0.19403700  0.66312300  1
  N  N19  1  0.39600800  0.52925400  0.33273500  1
  O  O20  1  0.92080100  0.54444900  0.84075800  1
  O  O21  1  0.25362300  0.86884900  0.00956200  1
  O  O22  1  0.07950600  0.71281900  0.64779600  1
  O  O23  1  0.42674100  0.53179100  0.84760700  1
  O  O24  1  0.25742700  0.87130200  0.50962000  1
  O  O25  1  0.41568200  0.04727400  0.82228900  1
  O  O26  1  0.75402600  0.87265700  0.01739000  1
  O  O27  1  0.58167900  0.71332600  0.65824800  1
  O  O28  1  0.59959700  0.20047600  0.67079600  1
  O  O29  1  0.75123700  0.88450500  0.51000400  1
  O  O30  1  0.75182200  0.36479600  0.48869800  1
  O  O31  1  0.91022200  0.04018200  0.82887400  1
  O  O32  1  0.59395700  0.20705000  0.16932300  1
  O  O33  1  0.90766400  0.05005600  0.33039000  1
  O  O34  1  0.77585300  0.38407700  0.99891300  1
  O  O35  1  0.92160400  0.52919800  0.32699900  1
  O  O36  1  0.24014000  0.37787200  0.49422200  1
  O  O37  1  0.07941600  0.22107700  0.17391300  1
  O  O38  1  0.07450400  0.69290900  0.15298600  1
  O  O39  1  0.23121500  0.38303900  0.99892400  1
  O  O40  1  0.57875600  0.70559700  0.15330800  1
