# generated using pymatgen
data_Ga(HO)3
_symmetry_space_group_name_H-M   'P 1'
_cell_length_a   10.63337642
_cell_length_b   10.63337642
_cell_length_c   6.43490407
_cell_angle_alpha   90.00000000
_cell_angle_beta   90.00000000
_cell_angle_gamma   120.00000000
_symmetry_Int_Tables_number   1
_chemical_formula_structural   Ga(HO)3
_chemical_formula_sum   'Ga12 H36 O36'
_cell_volume   630.10813187
_cell_formula_units_Z   12
loop_
 _symmetry_equiv_pos_site_id
 _symmetry_equiv_pos_as_xyz
  1  'x, y, z'
loop_
 _atom_site_type_symbol
 _atom_site_label
 _atom_site_symmetry_multiplicity
 _atom_site_fract_x
 _atom_site_fract_y
 _atom_site_fract_z
 _atom_site_occupancy
  Ga  Ga0  1  0.16666667  0.33333333  0.83333333  1
  Ga  Ga1  1  0.00000000  0.00000000  0.50000000  1
  Ga  Ga2  1  0.83333333  0.16666667  0.16666667  1
  Ga  Ga3  1  0.66666667  0.83333333  0.83333333  1
  Ga  Ga4  1  0.83333333  0.66666667  0.16666667  1
  Ga  Ga5  1  0.66666667  0.33333333  0.83333333  1
  Ga  Ga6  1  0.50000000  0.50000000  0.50000000  1
  Ga  Ga7  1  0.33333333  0.16666667  0.16666667  1
  Ga  Ga8  1  0.50000000  0.00000000  0.50000000  1
  Ga  Ga9  1  0.33333333  0.66666667  0.16666667  1
  Ga  Ga10  1  0.16666667  0.83333333  0.83333333  1
  Ga  Ga11  1  0.00000000  0.50000000  0.50000000  1
  H  H12  1  0.60676100  0.03157700  0.84835100  1
  H  H13  1  0.07674333  0.19271967  0.23104167  1
  H  H14  1  0.58992333  0.14061367  0.10229167  1
  H  H15  1  0.05990567  0.30175633  0.48498233  1
  H  H16  1  0.03157700  0.42481600  0.15164900  1
  H  H17  1  0.52605300  0.78264300  0.43562500  1
  H  H18  1  0.14061367  0.55069033  0.89770833  1
  H  H19  1  0.63508967  0.90851733  0.18168433  1
  H  H20  1  0.78264300  0.25659000  0.56437500  1
  H  H21  1  0.75814933  0.05990567  0.51501767  1
  H  H22  1  0.90851733  0.27342767  0.81831567  1
  H  H23  1  0.88402367  0.07674333  0.76895833  1
  H  H24  1  0.27342767  0.36491033  0.18168433  1
  H  H25  1  0.74341000  0.52605300  0.56437500  1
  H  H26  1  0.25659000  0.47394700  0.43562500  1
  H  H27  1  0.72657233  0.63508967  0.81831567  1
  H  H28  1  0.69824367  0.75814933  0.48498233  1
  H  H29  1  0.19271967  0.11597633  0.76895833  1
  H  H30  1  0.80728033  0.88402367  0.23104167  1
  H  H31  1  0.30175633  0.24185067  0.51501767  1
  H  H32  1  0.44930967  0.58992333  0.89770833  1
  H  H33  1  0.42481600  0.39323900  0.84835100  1
  H  H34  1  0.57518400  0.60676100  0.15164900  1
  H  H35  1  0.55069033  0.41007667  0.10229167  1
  H  H36  1  0.94009433  0.69824367  0.51501767  1
  H  H37  1  0.41007667  0.85938633  0.89770833  1
  H  H38  1  0.92325667  0.80728033  0.76895833  1
  H  H39  1  0.39323900  0.96842300  0.15164900  1
  H  H40  1  0.36491033  0.09148267  0.81831567  1
  H  H41  1  0.85938633  0.44930967  0.10229167  1
  H  H42  1  0.47394700  0.21735700  0.56437500  1
  H  H43  1  0.96842300  0.57518400  0.84835100  1
  H  H44  1  0.11597633  0.92325667  0.23104167  1
  H  H45  1  0.09148267  0.72657233  0.18168433  1
  H  H46  1  0.24185067  0.94009433  0.48498233  1
  H  H47  1  0.21735700  0.74341000  0.43562500  1
  O  O48  1  0.55645600  0.94053200  0.76219900  1
  O  O49  1  0.98825233  0.15110467  0.32404467  1
  O  O50  1  0.67841433  0.18222867  0.00928867  1
  O  O51  1  0.11021067  0.39280133  0.57113433  1
  O  O52  1  0.94053200  0.38407600  0.23780100  1
  O  O53  1  0.48443800  0.82951900  0.34262200  1
  O  O54  1  0.18222867  0.50381433  0.99071133  1
  O  O55  1  0.72613467  0.94925733  0.09553233  1
  O  O56  1  0.82951900  0.34508100  0.65737800  1
  O  O57  1  0.71740933  0.11021067  0.42886567  1
  O  O58  1  0.94925733  0.22312267  0.90446767  1
  O  O59  1  0.83714767  0.98825233  0.67595533  1
  O  O60  1  0.22312267  0.27386533  0.09553233  1
  O  O61  1  0.65491900  0.48443800  0.65737800  1
  O  O62  1  0.34508100  0.51556200  0.34262200  1
  O  O63  1  0.77687733  0.72613467  0.90446767  1
  O  O64  1  0.60719867  0.71740933  0.57113433  1
  O  O65  1  0.15110467  0.16285233  0.67595533  1
  O  O66  1  0.84889533  0.83714767  0.32404467  1
  O  O67  1  0.39280133  0.28259067  0.42886567  1
  O  O68  1  0.49618567  0.67841433  0.99071133  1
  O  O69  1  0.38407600  0.44354400  0.76219900  1
  O  O70  1  0.61592400  0.55645600  0.23780100  1
  O  O71  1  0.50381433  0.32158567  0.00928867  1
  O  O72  1  0.88978933  0.60719867  0.42886567  1
  O  O73  1  0.32158567  0.81777133  0.99071133  1
  O  O74  1  0.01174767  0.84889533  0.67595533  1
  O  O75  1  0.44354400  0.05946800  0.23780100  1
  O  O76  1  0.27386533  0.05074267  0.90446767  1
  O  O77  1  0.81777133  0.49618567  0.00928867  1
  O  O78  1  0.51556200  0.17048100  0.65737800  1
  O  O79  1  0.05946800  0.61592400  0.76219900  1
  O  O80  1  0.16285233  0.01174767  0.32404467  1
  O  O81  1  0.05074267  0.77687733  0.09553233  1
  O  O82  1  0.28259067  0.88978933  0.57113433  1
  O  O83  1  0.17048100  0.65491900  0.34262200  1
