# generated using pymatgen
data_Sm2PbS4
_symmetry_space_group_name_H-M   'P 1'
_cell_length_a   8.63033000
_cell_length_b   8.63033000
_cell_length_c   8.60828600
_cell_angle_alpha   90.00000000
_cell_angle_beta   90.00000000
_cell_angle_gamma   90.00000000
_symmetry_Int_Tables_number   1
_chemical_formula_structural   Sm2PbS4
_chemical_formula_sum   'Sm8 Pb4 S16'
_cell_volume   641.16748761
_cell_formula_units_Z   4
loop_
 _symmetry_equiv_pos_site_id
 _symmetry_equiv_pos_as_xyz
  1  'x, y, z'
loop_
 _atom_site_type_symbol
 _atom_site_label
 _atom_site_symmetry_multiplicity
 _atom_site_fract_x
 _atom_site_fract_y
 _atom_site_fract_z
 _atom_site_occupancy
  Sm  Sm0  1  0.36921700  0.25000000  0.87500000  1
  Sm  Sm1  1  0.75000000  0.36921700  0.12500000  1
  Sm  Sm2  1  0.13078300  0.25000000  0.37500000  1
  Sm  Sm3  1  0.75000000  0.13078300  0.62500000  1
  Sm  Sm4  1  0.86921700  0.75000000  0.37500000  1
  Sm  Sm5  1  0.25000000  0.86921700  0.62500000  1
  Sm  Sm6  1  0.63078300  0.75000000  0.87500000  1
  Sm  Sm7  1  0.25000000  0.63078300  0.12500000  1
  Pb  Pb8  1  0.50000000  0.50000000  0.50000000  1
  Pb  Pb9  1  0.50000000  0.00000000  0.25000000  1
  Pb  Pb10  1  0.00000000  0.00000000  0.00000000  1
  Pb  Pb11  1  0.00000000  0.50000000  0.75000000  1
  S  S12  1  0.57508650  0.67144550  0.18843050  1
  S  S13  1  0.82855450  0.07508650  0.31156950  1
  S  S14  1  0.67144550  0.07508650  0.93843050  1
  S  S15  1  0.07508650  0.32855450  0.06156950  1
  S  S16  1  0.42491350  0.17144550  0.56156950  1
  S  S17  1  0.67144550  0.42491350  0.81156950  1
  S  S18  1  0.92491350  0.82855450  0.68843050  1
  S  S19  1  0.82855450  0.42491350  0.43843050  1
  S  S20  1  0.07508650  0.17144550  0.68843050  1
  S  S21  1  0.32855450  0.57508650  0.81156950  1
  S  S22  1  0.17144550  0.57508650  0.43843050  1
  S  S23  1  0.57508650  0.82855450  0.56156950  1
  S  S24  1  0.92491350  0.67144550  0.06156950  1
  S  S25  1  0.17144550  0.92491350  0.31156950  1
  S  S26  1  0.42491350  0.32855450  0.18843050  1
  S  S27  1  0.32855450  0.92491350  0.93843050  1
