# generated using pymatgen
data_Er7(CuTe4)3
_symmetry_space_group_name_H-M   'P 1'
_cell_length_a   7.52460800
_cell_length_b   12.85788000
_cell_length_c   14.21739770
_cell_angle_alpha   90.00000000
_cell_angle_beta   99.90712480
_cell_angle_gamma   90.00000000
_symmetry_Int_Tables_number   1
_chemical_formula_structural   Er7(CuTe4)3
_chemical_formula_sum   'Er14 Cu6 Te24'
_cell_volume   1355.02828893
_cell_formula_units_Z   2
loop_
 _symmetry_equiv_pos_site_id
 _symmetry_equiv_pos_as_xyz
  1  'x, y, z'
loop_
 _atom_site_type_symbol
 _atom_site_label
 _atom_site_symmetry_multiplicity
 _atom_site_fract_x
 _atom_site_fract_y
 _atom_site_fract_z
 _atom_site_occupancy
  Er  Er0  1  0.58429550  0.83390550  0.25321200  1
  Er  Er1  1  0.74959850  0.16610950  0.74950800  1
  Er  Er2  1  0.58429550  0.16609450  0.25321200  1
  Er  Er3  1  0.66805700  0.00000000  0.00500200  1
  Er  Er4  1  0.25095800  0.00000000  0.74953700  1
  Er  Er5  1  0.08298500  0.00000000  0.25313200  1
  Er  Er6  1  0.74959850  0.83389050  0.74950800  1
  Er  Er7  1  0.08429550  0.33390550  0.25321200  1
  Er  Er8  1  0.24959850  0.66610950  0.74950800  1
  Er  Er9  1  0.08429550  0.66609450  0.25321200  1
  Er  Er10  1  0.16805700  0.50000000  0.00500200  1
  Er  Er11  1  0.75095800  0.50000000  0.74953700  1
  Er  Er12  1  0.58298500  0.50000000  0.25313200  1
  Er  Er13  1  0.24959850  0.33389050  0.74950800  1
  Cu  Cu14  1  0.35364900  0.83314500  0.56043500  1
  Cu  Cu15  1  0.35364900  0.16685500  0.56043500  1
  Cu  Cu16  1  0.85376000  0.00000000  0.56038400  1
  Cu  Cu17  1  0.85364900  0.33314500  0.56043500  1
  Cu  Cu18  1  0.85364900  0.66685500  0.56043500  1
  Cu  Cu19  1  0.35376000  0.50000000  0.56038400  1
  Te  Te20  1  0.53885600  0.33335000  0.61641600  1
  Te  Te21  1  0.37446150  0.33277350  0.12294800  1
  Te  Te22  1  0.53885600  0.66665000  0.61641600  1
  Te  Te23  1  0.37446150  0.66722650  0.12294800  1
  Te  Te24  1  0.45753250  0.83230850  0.87481300  1
  Te  Te25  1  0.53836000  0.00000000  0.61581000  1
  Te  Te26  1  0.29192550  0.83335250  0.37532600  1
  Te  Te27  1  0.37347400  0.00000000  0.12265900  1
  Te  Te28  1  0.45753250  0.16769150  0.87481300  1
  Te  Te29  1  0.29192550  0.16664750  0.37532600  1
  Te  Te30  1  0.95986300  0.00000000  0.87499700  1
  Te  Te31  1  0.79266000  0.00000000  0.37624400  1
  Te  Te32  1  0.03885600  0.83335000  0.61641600  1
  Te  Te33  1  0.87446150  0.83277350  0.12294800  1
  Te  Te34  1  0.03885600  0.16665000  0.61641600  1
  Te  Te35  1  0.87446150  0.16722650  0.12294800  1
  Te  Te36  1  0.95753250  0.33230850  0.87481300  1
  Te  Te37  1  0.03836000  0.50000000  0.61581000  1
  Te  Te38  1  0.79192550  0.33335250  0.37532600  1
  Te  Te39  1  0.87347400  0.50000000  0.12265900  1
  Te  Te40  1  0.95753250  0.66769150  0.87481300  1
  Te  Te41  1  0.79192550  0.66664750  0.37532600  1
  Te  Te42  1  0.45986300  0.50000000  0.87499700  1
  Te  Te43  1  0.29266000  0.50000000  0.37624400  1
