# generated using pymatgen
data_KB3(HO3)2
_symmetry_space_group_name_H-M   'P 1'
_cell_length_a   11.55181800
_cell_length_b   11.55181800
_cell_length_c   16.70298000
_cell_angle_alpha   90.00000000
_cell_angle_beta   90.00000000
_cell_angle_gamma   90.00000000
_symmetry_Int_Tables_number   1
_chemical_formula_structural   KB3(HO3)2
_chemical_formula_sum   'K16 B48 H32 O96'
_cell_volume   2228.92079966
_cell_formula_units_Z   16
loop_
 _symmetry_equiv_pos_site_id
 _symmetry_equiv_pos_as_xyz
  1  'x, y, z'
loop_
 _atom_site_type_symbol
 _atom_site_label
 _atom_site_symmetry_multiplicity
 _atom_site_fract_x
 _atom_site_fract_y
 _atom_site_fract_z
 _atom_site_occupancy
  K  K0  1  0.00000000  0.50000000  0.48366900  1
  K  K1  1  0.50000000  0.00000000  0.01633100  1
  K  K2  1  0.50000000  0.50000000  0.00000000  1
  K  K3  1  0.00000000  0.00000000  0.00000000  1
  K  K4  1  0.00000000  0.50000000  0.23909900  1
  K  K5  1  0.00000000  0.00000000  0.25000000  1
  K  K6  1  0.50000000  0.00000000  0.51633100  1
  K  K7  1  0.00000000  0.00000000  0.50000000  1
  K  K8  1  0.50000000  0.00000000  0.26090100  1
  K  K9  1  0.00000000  0.00000000  0.75000000  1
  K  K10  1  0.50000000  0.00000000  0.76090100  1
  K  K11  1  0.50000000  0.50000000  0.25000000  1
  K  K12  1  0.00000000  0.50000000  0.73909900  1
  K  K13  1  0.00000000  0.50000000  0.98366900  1
  K  K14  1  0.50000000  0.50000000  0.75000000  1
  K  K15  1  0.50000000  0.50000000  0.50000000  1
  B  B16  1  0.73190900  0.55710300  0.61333100  1
  B  B17  1  0.23190900  0.05710300  0.38666900  1
  B  B18  1  0.05710300  0.23190900  0.11333100  1
  B  B19  1  0.76696100  0.65335100  0.15010300  1
  B  B20  1  0.55710300  0.73190900  0.88666900  1
  B  B21  1  0.13810800  0.24685500  0.35798700  1
  B  B22  1  0.36189200  0.25314500  0.64201300  1
  B  B23  1  0.65335100  0.76696100  0.34989700  1
  B  B24  1  0.26809100  0.55710300  0.11333100  1
  B  B25  1  0.74685500  0.63810800  0.85798700  1
  B  B26  1  0.65335100  0.23303900  0.84989700  1
  B  B27  1  0.05710300  0.76809100  0.61333100  1
  B  B28  1  0.86189200  0.75314500  0.35798700  1
  B  B29  1  0.34664900  0.23303900  0.34989700  1
  B  B30  1  0.63810800  0.25314500  0.14201300  1
  B  B31  1  0.86189200  0.24685500  0.85798700  1
  B  B32  1  0.24685500  0.13810800  0.14201300  1
  B  B33  1  0.34664900  0.76696100  0.84989700  1
  B  B34  1  0.44289700  0.73190900  0.38666900  1
  B  B35  1  0.63810800  0.74685500  0.64201300  1
  B  B36  1  0.55710300  0.26809100  0.38666900  1
  B  B37  1  0.76696100  0.34664900  0.65010300  1
  B  B38  1  0.13810800  0.75314500  0.85798700  1
  B  B39  1  0.26696100  0.15335100  0.84989700  1
  B  B40  1  0.84664900  0.26696100  0.15010300  1
  B  B41  1  0.36189200  0.74685500  0.14201300  1
  B  B42  1  0.84664900  0.73303900  0.65010300  1
  B  B43  1  0.74685500  0.36189200  0.35798700  1
  B  B44  1  0.26809100  0.44289700  0.61333100  1
  B  B45  1  0.26696100  0.84664900  0.34989700  1
  B  B46  1  0.94289700  0.23190900  0.61333100  1
  B  B47  1  0.44289700  0.26809100  0.88666900  1
  B  B48  1  0.23303900  0.34664900  0.15010300  1
  B  B49  1  0.25314500  0.36189200  0.85798700  1
  B  B50  1  0.76809100  0.94289700  0.38666900  1
  B  B51  1  0.15335100  0.73303900  0.15010300  1
  B  B52  1  0.15335100  0.26696100  0.65010300  1
  B  B53  1  0.75314500  0.86189200  0.14201300  1
  B  B54  1  0.73190900  0.44289700  0.11333100  1
  B  B55  1  0.75314500  0.13810800  0.64201300  1
  B  B56  1  0.73303900  0.15335100  0.34989700  1
  B  B57  1  0.73303900  0.84664900  0.84989700  1
  B  B58  1  0.23190900  0.94289700  0.88666900  1
  B  B59  1  0.94289700  0.76809100  0.11333100  1
  B  B60  1  0.24685500  0.86189200  0.64201300  1
  B  B61  1  0.23303900  0.65335100  0.65010300  1
  B  B62  1  0.76809100  0.05710300  0.88666900  1
  B  B63  1  0.25314500  0.63810800  0.35798700  1
  H  H64  1  0.27987200  0.03281900  0.64083100  1
  H  H65  1  0.22012800  0.46718100  0.35916900  1
  H  H66  1  0.46479800  0.76054400  0.99121700  1
  H  H67  1  0.96479800  0.73945600  0.50878300  1
  H  H68  1  0.26054400  0.03520200  0.99121700  1
  H  H69  1  0.53281900  0.77987200  0.14083100  1
  H  H70  1  0.96718100  0.72012800  0.85916900  1
  H  H71  1  0.26054400  0.96479800  0.49121700  1
  H  H72  1  0.46718100  0.77987200  0.64083100  1
  H  H73  1  0.76054400  0.53520200  0.00878300  1
  H  H74  1  0.73945600  0.03520200  0.49121700  1
  H  H75  1  0.23945600  0.46479800  0.00878300  1
  H  H76  1  0.77987200  0.53281900  0.35916900  1
  H  H77  1  0.53520200  0.76054400  0.49121700  1
  H  H78  1  0.73945600  0.96479800  0.99121700  1
  H  H79  1  0.53281900  0.22012800  0.64083100  1
  H  H80  1  0.22012800  0.53281900  0.85916900  1
  H  H81  1  0.23945600  0.53520200  0.50878300  1
  H  H82  1  0.72012800  0.96718100  0.64083100  1
  H  H83  1  0.03281900  0.27987200  0.85916900  1
  H  H84  1  0.03281900  0.72012800  0.35916900  1
  H  H85  1  0.46479800  0.23945600  0.49121700  1
  H  H86  1  0.96479800  0.26054400  0.00878300  1
  H  H87  1  0.27987200  0.96718100  0.14083100  1
  H  H88  1  0.46718100  0.22012800  0.14083100  1
  H  H89  1  0.03520200  0.73945600  0.00878300  1
  H  H90  1  0.53520200  0.23945600  0.99121700  1
  H  H91  1  0.96718100  0.27987200  0.35916900  1
  H  H92  1  0.76054400  0.46479800  0.50878300  1
  H  H93  1  0.72012800  0.03281900  0.14083100  1
  H  H94  1  0.03520200  0.26054400  0.50878300  1
  H  H95  1  0.77987200  0.46718100  0.85916900  1
  O  O96  1  0.70851400  0.44872400  0.65598600  1
  O  O97  1  0.80073500  0.25511500  0.34677800  1
  O  O98  1  0.54295900  0.81923900  0.64332800  1
  O  O99  1  0.20851400  0.05127600  0.84401400  1
  O  O100  1  0.11582700  0.66041900  0.64041100  1
  O  O101  1  0.44872400  0.70851400  0.84401400  1
  O  O102  1  0.76136900  0.04214200  0.97460300  1
  O  O103  1  0.04295900  0.68076100  0.85667200  1
  O  O104  1  0.16041900  0.61582700  0.14041100  1
  O  O105  1  0.66041900  0.11582700  0.85958900  1
  O  O106  1  0.12791600  0.13117800  0.37116100  1
  O  O107  1  0.31923900  0.95704100  0.64332800  1
  O  O108  1  0.37208400  0.36882200  0.62883900  1
  O  O109  1  0.04214200  0.23863100  0.02539700  1
  O  O110  1  0.38417300  0.16041900  0.85958900  1
  O  O111  1  0.94872400  0.20851400  0.15598600  1
  O  O112  1  0.79148600  0.94872400  0.84401400  1
  O  O113  1  0.23863100  0.95785800  0.97460300  1
  O  O114  1  0.81923900  0.45704100  0.35667200  1
  O  O115  1  0.04295900  0.31923900  0.35667200  1
  O  O116  1  0.16041900  0.38417300  0.64041100  1
  O  O117  1  0.11582700  0.33958100  0.14041100  1
  O  O118  1  0.31923900  0.04295900  0.14332800  1
  O  O119  1  0.94872400  0.79148600  0.65598600  1
  O  O120  1  0.70851400  0.55127600  0.15598600  1
  O  O121  1  0.74488500  0.80073500  0.65322200  1
  O  O122  1  0.18076100  0.54295900  0.35667200  1
  O  O123  1  0.88417300  0.33958100  0.64041100  1
  O  O124  1  0.29148600  0.55127600  0.65598600  1
  O  O125  1  0.74488500  0.19926500  0.15322200  1
  O  O126  1  0.24488500  0.69926500  0.84677800  1
  O  O127  1  0.04214200  0.76136900  0.52539700  1
  O  O128  1  0.68076100  0.04295900  0.64332800  1
  O  O129  1  0.19926500  0.25511500  0.84677800  1
  O  O130  1  0.36882200  0.62791600  0.37116100  1
  O  O131  1  0.95704100  0.31923900  0.85667200  1
  O  O132  1  0.45704100  0.18076100  0.64332800  1
  O  O133  1  0.13117800  0.12791600  0.12883900  1
  O  O134  1  0.13117800  0.87208400  0.62883900  1
  O  O135  1  0.68076100  0.95704100  0.14332800  1
  O  O136  1  0.30073500  0.24488500  0.15322200  1
  O  O137  1  0.18076100  0.45704100  0.85667200  1
  O  O138  1  0.55127600  0.70851400  0.34401400  1
  O  O139  1  0.75511500  0.69926500  0.34677800  1
  O  O140  1  0.83958100  0.38417300  0.14041100  1
  O  O141  1  0.61582700  0.83958100  0.85958900  1
  O  O142  1  0.55127600  0.29148600  0.84401400  1
  O  O143  1  0.95785800  0.23863100  0.52539700  1
  O  O144  1  0.05127600  0.20851400  0.65598600  1
  O  O145  1  0.54295900  0.18076100  0.14332800  1
  O  O146  1  0.83958100  0.61582700  0.64041100  1
  O  O147  1  0.23863100  0.04214200  0.47460300  1
  O  O148  1  0.95704100  0.68076100  0.35667200  1
  O  O149  1  0.62791600  0.63117800  0.62883900  1
  O  O150  1  0.88417300  0.66041900  0.14041100  1
  O  O151  1  0.73863100  0.45785800  0.02539700  1
  O  O152  1  0.95785800  0.76136900  0.02539700  1
  O  O153  1  0.73863100  0.54214200  0.52539700  1
  O  O154  1  0.69926500  0.24488500  0.65322200  1
  O  O155  1  0.69926500  0.75511500  0.15322200  1
  O  O156  1  0.33958100  0.11582700  0.35958900  1
  O  O157  1  0.45785800  0.26136900  0.97460300  1
  O  O158  1  0.62791600  0.36882200  0.12883900  1
  O  O159  1  0.75511500  0.30073500  0.84677800  1
  O  O160  1  0.86882200  0.87208400  0.12883900  1
  O  O161  1  0.30073500  0.75511500  0.65322200  1
  O  O162  1  0.66041900  0.88417300  0.35958900  1
  O  O163  1  0.44872400  0.29148600  0.34401400  1
  O  O164  1  0.29148600  0.44872400  0.15598600  1
  O  O165  1  0.76136900  0.95785800  0.47460300  1
  O  O166  1  0.79148600  0.05127600  0.34401400  1
  O  O167  1  0.81923900  0.54295900  0.85667200  1
  O  O168  1  0.87208400  0.13117800  0.87116100  1
  O  O169  1  0.19926500  0.74488500  0.34677800  1
  O  O170  1  0.45704100  0.81923900  0.14332800  1
  O  O171  1  0.61582700  0.16041900  0.35958900  1
  O  O172  1  0.86882200  0.12791600  0.62883900  1
  O  O173  1  0.37208400  0.63117800  0.12883900  1
  O  O174  1  0.45785800  0.73863100  0.47460300  1
  O  O175  1  0.26136900  0.45785800  0.52539700  1
  O  O176  1  0.24488500  0.30073500  0.34677800  1
  O  O177  1  0.25511500  0.19926500  0.65322200  1
  O  O178  1  0.33958100  0.88417300  0.85958900  1
  O  O179  1  0.25511500  0.80073500  0.15322200  1
  O  O180  1  0.36882200  0.37208400  0.87116100  1
  O  O181  1  0.12791600  0.86882200  0.87116100  1
  O  O182  1  0.38417300  0.83958100  0.35958900  1
  O  O183  1  0.05127600  0.79148600  0.15598600  1
  O  O184  1  0.20851400  0.94872400  0.34401400  1
  O  O185  1  0.26136900  0.54214200  0.02539700  1
  O  O186  1  0.54214200  0.73863100  0.97460300  1
  O  O187  1  0.87208400  0.86882200  0.37116100  1
  O  O188  1  0.80073500  0.74488500  0.84677800  1
  O  O189  1  0.63117800  0.62791600  0.87116100  1
  O  O190  1  0.54214200  0.26136900  0.47460300  1
  O  O191  1  0.63117800  0.37208400  0.37116100  1
