# generated using pymatgen
data_Ba2H6Os
_symmetry_space_group_name_H-M   'P 1'
_cell_length_a   8.12369600
_cell_length_b   8.12369600
_cell_length_c   8.12369600
_cell_angle_alpha   90.00000000
_cell_angle_beta   90.00000000
_cell_angle_gamma   90.00000000
_symmetry_Int_Tables_number   1
_chemical_formula_structural   Ba2H6Os
_chemical_formula_sum   'Ba8 H24 Os4'
_cell_volume   536.11874145
_cell_formula_units_Z   4
loop_
 _symmetry_equiv_pos_site_id
 _symmetry_equiv_pos_as_xyz
  1  'x, y, z'
loop_
 _atom_site_type_symbol
 _atom_site_label
 _atom_site_symmetry_multiplicity
 _atom_site_fract_x
 _atom_site_fract_y
 _atom_site_fract_z
 _atom_site_occupancy
  Ba  Ba0  1  0.25000000  0.25000000  0.75000000  1
  Ba  Ba1  1  0.25000000  0.75000000  0.75000000  1
  Ba  Ba2  1  0.25000000  0.75000000  0.25000000  1
  Ba  Ba3  1  0.25000000  0.25000000  0.25000000  1
  Ba  Ba4  1  0.75000000  0.25000000  0.25000000  1
  Ba  Ba5  1  0.75000000  0.75000000  0.25000000  1
  Ba  Ba6  1  0.75000000  0.75000000  0.75000000  1
  Ba  Ba7  1  0.75000000  0.25000000  0.75000000  1
  H  H8  1  0.00000000  0.00000000  0.78533200  1
  H  H9  1  0.50000000  0.71466800  0.00000000  1
  H  H10  1  0.21466800  0.00000000  0.00000000  1
  H  H11  1  0.50000000  0.00000000  0.71466800  1
  H  H12  1  0.50000000  0.28533200  0.00000000  1
  H  H13  1  0.78533200  0.00000000  0.00000000  1
  H  H14  1  0.00000000  0.50000000  0.28533200  1
  H  H15  1  0.50000000  0.21466800  0.50000000  1
  H  H16  1  0.21466800  0.50000000  0.50000000  1
  H  H17  1  0.50000000  0.50000000  0.21466800  1
  H  H18  1  0.50000000  0.78533200  0.50000000  1
  H  H19  1  0.78533200  0.50000000  0.50000000  1
  H  H20  1  0.50000000  0.00000000  0.28533200  1
  H  H21  1  0.00000000  0.71466800  0.50000000  1
  H  H22  1  0.71466800  0.00000000  0.50000000  1
  H  H23  1  0.00000000  0.00000000  0.21466800  1
  H  H24  1  0.00000000  0.28533200  0.50000000  1
  H  H25  1  0.28533200  0.00000000  0.50000000  1
  H  H26  1  0.50000000  0.50000000  0.78533200  1
  H  H27  1  0.00000000  0.21466800  0.00000000  1
  H  H28  1  0.71466800  0.50000000  0.00000000  1
  H  H29  1  0.00000000  0.50000000  0.71466800  1
  H  H30  1  0.00000000  0.78533200  0.00000000  1
  H  H31  1  0.28533200  0.50000000  0.00000000  1
  Os  Os32  1  0.00000000  0.00000000  0.00000000  1
  Os  Os33  1  0.00000000  0.50000000  0.50000000  1
  Os  Os34  1  0.50000000  0.00000000  0.50000000  1
  Os  Os35  1  0.50000000  0.50000000  0.00000000  1
