# generated using pymatgen
data_TePCl9
_symmetry_space_group_name_H-M   'P 1'
_cell_length_a   12.48803800
_cell_length_b   12.55805400
_cell_length_c   17.58167200
_cell_angle_alpha   90.00000000
_cell_angle_beta   90.00000000
_cell_angle_gamma   90.00000000
_symmetry_Int_Tables_number   1
_chemical_formula_structural   TePCl9
_chemical_formula_sum   'Te8 P8 Cl72'
_cell_volume   2757.25372087
_cell_formula_units_Z   8
loop_
 _symmetry_equiv_pos_site_id
 _symmetry_equiv_pos_as_xyz
  1  'x, y, z'
loop_
 _atom_site_type_symbol
 _atom_site_label
 _atom_site_symmetry_multiplicity
 _atom_site_fract_x
 _atom_site_fract_y
 _atom_site_fract_z
 _atom_site_occupancy
  Te  Te0  1  0.59586450  0.00106000  0.75000000  1
  Te  Te1  1  0.97034200  0.92552150  0.25000000  1
  Te  Te2  1  0.90413550  0.50106000  0.75000000  1
  Te  Te3  1  0.52965800  0.42552150  0.25000000  1
  Te  Te4  1  0.09586450  0.50106000  0.25000000  1
  Te  Te5  1  0.47034200  0.42552150  0.75000000  1
  Te  Te6  1  0.40413550  0.00106000  0.25000000  1
  Te  Te7  1  0.02965800  0.92552150  0.75000000  1
  P  P8  1  0.24153650  0.21456900  0.99003500  1
  P  P9  1  0.75846350  0.21456900  0.49003500  1
  P  P10  1  0.75846350  0.21456900  0.00996500  1
  P  P11  1  0.74153650  0.71456900  0.00996500  1
  P  P12  1  0.74153650  0.71456900  0.49003500  1
  P  P13  1  0.25846350  0.71456900  0.99003500  1
  P  P14  1  0.25846350  0.71456900  0.50996500  1
  P  P15  1  0.24153650  0.21456900  0.50996500  1
  Cl  Cl16  1  0.53805600  0.43296650  0.39540850  1
  Cl  Cl17  1  0.80510650  0.82417700  0.25000000  1
  Cl  Cl18  1  0.59701150  0.98744300  0.25000000  1
  Cl  Cl19  1  0.65102050  0.80460500  0.07522400  1
  Cl  Cl20  1  0.53805600  0.43296650  0.10459150  1
  Cl  Cl21  1  0.14898750  0.11074000  0.04202300  1
  Cl  Cl22  1  0.68245500  0.30097750  0.93495250  1
  Cl  Cl23  1  0.61921000  0.59821350  0.25000000  1
  Cl  Cl24  1  0.42596450  0.23093000  0.25000000  1
  Cl  Cl25  1  0.81754500  0.80097750  0.56504750  1
  Cl  Cl26  1  0.15102050  0.30460500  0.92477600  1
  Cl  Cl27  1  0.85101250  0.11074000  0.54202300  1
  Cl  Cl28  1  0.17483000  0.02361850  0.25000000  1
  Cl  Cl29  1  0.96194400  0.93296650  0.39540850  1
  Cl  Cl30  1  0.58597550  0.99642100  0.89485600  1
  Cl  Cl31  1  0.57403550  0.23093000  0.75000000  1
  Cl  Cl32  1  0.84897950  0.30460500  0.42477600  1
  Cl  Cl33  1  0.11736200  0.31146850  0.25000000  1
  Cl  Cl34  1  0.84897950  0.30460500  0.07522400  1
  Cl  Cl35  1  0.88263800  0.31146850  0.75000000  1
  Cl  Cl36  1  0.31754500  0.30097750  0.43495250  1
  Cl  Cl37  1  0.34664800  0.14019950  0.92614450  1
  Cl  Cl38  1  0.88079000  0.09821350  0.25000000  1
  Cl  Cl39  1  0.91402450  0.49642100  0.60514400  1
  Cl  Cl40  1  0.65335200  0.14019950  0.42614450  1
  Cl  Cl41  1  0.91402450  0.49642100  0.89485600  1
  Cl  Cl42  1  0.58597550  0.99642100  0.60514400  1
  Cl  Cl43  1  0.32517000  0.52361850  0.25000000  1
  Cl  Cl44  1  0.64898750  0.61074000  0.95797700  1
  Cl  Cl45  1  0.84664800  0.64019950  0.07385550  1
  Cl  Cl46  1  0.68245500  0.30097750  0.56504750  1
  Cl  Cl47  1  0.85101250  0.11074000  0.95797700  1
  Cl  Cl48  1  0.96194400  0.93296650  0.10459150  1
  Cl  Cl49  1  0.90298850  0.48744300  0.25000000  1
  Cl  Cl50  1  0.69489350  0.32417700  0.25000000  1
  Cl  Cl51  1  0.65335200  0.14019950  0.07385550  1
  Cl  Cl52  1  0.03805600  0.93296650  0.89540850  1
  Cl  Cl53  1  0.30510650  0.32417700  0.75000000  1
  Cl  Cl54  1  0.09701150  0.48744300  0.75000000  1
  Cl  Cl55  1  0.15102050  0.30460500  0.57522400  1
  Cl  Cl56  1  0.03805600  0.93296650  0.60459150  1
  Cl  Cl57  1  0.64898750  0.61074000  0.54202300  1
  Cl  Cl58  1  0.18245500  0.80097750  0.43495250  1
  Cl  Cl59  1  0.11921000  0.09821350  0.75000000  1
  Cl  Cl60  1  0.92596450  0.73093000  0.75000000  1
  Cl  Cl61  1  0.31754500  0.30097750  0.06504750  1
  Cl  Cl62  1  0.65102050  0.80460500  0.42477600  1
  Cl  Cl63  1  0.35101250  0.61074000  0.04202300  1
  Cl  Cl64  1  0.67483000  0.52361850  0.75000000  1
  Cl  Cl65  1  0.46194400  0.43296650  0.89540850  1
  Cl  Cl66  1  0.08597550  0.49642100  0.39485600  1
  Cl  Cl67  1  0.07403550  0.73093000  0.25000000  1
  Cl  Cl68  1  0.34897950  0.80460500  0.92477600  1
  Cl  Cl69  1  0.61736200  0.81146850  0.75000000  1
  Cl  Cl70  1  0.34897950  0.80460500  0.57522400  1
  Cl  Cl71  1  0.38263800  0.81146850  0.25000000  1
  Cl  Cl72  1  0.81754500  0.80097750  0.93495250  1
  Cl  Cl73  1  0.84664800  0.64019950  0.42614450  1
  Cl  Cl74  1  0.38079000  0.59821350  0.75000000  1
  Cl  Cl75  1  0.41402450  0.99642100  0.10514400  1
  Cl  Cl76  1  0.15335200  0.64019950  0.92614450  1
  Cl  Cl77  1  0.41402450  0.99642100  0.39485600  1
  Cl  Cl78  1  0.08597550  0.49642100  0.10514400  1
  Cl  Cl79  1  0.82517000  0.02361850  0.75000000  1
  Cl  Cl80  1  0.14898750  0.11074000  0.45797700  1
  Cl  Cl81  1  0.34664800  0.14019950  0.57385550  1
  Cl  Cl82  1  0.18245500  0.80097750  0.06504750  1
  Cl  Cl83  1  0.35101250  0.61074000  0.45797700  1
  Cl  Cl84  1  0.46194400  0.43296650  0.60459150  1
  Cl  Cl85  1  0.40298850  0.98744300  0.75000000  1
  Cl  Cl86  1  0.19489350  0.82417700  0.75000000  1
  Cl  Cl87  1  0.15335200  0.64019950  0.57385550  1
