# generated using pymatgen
data_TaTeCl9
_symmetry_space_group_name_H-M   'P 1'
_cell_length_a   22.65144600
_cell_length_b   6.68056000
_cell_length_c   20.08940820
_cell_angle_alpha   90.00000000
_cell_angle_beta   106.97726236
_cell_angle_gamma   90.00000000
_symmetry_Int_Tables_number   1
_chemical_formula_structural   TaTeCl9
_chemical_formula_sum   'Ta8 Te8 Cl72'
_cell_volume   2907.53474934
_cell_formula_units_Z   8
loop_
 _symmetry_equiv_pos_site_id
 _symmetry_equiv_pos_as_xyz
  1  'x, y, z'
loop_
 _atom_site_type_symbol
 _atom_site_label
 _atom_site_symmetry_multiplicity
 _atom_site_fract_x
 _atom_site_fract_y
 _atom_site_fract_z
 _atom_site_occupancy
  Ta  Ta0  1  0.64523250  0.20283850  0.37426100  1
  Ta  Ta1  1  0.85476750  0.70283850  0.12573900  1
  Ta  Ta2  1  0.85476750  0.29716150  0.62573900  1
  Ta  Ta3  1  0.64523250  0.79716150  0.87426100  1
  Ta  Ta4  1  0.14523250  0.70283850  0.37426100  1
  Ta  Ta5  1  0.35476750  0.20283850  0.12573900  1
  Ta  Ta6  1  0.35476750  0.79716150  0.62573900  1
  Ta  Ta7  1  0.14523250  0.29716150  0.87426100  1
  Te  Te8  1  0.58186850  0.30290150  0.16014500  1
  Te  Te9  1  0.91813150  0.19709850  0.83985500  1
  Te  Te10  1  0.91813150  0.80290150  0.33985500  1
  Te  Te11  1  0.58186850  0.69709850  0.66014500  1
  Te  Te12  1  0.08186850  0.80290150  0.16014500  1
  Te  Te13  1  0.41813150  0.69709850  0.83985500  1
  Te  Te14  1  0.41813150  0.30290150  0.33985500  1
  Te  Te15  1  0.08186850  0.19709850  0.66014500  1
  Cl  Cl16  1  0.82280150  0.04449550  0.82613000  1
  Cl  Cl17  1  0.97315400  0.07624700  0.40309100  1
  Cl  Cl18  1  0.58651950  0.53453050  0.79450100  1
  Cl  Cl19  1  0.73402850  0.63186650  0.87197500  1
  Cl  Cl20  1  0.86268600  0.87670000  0.03040700  1
  Cl  Cl21  1  0.95432800  0.55060400  0.13973700  1
  Cl  Cl22  1  0.58828400  0.10836100  0.06386500  1
  Cl  Cl23  1  0.73402850  0.36813350  0.37197500  1
  Cl  Cl24  1  0.54567200  0.94939600  0.86026300  1
  Cl  Cl25  1  0.91171600  0.60836100  0.43613500  1
  Cl  Cl26  1  0.82280150  0.95550450  0.32613000  1
  Cl  Cl27  1  0.76597150  0.13186650  0.62802500  1
  Cl  Cl28  1  0.63731400  0.37670000  0.46959300  1
  Cl  Cl29  1  0.67719850  0.45550450  0.17387000  1
  Cl  Cl30  1  0.76597150  0.86813350  0.12802500  1
  Cl  Cl31  1  0.69522200  0.07049800  0.93390400  1
  Cl  Cl32  1  0.58828400  0.89163900  0.56386500  1
  Cl  Cl33  1  0.52684600  0.57624700  0.09690900  1
  Cl  Cl34  1  0.64542150  0.97538750  0.76457800  1
  Cl  Cl35  1  0.64542150  0.02461250  0.26457800  1
  Cl  Cl36  1  0.52684600  0.42375300  0.59690900  1
  Cl  Cl37  1  0.54567200  0.05060400  0.36026300  1
  Cl  Cl38  1  0.85457850  0.47538750  0.73542200  1
  Cl  Cl39  1  0.86268600  0.12330000  0.53040700  1
  Cl  Cl40  1  0.97315400  0.92375300  0.90309100  1
  Cl  Cl41  1  0.63731400  0.62330000  0.96959300  1
  Cl  Cl42  1  0.91348050  0.96546950  0.20549900  1
  Cl  Cl43  1  0.91348050  0.03453050  0.70549900  1
  Cl  Cl44  1  0.95432800  0.44939600  0.63973700  1
  Cl  Cl45  1  0.69522200  0.92950200  0.43390400  1
  Cl  Cl46  1  0.85457850  0.52461250  0.23542200  1
  Cl  Cl47  1  0.80477800  0.57049800  0.56609600  1
  Cl  Cl48  1  0.58651950  0.46546950  0.29450100  1
  Cl  Cl49  1  0.91171600  0.39163900  0.93613500  1
  Cl  Cl50  1  0.80477800  0.42950200  0.06609600  1
  Cl  Cl51  1  0.67719850  0.54449550  0.67387000  1
  Cl  Cl52  1  0.32280150  0.54449550  0.82613000  1
  Cl  Cl53  1  0.47315400  0.57624700  0.40309100  1
  Cl  Cl54  1  0.08651950  0.03453050  0.79450100  1
  Cl  Cl55  1  0.23402850  0.13186650  0.87197500  1
  Cl  Cl56  1  0.36268600  0.37670000  0.03040700  1
  Cl  Cl57  1  0.45432800  0.05060400  0.13973700  1
  Cl  Cl58  1  0.08828400  0.60836100  0.06386500  1
  Cl  Cl59  1  0.23402850  0.86813350  0.37197500  1
  Cl  Cl60  1  0.04567200  0.44939600  0.86026300  1
  Cl  Cl61  1  0.41171600  0.10836100  0.43613500  1
  Cl  Cl62  1  0.32280150  0.45550450  0.32613000  1
  Cl  Cl63  1  0.26597150  0.63186650  0.62802500  1
  Cl  Cl64  1  0.13731400  0.87670000  0.46959300  1
  Cl  Cl65  1  0.17719850  0.95550450  0.17387000  1
  Cl  Cl66  1  0.26597150  0.36813350  0.12802500  1
  Cl  Cl67  1  0.19522200  0.57049800  0.93390400  1
  Cl  Cl68  1  0.08828400  0.39163900  0.56386500  1
  Cl  Cl69  1  0.02684600  0.07624700  0.09690900  1
  Cl  Cl70  1  0.14542150  0.47538750  0.76457800  1
  Cl  Cl71  1  0.14542150  0.52461250  0.26457800  1
  Cl  Cl72  1  0.02684600  0.92375300  0.59690900  1
  Cl  Cl73  1  0.04567200  0.55060400  0.36026300  1
  Cl  Cl74  1  0.35457850  0.97538750  0.73542200  1
  Cl  Cl75  1  0.36268600  0.62330000  0.53040700  1
  Cl  Cl76  1  0.47315400  0.42375300  0.90309100  1
  Cl  Cl77  1  0.13731400  0.12330000  0.96959300  1
  Cl  Cl78  1  0.41348050  0.46546950  0.20549900  1
  Cl  Cl79  1  0.41348050  0.53453050  0.70549900  1
  Cl  Cl80  1  0.45432800  0.94939600  0.63973700  1
  Cl  Cl81  1  0.19522200  0.42950200  0.43390400  1
  Cl  Cl82  1  0.35457850  0.02461250  0.23542200  1
  Cl  Cl83  1  0.30477800  0.07049800  0.56609600  1
  Cl  Cl84  1  0.08651950  0.96546950  0.29450100  1
  Cl  Cl85  1  0.41171600  0.89163900  0.93613500  1
  Cl  Cl86  1  0.30477800  0.92950200  0.06609600  1
  Cl  Cl87  1  0.17719850  0.04449550  0.67387000  1
