# generated using pymatgen
data_K2Be3Zn2F12
_symmetry_space_group_name_H-M   'P 1'
_cell_length_a   10.12767500
_cell_length_b   10.12767500
_cell_length_c   10.12767500
_cell_angle_alpha   90.00000000
_cell_angle_beta   90.00000000
_cell_angle_gamma   90.00000000
_symmetry_Int_Tables_number   1
_chemical_formula_structural   K2Be3Zn2F12
_chemical_formula_sum   'K8 Be12 Zn8 F48'
_cell_volume   1038.79360839
_cell_formula_units_Z   4
loop_
 _symmetry_equiv_pos_site_id
 _symmetry_equiv_pos_as_xyz
  1  'x, y, z'
loop_
 _atom_site_type_symbol
 _atom_site_label
 _atom_site_symmetry_multiplicity
 _atom_site_fract_x
 _atom_site_fract_y
 _atom_site_fract_z
 _atom_site_occupancy
  K  K0  1  0.06290700  0.06290700  0.06290700  1
  K  K1  1  0.43709300  0.93709300  0.56290700  1
  K  K2  1  0.56290700  0.43709300  0.93709300  1
  K  K3  1  0.93709300  0.56290700  0.43709300  1
  K  K4  1  0.29849900  0.29849900  0.29849900  1
  K  K5  1  0.20150100  0.70150100  0.79849900  1
  K  K6  1  0.79849900  0.20150100  0.70150100  1
  K  K7  1  0.70150100  0.79849900  0.20150100  1
  Be  Be8  1  0.62665600  0.46292500  0.27120500  1
  Be  Be9  1  0.87334400  0.53707500  0.77120500  1
  Be  Be10  1  0.37334400  0.96292500  0.22879500  1
  Be  Be11  1  0.12665600  0.03707500  0.72879500  1
  Be  Be12  1  0.96292500  0.22879500  0.37334400  1
  Be  Be13  1  0.72879500  0.12665600  0.03707500  1
  Be  Be14  1  0.22879500  0.37334400  0.96292500  1
  Be  Be15  1  0.53707500  0.77120500  0.87334400  1
  Be  Be16  1  0.77120500  0.87334400  0.53707500  1
  Be  Be17  1  0.03707500  0.72879500  0.12665600  1
  Be  Be18  1  0.46292500  0.27120500  0.62665600  1
  Be  Be19  1  0.27120500  0.62665600  0.46292500  1
  Zn  Zn20  1  0.58439900  0.58439900  0.58439900  1
  Zn  Zn21  1  0.91560100  0.41560100  0.08439900  1
  Zn  Zn22  1  0.08439900  0.91560100  0.41560100  1
  Zn  Zn23  1  0.41560100  0.08439900  0.91560100  1
  Zn  Zn24  1  0.84911000  0.84911000  0.84911000  1
  Zn  Zn25  1  0.65089000  0.15089000  0.34911000  1
  Zn  Zn26  1  0.34911000  0.65089000  0.15089000  1
  Zn  Zn27  1  0.15089000  0.34911000  0.65089000  1
  F  F28  1  0.41650700  0.65673100  0.50019700  1
  F  F29  1  0.42563200  0.81777100  0.23780500  1
  F  F30  1  0.07436800  0.18222900  0.73780500  1
  F  F31  1  0.81777100  0.23780500  0.42563200  1
  F  F32  1  0.97588700  0.44290100  0.70274500  1
  F  F33  1  0.52411300  0.55709900  0.20274500  1
  F  F34  1  0.20274500  0.52411300  0.55709900  1
  F  F35  1  0.55709900  0.20274500  0.52411300  1
  F  F36  1  0.94290100  0.79725500  0.02411300  1
  F  F37  1  0.70274500  0.97588700  0.44290100  1
  F  F38  1  0.44290100  0.70274500  0.97588700  1
  F  F39  1  0.29725500  0.47588700  0.05709900  1
  F  F40  1  0.79725500  0.02411300  0.94290100  1
  F  F41  1  0.05709900  0.29725500  0.47588700  1
  F  F42  1  0.02411300  0.94290100  0.79725500  1
  F  F43  1  0.47588700  0.05709900  0.29725500  1
  F  F44  1  0.65673100  0.50019700  0.41650700  1
  F  F45  1  0.92563200  0.68222900  0.76219500  1
  F  F46  1  0.50019700  0.41650700  0.65673100  1
  F  F47  1  0.99980300  0.58349300  0.15673100  1
  F  F48  1  0.91650700  0.84326900  0.49980300  1
  F  F49  1  0.49980300  0.91650700  0.84326900  1
  F  F50  1  0.08349300  0.34326900  0.00019700  1
  F  F51  1  0.58349300  0.15673100  0.99980300  1
  F  F52  1  0.00019700  0.08349300  0.34326900  1
  F  F53  1  0.15673100  0.99980300  0.58349300  1
  F  F54  1  0.34326900  0.00019700  0.08349300  1
  F  F55  1  0.84326900  0.49980300  0.91650700  1
  F  F56  1  0.75630100  0.48405500  0.19049400  1
  F  F57  1  0.19049400  0.75630100  0.48405500  1
  F  F58  1  0.48405500  0.19049400  0.75630100  1
  F  F59  1  0.01594500  0.80950600  0.25630100  1
  F  F60  1  0.69049400  0.74369900  0.51594500  1
  F  F61  1  0.51594500  0.69049400  0.74369900  1
  F  F62  1  0.30950600  0.24369900  0.98405500  1
  F  F63  1  0.80950600  0.25630100  0.01594500  1
  F  F64  1  0.98405500  0.30950600  0.24369900  1
  F  F65  1  0.25630100  0.01594500  0.80950600  1
  F  F66  1  0.24369900  0.98405500  0.30950600  1
  F  F67  1  0.74369900  0.51594500  0.69049400  1
  F  F68  1  0.57436800  0.31777100  0.26219500  1
  F  F69  1  0.26219500  0.57436800  0.31777100  1
  F  F70  1  0.31777100  0.26219500  0.57436800  1
  F  F71  1  0.18222900  0.73780500  0.07436800  1
  F  F72  1  0.76219500  0.92563200  0.68222900  1
  F  F73  1  0.73780500  0.07436800  0.18222900  1
  F  F74  1  0.23780500  0.42563200  0.81777100  1
  F  F75  1  0.68222900  0.76219500  0.92563200  1
