# generated using pymatgen
data_NaCaFe2(SiO3)4
_symmetry_space_group_name_H-M   'P 1'
_cell_length_a   9.87312572
_cell_length_b   9.02331662
_cell_length_c   5.35659154
_cell_angle_alpha   90.00000000
_cell_angle_beta   106.63964911
_cell_angle_gamma   90.00000000
_symmetry_Int_Tables_number   1
_chemical_formula_structural   NaCaFe2(SiO3)4
_chemical_formula_sum   'Na2 Ca2 Fe4 Si8 O24'
_cell_volume   457.22651416
_cell_formula_units_Z   2
loop_
 _symmetry_equiv_pos_site_id
 _symmetry_equiv_pos_as_xyz
  1  'x, y, z'
loop_
 _atom_site_type_symbol
 _atom_site_label
 _atom_site_symmetry_multiplicity
 _atom_site_fract_x
 _atom_site_fract_y
 _atom_site_fract_z
 _atom_site_occupancy
  Na  Na0  1  0.00000000  0.30028300  0.50000000  1
  Na  Na1  1  0.50000000  0.80028300  0.50000000  1
  Ca  Ca2  1  0.00000000  0.69970000  0.00000000  1
  Ca  Ca3  1  0.50000000  0.19970000  0.00000000  1
  Fe  Fe4  1  0.00000000  0.10217400  0.00000000  1
  Fe  Fe5  1  0.00000000  0.90706450  0.50000000  1
  Fe  Fe6  1  0.50000000  0.60217400  0.00000000  1
  Fe  Fe7  1  0.50000000  0.40706450  0.50000000  1
  Si  Si8  1  0.21223100  0.58982700  0.51939400  1
  Si  Si9  1  0.78776900  0.58982700  0.48060600  1
  Si  Si10  1  0.21078600  0.40825800  0.01210200  1
  Si  Si11  1  0.78921400  0.40825800  0.98789800  1
  Si  Si12  1  0.71223100  0.08982700  0.51939400  1
  Si  Si13  1  0.28776900  0.08982700  0.48060600  1
  Si  Si14  1  0.71078600  0.90825800  0.01210200  1
  Si  Si15  1  0.28921400  0.90825800  0.98789800  1
  O  O16  1  0.85350900  0.51510000  0.25293400  1
  O  O17  1  0.14649100  0.51510000  0.74706600  1
  O  O18  1  0.13722400  0.74650000  0.42983300  1
  O  O19  1  0.86277600  0.74650000  0.57016700  1
  O  O20  1  0.38490600  0.58544100  0.62070300  1
  O  O21  1  0.61509400  0.58544100  0.37929700  1
  O  O22  1  0.84596050  0.48707350  0.75460900  1
  O  O23  1  0.15403950  0.48707350  0.24539100  1
  O  O24  1  0.13879150  0.24722650  0.93948800  1
  O  O25  1  0.86120850  0.24722650  0.06051200  1
  O  O26  1  0.38316900  0.41593300  0.09071100  1
  O  O27  1  0.61683100  0.41593300  0.90928900  1
  O  O28  1  0.35350900  0.01510000  0.25293400  1
  O  O29  1  0.64649100  0.01510000  0.74706600  1
  O  O30  1  0.63722400  0.24650000  0.42983300  1
  O  O31  1  0.36277600  0.24650000  0.57016700  1
  O  O32  1  0.88490600  0.08544100  0.62070300  1
  O  O33  1  0.11509400  0.08544100  0.37929700  1
  O  O34  1  0.34596050  0.98707350  0.75460900  1
  O  O35  1  0.65403950  0.98707350  0.24539100  1
  O  O36  1  0.63879150  0.74722650  0.93948800  1
  O  O37  1  0.36120850  0.74722650  0.06051200  1
  O  O38  1  0.88316900  0.91593300  0.09071100  1
  O  O39  1  0.11683100  0.91593300  0.90928900  1
