# generated using pymatgen
data_K2ErTi(PO4)3
_symmetry_space_group_name_H-M   'P 1'
_cell_length_a   10.27808000
_cell_length_b   10.27808000
_cell_length_c   10.27808000
_cell_angle_alpha   90.00000000
_cell_angle_beta   90.00000000
_cell_angle_gamma   90.00000000
_symmetry_Int_Tables_number   1
_chemical_formula_structural   K2ErTi(PO4)3
_chemical_formula_sum   'K8 Er4 Ti4 P12 O48'
_cell_volume   1085.76535810
_cell_formula_units_Z   4
loop_
 _symmetry_equiv_pos_site_id
 _symmetry_equiv_pos_as_xyz
  1  'x, y, z'
loop_
 _atom_site_type_symbol
 _atom_site_label
 _atom_site_symmetry_multiplicity
 _atom_site_fract_x
 _atom_site_fract_y
 _atom_site_fract_z
 _atom_site_occupancy
  K  K0  1  0.04517400  0.54517400  0.95482600  1
  K  K1  1  0.18056700  0.81943300  0.31943300  1
  K  K2  1  0.31943300  0.18056700  0.81943300  1
  K  K3  1  0.45482600  0.45482600  0.45482600  1
  K  K4  1  0.54517400  0.95482600  0.04517400  1
  K  K5  1  0.68056700  0.68056700  0.68056700  1
  K  K6  1  0.81943300  0.31943300  0.18056700  1
  K  K7  1  0.95482600  0.04517400  0.54517400  1
  Er  Er8  1  0.16578400  0.16578400  0.16578400  1
  Er  Er9  1  0.33421600  0.83421600  0.66578400  1
  Er  Er10  1  0.66578400  0.33421600  0.83421600  1
  Er  Er11  1  0.83421600  0.66578400  0.33421600  1
  Ti  Ti12  1  0.10660700  0.39339300  0.60660700  1
  Ti  Ti13  1  0.39339300  0.60660700  0.10660700  1
  Ti  Ti14  1  0.60660700  0.10660700  0.39339300  1
  Ti  Ti15  1  0.89339300  0.89339300  0.89339300  1
  P  P16  1  0.01358600  0.70764100  0.63097600  1
  P  P17  1  0.13097600  0.48641400  0.29235900  1
  P  P18  1  0.20764100  0.86902400  0.98641400  1
  P  P19  1  0.29235900  0.13097600  0.48641400  1
  P  P20  1  0.36902400  0.51358600  0.79235900  1
  P  P21  1  0.48641400  0.29235900  0.13097600  1
  P  P22  1  0.51358600  0.79235900  0.36902400  1
  P  P23  1  0.63097600  0.01358600  0.70764100  1
  P  P24  1  0.70764100  0.63097600  0.01358600  1
  P  P25  1  0.79235900  0.36902400  0.51358600  1
  P  P26  1  0.86902400  0.98641400  0.20764100  1
  P  P27  1  0.98641400  0.20764100  0.86902400  1
  O  O28  1  0.01650300  0.57789600  0.26752900  1
  O  O29  1  0.01685600  0.55984500  0.66698200  1
  O  O30  1  0.04473300  0.28710600  0.75147500  1
  O  O31  1  0.07789600  0.23247100  0.98349700  1
  O  O32  1  0.05984500  0.83301800  0.98314400  1
  O  O33  1  0.09851900  0.35073700  0.24323300  1
  O  O34  1  0.14926300  0.75676700  0.59851900  1
  O  O35  1  0.16698200  0.48314400  0.44015500  1
  O  O36  1  0.21289400  0.24852500  0.54473300  1
  O  O37  1  0.23247100  0.98349700  0.07789600  1
  O  O38  1  0.24852500  0.54473300  0.21289400  1
  O  O39  1  0.24323300  0.09851900  0.35073700  1
  O  O40  1  0.25676700  0.90148100  0.85073700  1
  O  O41  1  0.25147500  0.45526700  0.71289400  1
  O  O42  1  0.26752900  0.01650300  0.57789600  1
  O  O43  1  0.28710600  0.75147500  0.04473300  1
  O  O44  1  0.33301800  0.51685600  0.94015500  1
  O  O45  1  0.35073700  0.24323300  0.09851900  1
  O  O46  1  0.40148100  0.64926300  0.74323300  1
  O  O47  1  0.44015500  0.16698200  0.48314400  1
  O  O48  1  0.42210400  0.76752900  0.48349700  1
  O  O49  1  0.45526700  0.71289400  0.25147500  1
  O  O50  1  0.48314400  0.44015500  0.16698200  1
  O  O51  1  0.48349700  0.42210400  0.76752900  1
  O  O52  1  0.51650300  0.92210400  0.73247100  1
  O  O53  1  0.51685600  0.94015500  0.33301800  1
  O  O54  1  0.54473300  0.21289400  0.24852500  1
  O  O55  1  0.57789600  0.26752900  0.01650300  1
  O  O56  1  0.55984500  0.66698200  0.01685600  1
  O  O57  1  0.59851900  0.14926300  0.75676700  1
  O  O58  1  0.64926300  0.74323300  0.40148100  1
  O  O59  1  0.66698200  0.01685600  0.55984500  1
  O  O60  1  0.71289400  0.25147500  0.45526700  1
  O  O61  1  0.73247100  0.51650300  0.92210400  1
  O  O62  1  0.74852500  0.95526700  0.78710600  1
  O  O63  1  0.74323300  0.40148100  0.64926300  1
  O  O64  1  0.75676700  0.59851900  0.14926300  1
  O  O65  1  0.75147500  0.04473300  0.28710600  1
  O  O66  1  0.76752900  0.48349700  0.42210400  1
  O  O67  1  0.78710600  0.74852500  0.95526700  1
  O  O68  1  0.83301800  0.98314400  0.05984500  1
  O  O69  1  0.85073700  0.25676700  0.90148100  1
  O  O70  1  0.90148100  0.85073700  0.25676700  1
  O  O71  1  0.94015500  0.33301800  0.51685600  1
  O  O72  1  0.92210400  0.73247100  0.51650300  1
  O  O73  1  0.95526700  0.78710600  0.74852500  1
  O  O74  1  0.98314400  0.05984500  0.83301800  1
  O  O75  1  0.98349700  0.07789600  0.23247100  1
