# generated using pymatgen
data_H7ClO3
_symmetry_space_group_name_H-M   'P 1'
_cell_length_a   7.60624600
_cell_length_b   10.32276600
_cell_length_c   6.78989888
_cell_angle_alpha   90.00000000
_cell_angle_beta   123.76612076
_cell_angle_gamma   90.00000000
_symmetry_Int_Tables_number   1
_chemical_formula_structural   H7ClO3
_chemical_formula_sum   'H28 Cl4 O12'
_cell_volume   443.19460626
_cell_formula_units_Z   4
loop_
 _symmetry_equiv_pos_site_id
 _symmetry_equiv_pos_as_xyz
  1  'x, y, z'
loop_
 _atom_site_type_symbol
 _atom_site_label
 _atom_site_symmetry_multiplicity
 _atom_site_fract_x
 _atom_site_fract_y
 _atom_site_fract_z
 _atom_site_occupancy
  H  H0  1  0.19326350  0.01397250  0.55124200  1
  H  H1  1  0.20638550  0.12291950  0.39700900  1
  H  H2  1  0.19326350  0.98602750  0.05124200  1
  H  H3  1  0.20638550  0.87708050  0.89700900  1
  H  H4  1  0.75394300  0.06151500  0.75612800  1
  H  H5  1  0.49585500  0.03534600  0.61718200  1
  H  H6  1  0.49585500  0.96465400  0.11718200  1
  H  H7  1  0.75394300  0.93848500  0.25612800  1
  H  H8  1  0.27703950  0.22310650  0.74121900  1
  H  H9  1  0.68240800  0.90379000  0.72453500  1
  H  H10  1  0.67258000  0.74764400  0.88636700  1
  H  H11  1  0.27703950  0.77689350  0.24121900  1
  H  H12  1  0.68240800  0.09621000  0.22453500  1
  H  H13  1  0.67258000  0.25235600  0.38636700  1
  H  H14  1  0.69326350  0.51397250  0.55124200  1
  H  H15  1  0.70638550  0.62291950  0.39700900  1
  H  H16  1  0.69326350  0.48602750  0.05124200  1
  H  H17  1  0.70638550  0.37708050  0.89700900  1
  H  H18  1  0.25394300  0.56151500  0.75612800  1
  H  H19  1  0.99585500  0.53534600  0.61718200  1
  H  H20  1  0.99585500  0.46465400  0.11718200  1
  H  H21  1  0.25394300  0.43848500  0.25612800  1
  H  H22  1  0.77703950  0.72310650  0.74121900  1
  H  H23  1  0.18240800  0.40379000  0.72453500  1
  H  H24  1  0.17258000  0.24764400  0.88636700  1
  H  H25  1  0.77703950  0.27689350  0.24121900  1
  H  H26  1  0.18240800  0.59621000  0.22453500  1
  H  H27  1  0.17258000  0.75235600  0.38636700  1
  Cl  Cl28  1  0.51830000  0.35113800  0.51796200  1
  Cl  Cl29  1  0.51830000  0.64886200  0.01796200  1
  Cl  Cl30  1  0.01830000  0.85113800  0.51796200  1
  Cl  Cl31  1  0.01830000  0.14886200  0.01796200  1
  O  O32  1  0.28325650  0.08778850  0.56118700  1
  O  O33  1  0.28325650  0.91221150  0.06118700  1
  O  O34  1  0.63547800  0.00143300  0.64282300  1
  O  O35  1  0.63547800  0.99856700  0.14282300  1
  O  O36  1  0.76014300  0.78887800  0.83624700  1
  O  O37  1  0.76014300  0.21112200  0.33624700  1
  O  O38  1  0.78325650  0.58778850  0.56118700  1
  O  O39  1  0.78325650  0.41221150  0.06118700  1
  O  O40  1  0.13547800  0.50143300  0.64282300  1
  O  O41  1  0.13547800  0.49856700  0.14282300  1
  O  O42  1  0.26014300  0.28887800  0.83624700  1
  O  O43  1  0.26014300  0.71112200  0.33624700  1
