# generated using pymatgen
data_SbH3C2(O2F3)2
_symmetry_space_group_name_H-M   'P 1'
_cell_length_a   12.99471800
_cell_length_b   9.14609000
_cell_length_c   8.60192270
_cell_angle_alpha   90.00000000
_cell_angle_beta   131.11226937
_cell_angle_gamma   90.00000000
_symmetry_Int_Tables_number   1
_chemical_formula_structural   SbH3C2(O2F3)2
_chemical_formula_sum   'Sb4 H12 C8 O16 F24'
_cell_volume   770.25852039
_cell_formula_units_Z   4
loop_
 _symmetry_equiv_pos_site_id
 _symmetry_equiv_pos_as_xyz
  1  'x, y, z'
loop_
 _atom_site_type_symbol
 _atom_site_label
 _atom_site_symmetry_multiplicity
 _atom_site_fract_x
 _atom_site_fract_y
 _atom_site_fract_z
 _atom_site_occupancy
  Sb  Sb0  1  0.00076450  0.85559950  0.49971600  1
  Sb  Sb1  1  0.50076450  0.64440050  0.99971600  1
  Sb  Sb2  1  0.50076450  0.35559950  0.49971600  1
  Sb  Sb3  1  0.00076450  0.14440050  0.99971600  1
  H  H4  1  0.18147550  0.74716050  0.38714800  1
  H  H5  1  0.68147550  0.75283950  0.88714800  1
  H  H6  1  0.26298500  0.63830400  0.04437400  1
  H  H7  1  0.26298500  0.36169600  0.54437400  1
  H  H8  1  0.38971350  0.00439050  0.46802300  1
  H  H9  1  0.38971350  0.99560950  0.96802300  1
  H  H10  1  0.68147550  0.24716050  0.38714800  1
  H  H11  1  0.18147550  0.25283950  0.88714800  1
  H  H12  1  0.76298500  0.13830400  0.04437400  1
  H  H13  1  0.76298500  0.86169600  0.54437400  1
  H  H14  1  0.88971350  0.50439050  0.46802300  1
  H  H15  1  0.88971350  0.49560950  0.96802300  1
  C  C16  1  0.22834600  0.70347600  0.21911100  1
  C  C17  1  0.72834600  0.79652400  0.71911100  1
  C  C18  1  0.32540100  0.83562900  0.29417500  1
  C  C19  1  0.32540100  0.16437100  0.79417500  1
  C  C20  1  0.72834600  0.20347600  0.21911100  1
  C  C21  1  0.22834600  0.29652400  0.71911100  1
  C  C22  1  0.82540100  0.33562900  0.29417500  1
  C  C23  1  0.82540100  0.66437100  0.79417500  1
  O  O24  1  0.16392600  0.67673500  0.28149000  1
  O  O25  1  0.66392600  0.82326500  0.78149000  1
  O  O26  1  0.20853850  0.61457850  0.08748800  1
  O  O27  1  0.20853850  0.38542150  0.58748800  1
  O  O28  1  0.33064850  0.91644350  0.42653200  1
  O  O29  1  0.33064850  0.08355650  0.92653200  1
  O  O30  1  0.88405450  0.35270550  0.22893700  1
  O  O31  1  0.38405450  0.14729450  0.72893700  1
  O  O32  1  0.66392600  0.17673500  0.28149000  1
  O  O33  1  0.16392600  0.32326500  0.78149000  1
  O  O34  1  0.70853850  0.11457850  0.08748800  1
  O  O35  1  0.70853850  0.88542150  0.58748800  1
  O  O36  1  0.83064850  0.41644350  0.42653200  1
  O  O37  1  0.83064850  0.58355650  0.92653200  1
  O  O38  1  0.38405450  0.85270550  0.22893700  1
  O  O39  1  0.88405450  0.64729450  0.72893700  1
  F  F40  1  0.90085400  0.85688800  0.21054000  1
  F  F41  1  0.40085400  0.64311200  0.71054000  1
  F  F42  1  0.10505700  0.85450300  0.78927200  1
  F  F43  1  0.60505700  0.64549700  0.28927200  1
  F  F44  1  0.16697800  0.83640600  0.54283800  1
  F  F45  1  0.66697800  0.66359400  0.04283800  1
  F  F46  1  0.32908800  0.37461900  0.44121400  1
  F  F47  1  0.32908800  0.62538100  0.94121400  1
  F  F48  1  0.51155950  0.56412650  0.50427500  1
  F  F49  1  0.01155950  0.93587350  0.00427500  1
  F  F50  1  0.98681000  0.64608200  0.49366400  1
  F  F51  1  0.48681000  0.85391800  0.99366400  1
  F  F52  1  0.40085400  0.35688800  0.21054000  1
  F  F53  1  0.90085400  0.14311200  0.71054000  1
  F  F54  1  0.60505700  0.35450300  0.78927200  1
  F  F55  1  0.10505700  0.14549700  0.28927200  1
  F  F56  1  0.66697800  0.33640600  0.54283800  1
  F  F57  1  0.16697800  0.16359400  0.04283800  1
  F  F58  1  0.82908800  0.87461900  0.44121400  1
  F  F59  1  0.82908800  0.12538100  0.94121400  1
  F  F60  1  0.01155950  0.06412650  0.50427500  1
  F  F61  1  0.51155950  0.43587350  0.00427500  1
  F  F62  1  0.48681000  0.14608200  0.49366400  1
  F  F63  1  0.98681000  0.35391800  0.99366400  1
