# generated using pymatgen
data_Mg2Al4Si5O18
_symmetry_space_group_name_H-M   'P 1'
_cell_length_a   9.83024000
_cell_length_b   17.26716800
_cell_length_c   9.44016000
_cell_angle_alpha   90.00000000
_cell_angle_beta   90.00000000
_cell_angle_gamma   90.00000000
_symmetry_Int_Tables_number   1
_chemical_formula_structural   Mg2Al4Si5O18
_chemical_formula_sum   'Mg8 Al16 Si20 O72'
_cell_volume   1602.37658695
_cell_formula_units_Z   4
loop_
 _symmetry_equiv_pos_site_id
 _symmetry_equiv_pos_as_xyz
  1  'x, y, z'
loop_
 _atom_site_type_symbol
 _atom_site_label
 _atom_site_symmetry_multiplicity
 _atom_site_fract_x
 _atom_site_fract_y
 _atom_site_fract_z
 _atom_site_occupancy
  Mg  Mg0  1  0.50000000  0.16253100  0.75000000  1
  Mg  Mg1  1  0.00000000  0.33746900  0.75000000  1
  Mg  Mg2  1  0.00000000  0.33746900  0.25000000  1
  Mg  Mg3  1  0.50000000  0.16253100  0.25000000  1
  Mg  Mg4  1  0.00000000  0.66253100  0.75000000  1
  Mg  Mg5  1  0.50000000  0.83746900  0.75000000  1
  Mg  Mg6  1  0.50000000  0.83746900  0.25000000  1
  Mg  Mg7  1  0.00000000  0.66253100  0.25000000  1
  Al  Al8  1  0.25000000  0.25000000  0.74992400  1
  Al  Al9  1  0.75000000  0.25000000  0.75007600  1
  Al  Al10  1  0.75000000  0.25000000  0.24992400  1
  Al  Al11  1  0.25000000  0.25000000  0.25007600  1
  Al  Al12  1  0.30800100  0.05038600  0.00000000  1
  Al  Al13  1  0.19199900  0.44961400  0.00000000  1
  Al  Al14  1  0.80800100  0.44961400  0.50000000  1
  Al  Al15  1  0.69199900  0.05038600  0.50000000  1
  Al  Al16  1  0.75000000  0.75000000  0.74992400  1
  Al  Al17  1  0.25000000  0.75000000  0.75007600  1
  Al  Al18  1  0.25000000  0.75000000  0.24992400  1
  Al  Al19  1  0.75000000  0.75000000  0.25007600  1
  Al  Al20  1  0.80800100  0.55038600  0.00000000  1
  Al  Al21  1  0.69199900  0.94961400  0.00000000  1
  Al  Al22  1  0.30800100  0.94961400  0.50000000  1
  Al  Al23  1  0.19199900  0.55038600  0.50000000  1
  Si  Si24  1  0.42129850  0.30781050  0.00000000  1
  Si  Si25  1  0.07870150  0.19218950  0.00000000  1
  Si  Si26  1  0.57870150  0.30781050  0.50000000  1
  Si  Si27  1  0.92129850  0.19218950  0.50000000  1
  Si  Si28  1  0.50000000  0.00000000  0.25000000  1
  Si  Si29  1  0.50000000  0.00000000  0.75000000  1
  Si  Si30  1  0.26318350  0.36472250  0.50000000  1
  Si  Si31  1  0.23681650  0.13527750  0.50000000  1
  Si  Si32  1  0.76318350  0.13527750  0.00000000  1
  Si  Si33  1  0.73681650  0.36472250  0.00000000  1
  Si  Si34  1  0.92129850  0.80781050  0.00000000  1
  Si  Si35  1  0.57870150  0.69218950  0.00000000  1
  Si  Si36  1  0.07870150  0.80781050  0.50000000  1
  Si  Si37  1  0.42129850  0.69218950  0.50000000  1
  Si  Si38  1  0.00000000  0.50000000  0.25000000  1
  Si  Si39  1  0.00000000  0.50000000  0.75000000  1
  Si  Si40  1  0.76318350  0.86472250  0.50000000  1
  Si  Si41  1  0.73681650  0.63527750  0.50000000  1
  Si  Si42  1  0.26318350  0.63527750  0.00000000  1
  Si  Si43  1  0.23681650  0.86472250  0.00000000  1
  O  O44  1  0.41626000  0.06246700  0.84893800  1
  O  O45  1  0.31002300  0.17343400  0.35819500  1
  O  O46  1  0.81002300  0.32656600  0.85819500  1
  O  O47  1  0.68997700  0.17343400  0.85819500  1
  O  O48  1  0.57879400  0.33578800  0.00000000  1
  O  O49  1  0.92120600  0.16421200  0.00000000  1
  O  O50  1  0.07879400  0.16421200  0.50000000  1
  O  O51  1  0.42120600  0.33578800  0.50000000  1
  O  O52  1  0.74846350  0.45655850  0.00000000  1
  O  O53  1  0.75153650  0.04344150  0.00000000  1
  O  O54  1  0.24846350  0.04344150  0.50000000  1
  O  O55  1  0.25153650  0.45655850  0.50000000  1
  O  O56  1  0.18517400  0.12198100  0.00000000  1
  O  O57  1  0.31482600  0.37801900  0.00000000  1
  O  O58  1  0.68517400  0.37801900  0.50000000  1
  O  O59  1  0.81482600  0.12198100  0.50000000  1
  O  O60  1  0.68997700  0.17343400  0.14180500  1
  O  O61  1  0.81002300  0.32656600  0.14180500  1
  O  O62  1  0.89702550  0.24712450  0.64151200  1
  O  O63  1  0.31002300  0.17343400  0.64180500  1
  O  O64  1  0.39702550  0.25287550  0.85848800  1
  O  O65  1  0.10297450  0.24712450  0.85848800  1
  O  O66  1  0.60297450  0.25287550  0.35848800  1
  O  O67  1  0.89702550  0.24712450  0.35848800  1
  O  O68  1  0.10297450  0.24712450  0.14151200  1
  O  O69  1  0.39702550  0.25287550  0.14151200  1
  O  O70  1  0.58374000  0.06246700  0.65106200  1
  O  O71  1  0.91626000  0.43753300  0.65106200  1
  O  O72  1  0.08374000  0.43753300  0.84893800  1
  O  O73  1  0.60297450  0.25287550  0.64151200  1
  O  O74  1  0.91626000  0.43753300  0.34893800  1
  O  O75  1  0.58374000  0.06246700  0.34893800  1
  O  O76  1  0.41626000  0.06246700  0.15106200  1
  O  O77  1  0.08374000  0.43753300  0.15106200  1
  O  O78  1  0.18997700  0.32656600  0.64180500  1
  O  O79  1  0.18997700  0.32656600  0.35819500  1
  O  O80  1  0.91626000  0.56246700  0.84893800  1
  O  O81  1  0.81002300  0.67343400  0.35819500  1
  O  O82  1  0.31002300  0.82656600  0.85819500  1
  O  O83  1  0.18997700  0.67343400  0.85819500  1
  O  O84  1  0.07879400  0.83578800  0.00000000  1
  O  O85  1  0.42120600  0.66421200  0.00000000  1
  O  O86  1  0.57879400  0.66421200  0.50000000  1
  O  O87  1  0.92120600  0.83578800  0.50000000  1
  O  O88  1  0.24846350  0.95655850  0.00000000  1
  O  O89  1  0.25153650  0.54344150  0.00000000  1
  O  O90  1  0.74846350  0.54344150  0.50000000  1
  O  O91  1  0.75153650  0.95655850  0.50000000  1
  O  O92  1  0.68517400  0.62198100  0.00000000  1
  O  O93  1  0.81482600  0.87801900  0.00000000  1
  O  O94  1  0.18517400  0.87801900  0.50000000  1
  O  O95  1  0.31482600  0.62198100  0.50000000  1
  O  O96  1  0.18997700  0.67343400  0.14180500  1
  O  O97  1  0.31002300  0.82656600  0.14180500  1
  O  O98  1  0.39702550  0.74712450  0.64151200  1
  O  O99  1  0.81002300  0.67343400  0.64180500  1
  O  O100  1  0.89702550  0.75287550  0.85848800  1
  O  O101  1  0.60297450  0.74712450  0.85848800  1
  O  O102  1  0.10297450  0.75287550  0.35848800  1
  O  O103  1  0.39702550  0.74712450  0.35848800  1
  O  O104  1  0.60297450  0.74712450  0.14151200  1
  O  O105  1  0.89702550  0.75287550  0.14151200  1
  O  O106  1  0.08374000  0.56246700  0.65106200  1
  O  O107  1  0.41626000  0.93753300  0.65106200  1
  O  O108  1  0.58374000  0.93753300  0.84893800  1
  O  O109  1  0.10297450  0.75287550  0.64151200  1
  O  O110  1  0.41626000  0.93753300  0.34893800  1
  O  O111  1  0.08374000  0.56246700  0.34893800  1
  O  O112  1  0.91626000  0.56246700  0.15106200  1
  O  O113  1  0.58374000  0.93753300  0.15106200  1
  O  O114  1  0.68997700  0.82656600  0.64180500  1
  O  O115  1  0.68997700  0.82656600  0.35819500  1
