# generated using pymatgen
data_ReO2F3
_symmetry_space_group_name_H-M   'P 1'
_cell_length_a   9.44710900
_cell_length_b   10.19722600
_cell_length_c   15.78043437
_cell_angle_alpha   90.00000000
_cell_angle_beta   95.24413604
_cell_angle_gamma   90.00000000
_symmetry_Int_Tables_number   1
_chemical_formula_structural   ReO2F3
_chemical_formula_sum   'Re16 O32 F48'
_cell_volume   1513.83407664
_cell_formula_units_Z   16
loop_
 _symmetry_equiv_pos_site_id
 _symmetry_equiv_pos_as_xyz
  1  'x, y, z'
loop_
 _atom_site_type_symbol
 _atom_site_label
 _atom_site_symmetry_multiplicity
 _atom_site_fract_x
 _atom_site_fract_y
 _atom_site_fract_z
 _atom_site_occupancy
  Re  Re0  1  0.75309200  0.16401600  0.95452900  1
  Re  Re1  1  0.55109500  0.82280500  0.25675700  1
  Re  Re2  1  0.94890500  0.32280500  0.74324300  1
  Re  Re3  1  0.04431200  0.18214600  0.24815100  1
  Re  Re4  1  0.80174500  0.16295100  0.45743600  1
  Re  Re5  1  0.44890500  0.17719500  0.74324300  1
  Re  Re6  1  0.54431200  0.31785400  0.24815100  1
  Re  Re7  1  0.30174500  0.33704900  0.45743600  1
  Re  Re8  1  0.74690800  0.66401600  0.04547100  1
  Re  Re9  1  0.95568800  0.81785400  0.75184900  1
  Re  Re10  1  0.25309200  0.33598400  0.95452900  1
  Re  Re11  1  0.05109500  0.67719500  0.25675700  1
  Re  Re12  1  0.45568800  0.68214600  0.75184900  1
  Re  Re13  1  0.24690800  0.83598400  0.04547100  1
  Re  Re14  1  0.19825500  0.83704900  0.54256400  1
  Re  Re15  1  0.69825500  0.66295100  0.54256400  1
  O  O16  1  0.11246300  0.78700000  0.97263600  1
  O  O17  1  0.96023500  0.59780000  0.32990800  1
  O  O18  1  0.42729700  0.37870400  0.53750500  1
  O  O19  1  0.35584800  0.73333100  0.83042100  1
  O  O20  1  0.41515300  0.40901600  0.19389300  1
  O  O21  1  0.19415000  0.73900900  0.31724900  1
  O  O22  1  0.91515300  0.09098400  0.19389300  1
  O  O23  1  0.46023500  0.90220000  0.32990800  1
  O  O24  1  0.65293600  0.18357100  0.51001000  1
  O  O25  1  0.08484700  0.90901600  0.80610700  1
  O  O26  1  0.61246300  0.71300000  0.97263600  1
  O  O27  1  0.84706400  0.68357100  0.48999000  1
  O  O28  1  0.85584800  0.76666900  0.83042100  1
  O  O29  1  0.88753700  0.21300000  0.02736400  1
  O  O30  1  0.36326100  0.90913700  0.98372000  1
  O  O31  1  0.80585000  0.26099100  0.68275100  1
  O  O32  1  0.14415200  0.23333100  0.16957900  1
  O  O33  1  0.07270300  0.87870400  0.46249500  1
  O  O34  1  0.64415200  0.26666900  0.16957900  1
  O  O35  1  0.13673900  0.40913700  0.01628000  1
  O  O36  1  0.30585000  0.23900900  0.68275100  1
  O  O37  1  0.34706400  0.81642900  0.48999000  1
  O  O38  1  0.86326100  0.59086300  0.98372000  1
  O  O39  1  0.63673900  0.09086300  0.01628000  1
  O  O40  1  0.53976500  0.09780000  0.67009200  1
  O  O41  1  0.58484700  0.59098400  0.80610700  1
  O  O42  1  0.69415000  0.76099100  0.31724900  1
  O  O43  1  0.92729700  0.12129600  0.53750500  1
  O  O44  1  0.38753700  0.28700000  0.02736400  1
  O  O45  1  0.57270300  0.62129600  0.46249500  1
  O  O46  1  0.15293600  0.31642900  0.51001000  1
  O  O47  1  0.03976500  0.40220000  0.67009200  1
  F  F48  1  0.66032300  0.45500500  0.29220600  1
  F  F49  1  0.23779900  0.00563100  0.58590300  1
  F  F50  1  0.13037000  0.76026000  0.14473500  1
  F  F51  1  0.33508200  0.48963700  0.91564500  1
  F  F52  1  0.16032300  0.04499500  0.29220600  1
  F  F53  1  0.81539400  0.70784900  0.66178500  1
  F  F54  1  0.88833300  0.62462800  0.15731400  1
  F  F55  1  0.05563200  0.16774300  0.75225900  1
  F  F56  1  0.18460600  0.29215100  0.33821500  1
  F  F57  1  0.86963000  0.23974000  0.85526500  1
  F  F58  1  0.65023700  0.84022300  0.55234400  1
  F  F59  1  0.86283600  0.46879000  0.78876300  1
  F  F60  1  0.83508200  0.01036300  0.91564500  1
  F  F61  1  0.04079800  0.85352900  0.63205600  1
  F  F62  1  0.76220100  0.99436900  0.41409700  1
  F  F63  1  0.45920200  0.35352900  0.36794400  1
  F  F64  1  0.44436800  0.66774300  0.24774100  1
  F  F65  1  0.63037000  0.73974000  0.14473500  1
  F  F66  1  0.83602300  0.82757100  0.06073400  1
  F  F67  1  0.94436800  0.83225700  0.24774100  1
  F  F68  1  0.93652900  0.33470700  0.25850200  1
  F  F69  1  0.43652900  0.16529300  0.25850200  1
  F  F70  1  0.83967700  0.95500500  0.70779400  1
  F  F71  1  0.16491800  0.98963700  0.08435500  1
  F  F72  1  0.11166700  0.37537200  0.84268600  1
  F  F73  1  0.26220100  0.50563100  0.41409700  1
  F  F74  1  0.38833300  0.87537200  0.15731400  1
  F  F75  1  0.84976300  0.34022300  0.44765600  1
  F  F76  1  0.61166700  0.12462800  0.84268600  1
  F  F77  1  0.63716400  0.96879000  0.21123700  1
  F  F78  1  0.73779900  0.49436900  0.58590300  1
  F  F79  1  0.33602300  0.67242900  0.06073400  1
  F  F80  1  0.66491800  0.51036300  0.08435500  1
  F  F81  1  0.31539400  0.79215100  0.66178500  1
  F  F82  1  0.34976300  0.15977700  0.44765600  1
  F  F83  1  0.15023700  0.65977700  0.55234400  1
  F  F84  1  0.33967700  0.54499500  0.70779400  1
  F  F85  1  0.56347100  0.83470700  0.74149800  1
  F  F86  1  0.54079800  0.64647100  0.63205600  1
  F  F87  1  0.36963000  0.26026000  0.85526500  1
  F  F88  1  0.95920200  0.14647100  0.36794400  1
  F  F89  1  0.06347100  0.66529300  0.74149800  1
  F  F90  1  0.55563200  0.33225700  0.75225900  1
  F  F91  1  0.13716400  0.53121000  0.21123700  1
  F  F92  1  0.36283600  0.03121000  0.78876300  1
  F  F93  1  0.16397700  0.17242900  0.93926600  1
  F  F94  1  0.66397700  0.32757100  0.93926600  1
  F  F95  1  0.68460600  0.20784900  0.33821500  1
