# generated using pymatgen
data_Sm2Te3
_symmetry_space_group_name_H-M   'P 1'
_cell_length_a   9.45335600
_cell_length_b   9.45335600
_cell_length_c   28.41074000
_cell_angle_alpha   90.00000000
_cell_angle_beta   90.00000000
_cell_angle_gamma   90.00000000
_symmetry_Int_Tables_number   1
_chemical_formula_structural   Sm2Te3
_chemical_formula_sum   'Sm32 Te48'
_cell_volume   2538.95247661
_cell_formula_units_Z   16
loop_
 _symmetry_equiv_pos_site_id
 _symmetry_equiv_pos_as_xyz
  1  'x, y, z'
loop_
 _atom_site_type_symbol
 _atom_site_label
 _atom_site_symmetry_multiplicity
 _atom_site_fract_x
 _atom_site_fract_y
 _atom_site_fract_z
 _atom_site_occupancy
  Sm  Sm0  1  0.00000000  0.50000000  0.08199100  1
  Sm  Sm1  1  0.61893500  0.25000000  0.12500000  1
  Sm  Sm2  1  0.74370150  0.62970650  0.20913850  1
  Sm  Sm3  1  0.00000000  0.00000000  0.16800900  1
  Sm  Sm4  1  0.25629850  0.37029350  0.20913850  1
  Sm  Sm5  1  0.38106500  0.75000000  0.12500000  1
  Sm  Sm6  1  0.12970650  0.75629850  0.29086150  1
  Sm  Sm7  1  0.50000000  0.50000000  0.33199100  1
  Sm  Sm8  1  0.25000000  0.11893500  0.37500000  1
  Sm  Sm9  1  0.87029350  0.24370150  0.29086150  1
  Sm  Sm10  1  0.75000000  0.88106500  0.37500000  1
  Sm  Sm11  1  0.00000000  0.50000000  0.41800900  1
  Sm  Sm12  1  0.62970650  0.24370150  0.45913850  1
  Sm  Sm13  1  0.25629850  0.12970650  0.04086150  1
  Sm  Sm14  1  0.37029350  0.75629850  0.45913850  1
  Sm  Sm15  1  0.74370150  0.87029350  0.04086150  1
  Sm  Sm16  1  0.50000000  0.00000000  0.58199100  1
  Sm  Sm17  1  0.11893500  0.75000000  0.62500000  1
  Sm  Sm18  1  0.24370150  0.12970650  0.70913850  1
  Sm  Sm19  1  0.50000000  0.50000000  0.66800900  1
  Sm  Sm20  1  0.75629850  0.87029350  0.70913850  1
  Sm  Sm21  1  0.88106500  0.25000000  0.62500000  1
  Sm  Sm22  1  0.62970650  0.25629850  0.79086150  1
  Sm  Sm23  1  0.00000000  0.00000000  0.83199100  1
  Sm  Sm24  1  0.75000000  0.61893500  0.87500000  1
  Sm  Sm25  1  0.37029350  0.74370150  0.79086150  1
  Sm  Sm26  1  0.25000000  0.38106500  0.87500000  1
  Sm  Sm27  1  0.50000000  0.00000000  0.91800900  1
  Sm  Sm28  1  0.12970650  0.74370150  0.95913850  1
  Sm  Sm29  1  0.75629850  0.62970650  0.54086150  1
  Sm  Sm30  1  0.87029350  0.25629850  0.95913850  1
  Sm  Sm31  1  0.24370150  0.37029350  0.54086150  1
  Te  Te32  1  0.32186350  0.42651150  0.10227750  1
  Te  Te33  1  0.92682900  0.17418300  0.06697200  1
  Te  Te34  1  0.92682900  0.32581700  0.18302800  1
  Te  Te35  1  0.07317100  0.82581700  0.06697200  1
  Te  Te36  1  0.07317100  0.67418300  0.18302800  1
  Te  Te37  1  0.32186350  0.07348850  0.14772250  1
  Te  Te38  1  0.67813650  0.57348850  0.10227750  1
  Te  Te39  1  0.67813650  0.92651150  0.14772250  1
  Te  Te40  1  0.82553250  0.91924150  0.26620550  1
  Te  Te41  1  0.41924150  0.67446750  0.23379450  1
  Te  Te42  1  0.58075850  0.32553250  0.23379450  1
  Te  Te43  1  0.42651150  0.82186350  0.35227750  1
  Te  Te44  1  0.57348850  0.17813650  0.35227750  1
  Te  Te45  1  0.82581700  0.57317100  0.31697200  1
  Te  Te46  1  0.17446750  0.08075850  0.26620550  1
  Te  Te47  1  0.17418300  0.42682900  0.31697200  1
  Te  Te48  1  0.32581700  0.42682900  0.43302800  1
  Te  Te49  1  0.92651150  0.17813650  0.39772250  1
  Te  Te50  1  0.07348850  0.82186350  0.39772250  1
  Te  Te51  1  0.41924150  0.82553250  0.01620550  1
  Te  Te52  1  0.58075850  0.17446750  0.01620550  1
  Te  Te53  1  0.67418300  0.57317100  0.43302800  1
  Te  Te54  1  0.32553250  0.08075850  0.48379450  1
  Te  Te55  1  0.67446750  0.91924150  0.48379450  1
  Te  Te56  1  0.82186350  0.92651150  0.60227750  1
  Te  Te57  1  0.42682900  0.67418300  0.56697200  1
  Te  Te58  1  0.42682900  0.82581700  0.68302800  1
  Te  Te59  1  0.57317100  0.32581700  0.56697200  1
  Te  Te60  1  0.57317100  0.17418300  0.68302800  1
  Te  Te61  1  0.82186350  0.57348850  0.64772250  1
  Te  Te62  1  0.17813650  0.07348850  0.60227750  1
  Te  Te63  1  0.17813650  0.42651150  0.64772250  1
  Te  Te64  1  0.32553250  0.41924150  0.76620550  1
  Te  Te65  1  0.91924150  0.17446750  0.73379450  1
  Te  Te66  1  0.08075850  0.82553250  0.73379450  1
  Te  Te67  1  0.92651150  0.32186350  0.85227750  1
  Te  Te68  1  0.07348850  0.67813650  0.85227750  1
  Te  Te69  1  0.32581700  0.07317100  0.81697200  1
  Te  Te70  1  0.67446750  0.58075850  0.76620550  1
  Te  Te71  1  0.67418300  0.92682900  0.81697200  1
  Te  Te72  1  0.82581700  0.92682900  0.93302800  1
  Te  Te73  1  0.42651150  0.67813650  0.89772250  1
  Te  Te74  1  0.57348850  0.32186350  0.89772250  1
  Te  Te75  1  0.91924150  0.32553250  0.51620550  1
  Te  Te76  1  0.08075850  0.67446750  0.51620550  1
  Te  Te77  1  0.17418300  0.07317100  0.93302800  1
  Te  Te78  1  0.82553250  0.58075850  0.98379450  1
  Te  Te79  1  0.17446750  0.41924150  0.98379450  1
