# generated using pymatgen
data_ZnBi6P2O15
_symmetry_space_group_name_H-M   'P 1'
_cell_length_a   15.47090800
_cell_length_b   5.52368800
_cell_length_c   17.20458474
_cell_angle_alpha   90.00000000
_cell_angle_beta   104.48359263
_cell_angle_gamma   90.00000000
_symmetry_Int_Tables_number   1
_chemical_formula_structural   ZnBi6P2O15
_chemical_formula_sum   'Zn4 Bi24 P8 O60'
_cell_volume   1423.51770714
_cell_formula_units_Z   4
loop_
 _symmetry_equiv_pos_site_id
 _symmetry_equiv_pos_as_xyz
  1  'x, y, z'
loop_
 _atom_site_type_symbol
 _atom_site_label
 _atom_site_symmetry_multiplicity
 _atom_site_fract_x
 _atom_site_fract_y
 _atom_site_fract_z
 _atom_site_occupancy
  Zn  Zn0  1  0.81294250  0.80965050  0.23229300  1
  Zn  Zn1  1  0.68705750  0.30965050  0.76770700  1
  Zn  Zn2  1  0.31294250  0.30965050  0.23229300  1
  Zn  Zn3  1  0.18705750  0.80965050  0.76770700  1
  Bi  Bi4  1  0.78918800  0.31778700  0.61012400  1
  Bi  Bi5  1  0.93036150  0.80012150  0.07716100  1
  Bi  Bi6  1  0.52550050  0.29697150  0.40495300  1
  Bi  Bi7  1  0.97381400  0.25289000  0.25735200  1
  Bi  Bi8  1  0.64304450  0.28134750  0.24270500  1
  Bi  Bi9  1  0.85695550  0.78134750  0.75729500  1
  Bi  Bi10  1  0.71081200  0.81778700  0.38987600  1
  Bi  Bi11  1  0.97449950  0.79697150  0.59504700  1
  Bi  Bi12  1  0.59632200  0.80425100  0.08781800  1
  Bi  Bi13  1  0.52618600  0.75289000  0.74264800  1
  Bi  Bi14  1  0.90367800  0.30425100  0.91218200  1
  Bi  Bi15  1  0.56963850  0.30012150  0.92283900  1
  Bi  Bi16  1  0.28918800  0.81778700  0.61012400  1
  Bi  Bi17  1  0.43036150  0.30012150  0.07716100  1
  Bi  Bi18  1  0.02550050  0.79697150  0.40495300  1
  Bi  Bi19  1  0.47381400  0.75289000  0.25735200  1
  Bi  Bi20  1  0.14304450  0.78134750  0.24270500  1
  Bi  Bi21  1  0.35695550  0.28134750  0.75729500  1
  Bi  Bi22  1  0.21081200  0.31778700  0.38987600  1
  Bi  Bi23  1  0.47449950  0.29697150  0.59504700  1
  Bi  Bi24  1  0.09632200  0.30425100  0.08781800  1
  Bi  Bi25  1  0.02618600  0.25289000  0.74264800  1
  Bi  Bi26  1  0.40367800  0.80425100  0.91218200  1
  Bi  Bi27  1  0.06963850  0.80012150  0.92283900  1
  P  P28  1  0.78606650  0.31844950  0.10273100  1
  P  P29  1  0.71393350  0.81844950  0.89726900  1
  P  P30  1  0.64070600  0.87219700  0.57897500  1
  P  P31  1  0.85929400  0.37219700  0.42102500  1
  P  P32  1  0.28606650  0.81844950  0.10273100  1
  P  P33  1  0.21393350  0.31844950  0.89726900  1
  P  P34  1  0.14070600  0.37219700  0.57897500  1
  P  P35  1  0.35929400  0.87219700  0.42102500  1
  O  O36  1  0.53195050  0.06543750  0.16020200  1
  O  O37  1  0.56689450  0.38331150  0.70839100  1
  O  O38  1  0.78236000  0.46038300  0.34778000  1
  O  O39  1  0.64630700  0.03572300  0.50634400  1
  O  O40  1  0.85369300  0.53572300  0.49365600  1
  O  O41  1  0.00000000  0.05100700  0.00000000  1
  O  O42  1  0.52560050  0.55993850  0.16211000  1
  O  O43  1  0.66808500  0.60142900  0.84213000  1
  O  O44  1  0.90385900  0.58369900  0.66307000  1
  O  O45  1  0.65149150  0.60214050  0.56086700  1
  O  O46  1  0.84850850  0.10214050  0.43913300  1
  O  O47  1  0.59464600  0.57402100  0.33922600  1
  O  O48  1  0.79366950  0.39667150  0.73830800  1
  O  O49  1  0.54969750  0.91467150  0.60202300  1
  O  O50  1  0.70633050  0.89667150  0.26169200  1
  O  O51  1  0.95030250  0.41467150  0.39797700  1
  O  O52  1  0.90535400  0.07402100  0.66077400  1
  O  O53  1  0.96804950  0.56543750  0.83979800  1
  O  O54  1  0.93310550  0.88331150  0.29160900  1
  O  O55  1  0.97439950  0.05993850  0.83789000  1
  O  O56  1  0.67765200  0.82201600  0.97250400  1
  O  O57  1  0.00000000  0.54327600  0.00000000  1
  O  O58  1  0.68308300  0.29679000  0.08799200  1
  O  O59  1  0.68046150  0.05654950  0.84785700  1
  O  O60  1  0.81691700  0.79679000  0.91200800  1
  O  O61  1  0.82234800  0.32201600  0.02749600  1
  O  O62  1  0.71764000  0.96038300  0.65222000  1
  O  O63  1  0.81953850  0.55654950  0.15214300  1
  O  O64  1  0.83191500  0.10142900  0.15787000  1
  O  O65  1  0.59614100  0.08369900  0.33693000  1
  O  O66  1  0.03195050  0.56543750  0.16020200  1
  O  O67  1  0.06689450  0.88331150  0.70839100  1
  O  O68  1  0.28236000  0.96038300  0.34778000  1
  O  O69  1  0.14630700  0.53572300  0.50634400  1
  O  O70  1  0.35369300  0.03572300  0.49365600  1
  O  O71  1  0.50000000  0.55100700  0.00000000  1
  O  O72  1  0.02560050  0.05993850  0.16211000  1
  O  O73  1  0.16808500  0.10142900  0.84213000  1
  O  O74  1  0.40385900  0.08369900  0.66307000  1
  O  O75  1  0.15149150  0.10214050  0.56086700  1
  O  O76  1  0.34850850  0.60214050  0.43913300  1
  O  O77  1  0.09464600  0.07402100  0.33922600  1
  O  O78  1  0.29366950  0.89667150  0.73830800  1
  O  O79  1  0.04969750  0.41467150  0.60202300  1
  O  O80  1  0.20633050  0.39667150  0.26169200  1
  O  O81  1  0.45030250  0.91467150  0.39797700  1
  O  O82  1  0.40535400  0.57402100  0.66077400  1
  O  O83  1  0.46804950  0.06543750  0.83979800  1
  O  O84  1  0.43310550  0.38331150  0.29160900  1
  O  O85  1  0.47439950  0.55993850  0.83789000  1
  O  O86  1  0.17765200  0.32201600  0.97250400  1
  O  O87  1  0.50000000  0.04327600  0.00000000  1
  O  O88  1  0.18308300  0.79679000  0.08799200  1
  O  O89  1  0.18046150  0.55654950  0.84785700  1
  O  O90  1  0.31691700  0.29679000  0.91200800  1
  O  O91  1  0.32234800  0.82201600  0.02749600  1
  O  O92  1  0.21764000  0.46038300  0.65222000  1
  O  O93  1  0.31953850  0.05654950  0.15214300  1
  O  O94  1  0.33191500  0.60142900  0.15787000  1
  O  O95  1  0.09614100  0.58369900  0.33693000  1
