# generated using pymatgen
data_Ca2Ga2Si(HO4)2
_symmetry_space_group_name_H-M   'P 1'
_cell_length_a   7.80153300
_cell_length_b   7.81999681
_cell_length_c   7.82486212
_cell_angle_alpha   109.43311355
_cell_angle_beta   109.01520316
_cell_angle_gamma   109.66205130
_symmetry_Int_Tables_number   1
_chemical_formula_structural   Ca2Ga2Si(HO4)2
_chemical_formula_sum   'Ca4 Ga4 Si2 H4 O16'
_cell_volume   368.84648745
_cell_formula_units_Z   2
loop_
 _symmetry_equiv_pos_site_id
 _symmetry_equiv_pos_as_xyz
  1  'x, y, z'
loop_
 _atom_site_type_symbol
 _atom_site_label
 _atom_site_symmetry_multiplicity
 _atom_site_fract_x
 _atom_site_fract_y
 _atom_site_fract_z
 _atom_site_occupancy
  Ca  Ca0  1  0.99782600  0.71506900  0.98952300  1
  Ca  Ca1  1  0.99277800  0.00213400  0.71954900  1
  Ca  Ca2  1  0.72159600  0.99797800  0.00907900  1
  Ca  Ca3  1  0.27734400  0.27765000  0.27727300  1
  Ga  Ga4  1  0.24291200  0.48485000  0.74275100  1
  Ga  Ga5  1  0.75738100  0.51602700  0.25698400  1
  Ga  Ga6  1  0.50731900  0.24674800  0.75610700  1
  Ga  Ga7  1  0.25925200  0.75417600  0.50773900  1
  Si  Si8  1  0.73632100  0.24377000  0.48866900  1
  Si  Si9  1  0.49136400  0.75479400  0.24465400  1
  H  H10  1  0.01168700  0.97213400  0.34504500  1
  H  H11  1  0.33808500  0.00092700  0.96444300  1
  H  H12  1  0.96625300  0.34007300  0.00158700  1
  H  H13  1  0.62494300  0.65936700  0.65803900  1
  O  O14  1  0.99877200  0.23167700  0.00649800  1
  O  O15  1  0.69759400  0.99899800  0.42235900  1
  O  O16  1  0.55281400  0.58457600  0.28519500  1
  O  O17  1  0.96750300  0.41266000  0.69859700  1
  O  O18  1  0.44135700  0.72425300  0.01185900  1
  O  O19  1  0.71909600  0.27657700  0.28788900  1
  O  O20  1  0.22525700  0.00055000  0.99147100  1
  O  O21  1  0.74826700  0.45584400  0.00488700  1
  O  O22  1  0.00092900  0.99214600  0.22666000  1
  O  O23  1  0.26625800  0.25552400  0.72234000  1
  O  O24  1  0.00951000  0.74997800  0.46128400  1
  O  O25  1  0.46868600  0.99884200  0.74968700  1
  O  O26  1  0.28991400  0.54357500  0.54811200  1
  O  O27  1  0.55342700  0.26583100  0.53765700  1
  O  O28  1  0.28644000  0.73392800  0.27086400  1
  O  O29  1  0.76531500  0.76744300  0.77129800  1
