# generated using pymatgen
data_Na2BH4ClO4
_symmetry_space_group_name_H-M   'P 1'
_cell_length_a   7.38175000
_cell_length_b   7.38175000
_cell_length_c   4.84948400
_cell_angle_alpha   90.00000000
_cell_angle_beta   90.00000000
_cell_angle_gamma   90.00000000
_symmetry_Int_Tables_number   1
_chemical_formula_structural   Na2BH4ClO4
_chemical_formula_sum   'Na4 B2 H8 Cl2 O8'
_cell_volume   264.24951339
_cell_formula_units_Z   2
loop_
 _symmetry_equiv_pos_site_id
 _symmetry_equiv_pos_as_xyz
  1  'x, y, z'
loop_
 _atom_site_type_symbol
 _atom_site_label
 _atom_site_symmetry_multiplicity
 _atom_site_fract_x
 _atom_site_fract_y
 _atom_site_fract_z
 _atom_site_occupancy
  Na  Na0  1  0.75000000  0.25000000  0.50000000  1
  Na  Na1  1  0.25000000  0.25000000  0.50000000  1
  Na  Na2  1  0.75000000  0.75000000  0.50000000  1
  Na  Na3  1  0.25000000  0.75000000  0.50000000  1
  B  B4  1  0.00000000  0.00000000  0.00000000  1
  B  B5  1  0.50000000  0.50000000  0.00000000  1
  H  H6  1  0.76642900  0.50000000  0.93552300  1
  H  H7  1  0.23357100  0.50000000  0.93552300  1
  H  H8  1  0.00000000  0.26642900  0.93552300  1
  H  H9  1  0.00000000  0.73357100  0.93552300  1
  H  H10  1  0.73357100  0.00000000  0.06447700  1
  H  H11  1  0.26642900  0.00000000  0.06447700  1
  H  H12  1  0.50000000  0.23357100  0.06447700  1
  H  H13  1  0.50000000  0.76642900  0.06447700  1
  Cl  Cl14  1  0.00000000  0.50000000  0.26044000  1
  Cl  Cl15  1  0.50000000  0.00000000  0.73956000  1
  O  O16  1  0.66098300  0.50000000  0.81228300  1
  O  O17  1  0.33901700  0.50000000  0.81228300  1
  O  O18  1  0.00000000  0.16098300  0.81228300  1
  O  O19  1  0.00000000  0.83901700  0.81228300  1
  O  O20  1  0.83901700  0.00000000  0.18771700  1
  O  O21  1  0.16098300  0.00000000  0.18771700  1
  O  O22  1  0.50000000  0.33901700  0.18771700  1
  O  O23  1  0.50000000  0.66098300  0.18771700  1
