# generated using pymatgen
data_Li7IN2
_symmetry_space_group_name_H-M   'P 1'
_cell_length_a   12.79065600
_cell_length_b   7.37620000
_cell_length_c   7.34559003
_cell_angle_alpha   90.00000000
_cell_angle_beta   124.99592131
_cell_angle_gamma   90.00000000
_symmetry_Int_Tables_number   1
_chemical_formula_structural   Li7IN2
_chemical_formula_sum   'Li28 I4 N8'
_cell_volume   567.72543778
_cell_formula_units_Z   4
loop_
 _symmetry_equiv_pos_site_id
 _symmetry_equiv_pos_as_xyz
  1  'x, y, z'
loop_
 _atom_site_type_symbol
 _atom_site_label
 _atom_site_symmetry_multiplicity
 _atom_site_fract_x
 _atom_site_fract_y
 _atom_site_fract_z
 _atom_site_occupancy
  Li  Li0  1  0.01042900  0.00000000  0.99601900  1
  Li  Li1  1  0.24439900  0.18225400  0.91844400  1
  Li  Li2  1  0.24439900  0.81774600  0.91844400  1
  Li  Li3  1  0.06525800  0.00000000  0.56287900  1
  Li  Li4  1  0.42203300  0.00000000  0.92536200  1
  Li  Li5  1  0.24843450  0.82780350  0.57540000  1
  Li  Li6  1  0.24843450  0.17219650  0.57540000  1
  Li  Li7  1  0.00179250  0.78423250  0.78851700  1
  Li  Li8  1  0.00179250  0.21576750  0.78851700  1
  Li  Li9  1  0.21435200  0.00000000  0.21047500  1
  Li  Li10  1  0.29709900  0.50000000  0.70957300  1
  Li  Li11  1  0.02994400  0.24029200  0.20989300  1
  Li  Li12  1  0.02994400  0.75970800  0.20989300  1
  Li  Li13  1  0.37891600  0.50000000  0.08319500  1
  Li  Li14  1  0.51042900  0.50000000  0.99601900  1
  Li  Li15  1  0.74439900  0.68225400  0.91844400  1
  Li  Li16  1  0.74439900  0.31774600  0.91844400  1
  Li  Li17  1  0.56525800  0.50000000  0.56287900  1
  Li  Li18  1  0.92203300  0.50000000  0.92536200  1
  Li  Li19  1  0.74843450  0.32780350  0.57540000  1
  Li  Li20  1  0.74843450  0.67219650  0.57540000  1
  Li  Li21  1  0.50179250  0.28423250  0.78851700  1
  Li  Li22  1  0.50179250  0.71576750  0.78851700  1
  Li  Li23  1  0.71435200  0.50000000  0.21047500  1
  Li  Li24  1  0.79709900  0.00000000  0.70957300  1
  Li  Li25  1  0.52994400  0.74029200  0.20989300  1
  Li  Li26  1  0.52994400  0.25970800  0.20989300  1
  Li  Li27  1  0.87891600  0.00000000  0.08319500  1
  I  I28  1  0.49316500  0.00000000  0.50143400  1
  I  I29  1  0.22815800  0.50000000  0.25782700  1
  I  I30  1  0.99316500  0.50000000  0.50143400  1
  I  I31  1  0.72815800  0.00000000  0.25782700  1
  N  N32  1  0.11864500  0.00000000  0.87465500  1
  N  N33  1  0.37933200  0.73027600  0.88518800  1
  N  N34  1  0.37933200  0.26972400  0.88518800  1
  N  N35  1  0.11199300  0.00000000  0.34860600  1
  N  N36  1  0.61864500  0.50000000  0.87465500  1
  N  N37  1  0.87933200  0.23027600  0.88518800  1
  N  N38  1  0.87933200  0.76972400  0.88518800  1
  N  N39  1  0.61199300  0.50000000  0.34860600  1
