# generated using pymatgen
data_Cd2SnO4
_symmetry_space_group_name_H-M   'P 1'
_cell_length_a   6.56178200
_cell_length_b   6.58507000
_cell_length_c   9.53439200
_cell_angle_alpha   90.00000000
_cell_angle_beta   90.00000000
_cell_angle_gamma   90.00000000
_symmetry_Int_Tables_number   1
_chemical_formula_structural   Cd2SnO4
_chemical_formula_sum   'Cd8 Sn4 O16'
_cell_volume   411.97911228
_cell_formula_units_Z   4
loop_
 _symmetry_equiv_pos_site_id
 _symmetry_equiv_pos_as_xyz
  1  'x, y, z'
loop_
 _atom_site_type_symbol
 _atom_site_label
 _atom_site_symmetry_multiplicity
 _atom_site_fract_x
 _atom_site_fract_y
 _atom_site_fract_z
 _atom_site_occupancy
  Cd  Cd0  1  0.50000000  0.75000000  0.64035600  1
  Cd  Cd1  1  0.25000000  0.25000000  0.75000000  1
  Cd  Cd2  1  0.75000000  0.25000000  0.75000000  1
  Cd  Cd3  1  0.00000000  0.75000000  0.85964400  1
  Cd  Cd4  1  0.00000000  0.25000000  0.14035600  1
  Cd  Cd5  1  0.75000000  0.75000000  0.25000000  1
  Cd  Cd6  1  0.25000000  0.75000000  0.25000000  1
  Cd  Cd7  1  0.50000000  0.25000000  0.35964400  1
  Sn  Sn8  1  0.50000000  0.00000000  0.00000000  1
  Sn  Sn9  1  0.50000000  0.50000000  0.00000000  1
  Sn  Sn10  1  0.00000000  0.50000000  0.50000000  1
  Sn  Sn11  1  0.00000000  0.00000000  0.50000000  1
  O  O12  1  0.78466500  0.75000000  0.50145700  1
  O  O13  1  0.21533500  0.75000000  0.50145700  1
  O  O14  1  0.50000000  0.48699500  0.78355000  1
  O  O15  1  0.50000000  0.01300500  0.78355000  1
  O  O16  1  0.00000000  0.48699500  0.71645000  1
  O  O17  1  0.00000000  0.01300500  0.71645000  1
  O  O18  1  0.28466500  0.75000000  0.99854300  1
  O  O19  1  0.71533500  0.75000000  0.99854300  1
  O  O20  1  0.28466500  0.25000000  0.00145700  1
  O  O21  1  0.71533500  0.25000000  0.00145700  1
  O  O22  1  0.00000000  0.98699500  0.28355000  1
  O  O23  1  0.00000000  0.51300500  0.28355000  1
  O  O24  1  0.50000000  0.98699500  0.21645000  1
  O  O25  1  0.50000000  0.51300500  0.21645000  1
  O  O26  1  0.78466500  0.25000000  0.49854300  1
  O  O27  1  0.21533500  0.25000000  0.49854300  1
