# generated using pymatgen
data_Ca2Al2Si(HO4)2
_symmetry_space_group_name_H-M   'P 1'
_cell_length_a   8.93979000
_cell_length_b   12.59586000
_cell_length_c   12.58672900
_cell_angle_alpha   90.00000000
_cell_angle_beta   90.00000000
_cell_angle_gamma   90.00000000
_symmetry_Int_Tables_number   1
_chemical_formula_structural   Ca2Al2Si(HO4)2
_chemical_formula_sum   'Ca16 Al16 Si8 H16 O64'
_cell_volume   1417.32035295
_cell_formula_units_Z   8
loop_
 _symmetry_equiv_pos_site_id
 _symmetry_equiv_pos_as_xyz
  1  'x, y, z'
loop_
 _atom_site_type_symbol
 _atom_site_label
 _atom_site_symmetry_multiplicity
 _atom_site_fract_x
 _atom_site_fract_y
 _atom_site_fract_z
 _atom_site_occupancy
  Ca  Ca0  1  0.85873000  0.00231800  0.85695300  1
  Ca  Ca1  1  0.64133900  0.64286600  0.00061900  1
  Ca  Ca2  1  0.35873000  0.00231800  0.64304700  1
  Ca  Ca3  1  0.85873000  0.99768200  0.14304700  1
  Ca  Ca4  1  0.64133900  0.85713400  0.50061900  1
  Ca  Ca5  1  0.64133900  0.14286600  0.49938100  1
  Ca  Ca6  1  0.64133900  0.35713400  0.99938100  1
  Ca  Ca7  1  0.35873000  0.99768200  0.35695300  1
  Ca  Ca8  1  0.35873000  0.50231800  0.85695300  1
  Ca  Ca9  1  0.14133900  0.14286600  0.00061900  1
  Ca  Ca10  1  0.85873000  0.50231800  0.64304700  1
  Ca  Ca11  1  0.35873000  0.49768200  0.14304700  1
  Ca  Ca12  1  0.14133900  0.35713400  0.50061900  1
  Ca  Ca13  1  0.14133900  0.64286600  0.49938100  1
  Ca  Ca14  1  0.14133900  0.85713400  0.99938100  1
  Ca  Ca15  1  0.85873000  0.49768200  0.35695300  1
  Al  Al16  1  0.75010100  0.24968500  0.75264800  1
  Al  Al17  1  0.49979700  0.12460000  0.87898200  1
  Al  Al18  1  0.49979700  0.37540000  0.37898200  1
  Al  Al19  1  0.75010100  0.75031500  0.24735200  1
  Al  Al20  1  0.25010100  0.24968500  0.74735200  1
  Al  Al21  1  0.49979700  0.62460000  0.62101800  1
  Al  Al22  1  0.49979700  0.87540000  0.12101800  1
  Al  Al23  1  0.25010100  0.75031500  0.25264800  1
  Al  Al24  1  0.25010100  0.74968500  0.75264800  1
  Al  Al25  1  0.99979700  0.62460000  0.87898200  1
  Al  Al26  1  0.99979700  0.87540000  0.37898200  1
  Al  Al27  1  0.25010100  0.25031500  0.24735200  1
  Al  Al28  1  0.75010100  0.74968500  0.74735200  1
  Al  Al29  1  0.99979700  0.12460000  0.62101800  1
  Al  Al30  1  0.99979700  0.37540000  0.12101800  1
  Al  Al31  1  0.75010100  0.25031500  0.25264800  1
  Si  Si32  1  0.50042500  0.87595300  0.87224600  1
  Si  Si33  1  0.50042500  0.37595300  0.62775400  1
  Si  Si34  1  0.50042500  0.62404700  0.37224600  1
  Si  Si35  1  0.50042500  0.12404700  0.12775400  1
  Si  Si36  1  0.00042500  0.37595300  0.87224600  1
  Si  Si37  1  0.00042500  0.87595300  0.62775400  1
  Si  Si38  1  0.00042500  0.12404700  0.37224600  1
  Si  Si39  1  0.00042500  0.62404700  0.12775400  1
  H  H40  1  0.68244450  0.00808550  0.67383900  1
  H  H41  1  0.18244450  0.00808550  0.82616100  1
  H  H42  1  0.31728350  0.17395950  0.50699000  1
  H  H43  1  0.68244450  0.99191450  0.32616100  1
  H  H44  1  0.81728350  0.17395950  0.99301000  1
  H  H45  1  0.31728350  0.82604050  0.49301000  1
  H  H46  1  0.18244450  0.99191450  0.17383900  1
  H  H47  1  0.81728350  0.82604050  0.00699000  1
  H  H48  1  0.18244450  0.50808550  0.67383900  1
  H  H49  1  0.68244450  0.50808550  0.82616100  1
  H  H50  1  0.81728350  0.67395950  0.50699000  1
  H  H51  1  0.18244450  0.49191450  0.32616100  1
  H  H52  1  0.31728350  0.67395950  0.99301000  1
  H  H53  1  0.81728350  0.32604050  0.49301000  1
  H  H54  1  0.68244450  0.49191450  0.17383900  1
  H  H55  1  0.31728350  0.32604050  0.00699000  1
  O  O56  1  0.63296100  0.78613900  0.85721000  1
  O  O57  1  0.36842900  0.86139100  0.78161700  1
  O  O58  1  0.61354950  0.99944850  0.61498000  1
  O  O59  1  0.63296100  0.28613900  0.64279000  1
  O  O60  1  0.57749450  0.99438650  0.86157300  1
  O  O61  1  0.64475450  0.28155850  0.36666100  1
  O  O62  1  0.42268050  0.36222150  0.50976500  1
  O  O63  1  0.63296100  0.71386100  0.35721000  1
  O  O64  1  0.64475450  0.21844150  0.86666100  1
  O  O65  1  0.38603000  0.11508200  0.49811700  1
  O  O66  1  0.85397350  0.86250050  0.28607900  1
  O  O67  1  0.36842900  0.36139100  0.71838300  1
  O  O68  1  0.11354950  0.99944850  0.88502000  1
  O  O69  1  0.11354950  0.00055150  0.11498000  1
  O  O70  1  0.35397350  0.13749950  0.78607900  1
  O  O71  1  0.07749450  0.99438650  0.63842700  1
  O  O72  1  0.07749450  0.00561350  0.36157300  1
  O  O73  1  0.64475450  0.78155850  0.13333900  1
  O  O74  1  0.64475450  0.71844150  0.63333900  1
  O  O75  1  0.42268050  0.86222150  0.99023500  1
  O  O76  1  0.38603000  0.61508200  0.00188300  1
  O  O77  1  0.42268050  0.63777850  0.49023500  1
  O  O78  1  0.35397350  0.86250050  0.21392100  1
  O  O79  1  0.61354950  0.00055150  0.38502000  1
  O  O80  1  0.36842900  0.63860900  0.28161700  1
  O  O81  1  0.85397350  0.13749950  0.71392100  1
  O  O82  1  0.57749450  0.00561350  0.13842700  1
  O  O83  1  0.63296100  0.21386100  0.14279000  1
  O  O84  1  0.42268050  0.13777850  0.00976500  1
  O  O85  1  0.38603000  0.88491800  0.50188300  1
  O  O86  1  0.36842900  0.13860900  0.21838300  1
  O  O87  1  0.38603000  0.38491800  0.99811700  1
  O  O88  1  0.13296100  0.28613900  0.85721000  1
  O  O89  1  0.86842900  0.36139100  0.78161700  1
  O  O90  1  0.11354950  0.49944850  0.61498000  1
  O  O91  1  0.13296100  0.78613900  0.64279000  1
  O  O92  1  0.07749450  0.49438650  0.86157300  1
  O  O93  1  0.14475450  0.78155850  0.36666100  1
  O  O94  1  0.92268050  0.86222150  0.50976500  1
  O  O95  1  0.13296100  0.21386100  0.35721000  1
  O  O96  1  0.14475450  0.71844150  0.86666100  1
  O  O97  1  0.88603000  0.61508200  0.49811700  1
  O  O98  1  0.35397350  0.36250050  0.28607900  1
  O  O99  1  0.86842900  0.86139100  0.71838300  1
  O  O100  1  0.61354950  0.49944850  0.88502000  1
  O  O101  1  0.61354950  0.50055150  0.11498000  1
  O  O102  1  0.85397350  0.63749950  0.78607900  1
  O  O103  1  0.57749450  0.49438650  0.63842700  1
  O  O104  1  0.57749450  0.50561350  0.36157300  1
  O  O105  1  0.14475450  0.28155850  0.13333900  1
  O  O106  1  0.14475450  0.21844150  0.63333900  1
  O  O107  1  0.92268050  0.36222150  0.99023500  1
  O  O108  1  0.88603000  0.11508200  0.00188300  1
  O  O109  1  0.92268050  0.13777850  0.49023500  1
  O  O110  1  0.85397350  0.36250050  0.21392100  1
  O  O111  1  0.11354950  0.50055150  0.38502000  1
  O  O112  1  0.86842900  0.13860900  0.28161700  1
  O  O113  1  0.35397350  0.63749950  0.71392100  1
  O  O114  1  0.07749450  0.50561350  0.13842700  1
  O  O115  1  0.13296100  0.71386100  0.14279000  1
  O  O116  1  0.92268050  0.63777850  0.00976500  1
  O  O117  1  0.88603000  0.38491800  0.50188300  1
  O  O118  1  0.86842900  0.63860900  0.21838300  1
  O  O119  1  0.88603000  0.88491800  0.99811700  1
