# generated using pymatgen
data_ZnH2SO5
_symmetry_space_group_name_H-M   'P 1'
_cell_length_a   6.90243600
_cell_length_b   7.77706400
_cell_length_c   7.62209796
_cell_angle_alpha   90.00000000
_cell_angle_beta   115.33536291
_cell_angle_gamma   90.00000000
_symmetry_Int_Tables_number   1
_chemical_formula_structural   ZnH2SO5
_chemical_formula_sum   'Zn4 H8 S4 O20'
_cell_volume   369.80592741
_cell_formula_units_Z   4
loop_
 _symmetry_equiv_pos_site_id
 _symmetry_equiv_pos_as_xyz
  1  'x, y, z'
loop_
 _atom_site_type_symbol
 _atom_site_label
 _atom_site_symmetry_multiplicity
 _atom_site_fract_x
 _atom_site_fract_y
 _atom_site_fract_z
 _atom_site_occupancy
  Zn  Zn0  1  0.75000000  0.75000000  0.50000000  1
  Zn  Zn1  1  0.75000000  0.25000000  0.00000000  1
  Zn  Zn2  1  0.25000000  0.25000000  0.50000000  1
  Zn  Zn3  1  0.25000000  0.75000000  0.00000000  1
  H  H4  1  0.58771200  0.95825200  0.20404400  1
  H  H5  1  0.41228800  0.95825200  0.29595600  1
  H  H6  1  0.41228800  0.04174800  0.79595600  1
  H  H7  1  0.58771200  0.04174800  0.70404400  1
  H  H8  1  0.08771200  0.45825200  0.20404400  1
  H  H9  1  0.91228800  0.45825200  0.29595600  1
  H  H10  1  0.91228800  0.54174800  0.79595600  1
  H  H11  1  0.08771200  0.54174800  0.70404400  1
  S  S12  1  0.50000000  0.40558900  0.25000000  1
  S  S13  1  0.50000000  0.59441100  0.75000000  1
  S  S14  1  0.00000000  0.90558900  0.25000000  1
  S  S15  1  0.00000000  0.09441100  0.75000000  1
  O  O16  1  0.52202200  0.29561600  0.10091600  1
  O  O17  1  0.47797800  0.29561600  0.39908400  1
  O  O18  1  0.47797800  0.70438400  0.89908400  1
  O  O19  1  0.52202200  0.70438400  0.60091600  1
  O  O20  1  0.19524650  0.01722150  0.34161900  1
  O  O21  1  0.80475350  0.01722150  0.15838100  1
  O  O22  1  0.80475350  0.98277850  0.65838100  1
  O  O23  1  0.19524650  0.98277850  0.84161900  1
  O  O24  1  0.50000000  0.88420300  0.25000000  1
  O  O25  1  0.50000000  0.11579700  0.75000000  1
  O  O26  1  0.02202200  0.79561600  0.10091600  1
  O  O27  1  0.97797800  0.79561600  0.39908400  1
  O  O28  1  0.97797800  0.20438400  0.89908400  1
  O  O29  1  0.02202200  0.20438400  0.60091600  1
  O  O30  1  0.69524650  0.51722150  0.34161900  1
  O  O31  1  0.30475350  0.51722150  0.15838100  1
  O  O32  1  0.30475350  0.48277850  0.65838100  1
  O  O33  1  0.69524650  0.48277850  0.84161900  1
  O  O34  1  0.00000000  0.38420300  0.25000000  1
  O  O35  1  0.00000000  0.61579700  0.75000000  1
