# generated using pymatgen
data_Cu4Bi4S9
_symmetry_space_group_name_H-M   'P 1'
_cell_length_a   3.92984000
_cell_length_b   11.30814400
_cell_length_c   33.33139500
_cell_angle_alpha   90.00000000
_cell_angle_beta   90.00000000
_cell_angle_gamma   90.00000000
_symmetry_Int_Tables_number   1
_chemical_formula_structural   Cu4Bi4S9
_chemical_formula_sum   'Cu16 Bi16 S36'
_cell_volume   1481.22041592
_cell_formula_units_Z   4
loop_
 _symmetry_equiv_pos_site_id
 _symmetry_equiv_pos_as_xyz
  1  'x, y, z'
loop_
 _atom_site_type_symbol
 _atom_site_label
 _atom_site_symmetry_multiplicity
 _atom_site_fract_x
 _atom_site_fract_y
 _atom_site_fract_z
 _atom_site_occupancy
  Cu  Cu0  1  0.25000000  0.42235600  0.30273700  1
  Cu  Cu1  1  0.75000000  0.89911700  0.01285200  1
  Cu  Cu2  1  0.75000000  0.83423600  0.30691600  1
  Cu  Cu3  1  0.25000000  0.07764400  0.80273700  1
  Cu  Cu4  1  0.75000000  0.92235600  0.19726300  1
  Cu  Cu5  1  0.25000000  0.16576400  0.69308400  1
  Cu  Cu6  1  0.25000000  0.88089500  0.35861200  1
  Cu  Cu7  1  0.25000000  0.10088300  0.98714800  1
  Cu  Cu8  1  0.75000000  0.66576400  0.80691600  1
  Cu  Cu9  1  0.75000000  0.38089500  0.14138800  1
  Cu  Cu10  1  0.75000000  0.11910500  0.64138800  1
  Cu  Cu11  1  0.25000000  0.33423600  0.19308400  1
  Cu  Cu12  1  0.75000000  0.57764400  0.69726300  1
  Cu  Cu13  1  0.75000000  0.60088300  0.51285200  1
  Cu  Cu14  1  0.25000000  0.39911700  0.48714800  1
  Cu  Cu15  1  0.25000000  0.61910500  0.85861200  1
  Bi  Bi16  1  0.75000000  0.62085900  0.96723600  1
  Bi  Bi17  1  0.75000000  0.90951000  0.90808100  1
  Bi  Bi18  1  0.75000000  0.85233000  0.72342900  1
  Bi  Bi19  1  0.25000000  0.72036300  0.11106500  1
  Bi  Bi20  1  0.75000000  0.27963700  0.88893500  1
  Bi  Bi21  1  0.75000000  0.59049000  0.40808100  1
  Bi  Bi22  1  0.25000000  0.09049000  0.09191900  1
  Bi  Bi23  1  0.25000000  0.77963700  0.61106500  1
  Bi  Bi24  1  0.25000000  0.14767000  0.27657100  1
  Bi  Bi25  1  0.25000000  0.12085900  0.53276400  1
  Bi  Bi26  1  0.75000000  0.22036300  0.38893500  1
  Bi  Bi27  1  0.25000000  0.35233000  0.77657100  1
  Bi  Bi28  1  0.25000000  0.37914100  0.03276400  1
  Bi  Bi29  1  0.75000000  0.64767000  0.22342900  1
  Bi  Bi30  1  0.25000000  0.40951000  0.59191900  1
  Bi  Bi31  1  0.75000000  0.87914100  0.46723600  1
  S  S32  1  0.25000000  0.01632600  0.73729600  1
  S  S33  1  0.75000000  0.31934400  0.31670400  1
  S  S34  1  0.25000000  0.07811900  0.35137800  1
  S  S35  1  0.25000000  0.31981200  0.11118400  1
  S  S36  1  0.25000000  0.84488800  0.97717600  1
  S  S37  1  0.75000000  0.88201100  0.08160500  1
  S  S38  1  0.75000000  0.41811300  0.65466100  1
  S  S39  1  0.25000000  0.03890600  0.45136700  1
  S  S40  1  0.75000000  0.18065600  0.81670400  1
  S  S41  1  0.25000000  0.46109400  0.95136700  1
  S  S42  1  0.75000000  0.92188100  0.64862200  1
  S  S43  1  0.75000000  0.53890600  0.04863300  1
  S  S44  1  0.25000000  0.38201100  0.41839500  1
  S  S45  1  0.75000000  0.57811900  0.14862200  1
  S  S46  1  0.75000000  0.51632600  0.76270400  1
  S  S47  1  0.25000000  0.76786400  0.80731700  1
  S  S48  1  0.75000000  0.34488800  0.52282400  1
  S  S49  1  0.75000000  0.08188700  0.15466100  1
  S  S50  1  0.25000000  0.91811300  0.84533900  1
  S  S51  1  0.75000000  0.26786400  0.69268300  1
  S  S52  1  0.75000000  0.96109400  0.54863300  1
  S  S53  1  0.75000000  0.23213600  0.19268300  1
  S  S54  1  0.75000000  0.61798900  0.58160500  1
  S  S55  1  0.75000000  0.68018800  0.88881600  1
  S  S56  1  0.25000000  0.81934400  0.18329600  1
  S  S57  1  0.25000000  0.58188700  0.34533900  1
  S  S58  1  0.75000000  0.15511200  0.02282400  1
  S  S59  1  0.25000000  0.73213600  0.30731700  1
  S  S60  1  0.25000000  0.68065600  0.68329600  1
  S  S61  1  0.25000000  0.65511200  0.47717600  1
  S  S62  1  0.25000000  0.48367400  0.23729600  1
  S  S63  1  0.75000000  0.81981200  0.38881600  1
  S  S64  1  0.25000000  0.42188100  0.85137800  1
  S  S65  1  0.25000000  0.18018800  0.61118400  1
  S  S66  1  0.75000000  0.98367400  0.26270400  1
  S  S67  1  0.25000000  0.11798900  0.91839500  1
