# generated using pymatgen
data_GaPO4
_symmetry_space_group_name_H-M   'P 1'
_cell_length_a   5.08672400
_cell_length_b   5.08672400
_cell_length_c   7.37514400
_cell_angle_alpha   90.00000000
_cell_angle_beta   90.00000000
_cell_angle_gamma   90.00000000
_symmetry_Int_Tables_number   1
_chemical_formula_structural   GaPO4
_chemical_formula_sum   'Ga2 P2 O8'
_cell_volume   190.83008873
_cell_formula_units_Z   2
loop_
 _symmetry_equiv_pos_site_id
 _symmetry_equiv_pos_as_xyz
  1  'x, y, z'
loop_
 _atom_site_type_symbol
 _atom_site_label
 _atom_site_symmetry_multiplicity
 _atom_site_fract_x
 _atom_site_fract_y
 _atom_site_fract_z
 _atom_site_occupancy
  Ga  Ga0  1  0.00000000  0.00000000  0.00000000  1
  Ga  Ga1  1  0.50000000  0.50000000  0.50000000  1
  P  P2  1  0.50000000  0.00000000  0.25000000  1
  P  P3  1  0.00000000  0.50000000  0.75000000  1
  O  O4  1  0.62302650  0.77960250  0.36688650  1
  O  O5  1  0.37697350  0.22039750  0.36688650  1
  O  O6  1  0.27960250  0.87697350  0.13311350  1
  O  O7  1  0.72039750  0.12302650  0.13311350  1
  O  O8  1  0.12302650  0.27960250  0.86688650  1
  O  O9  1  0.87697350  0.72039750  0.86688650  1
  O  O10  1  0.77960250  0.37697350  0.63311350  1
  O  O11  1  0.22039750  0.62302650  0.63311350  1
