# generated using pymatgen
data_KAlH4
_symmetry_space_group_name_H-M   'P 1'
_cell_length_a   5.40015400
_cell_length_b   5.40015400
_cell_length_c   12.60714200
_cell_angle_alpha   90.00000000
_cell_angle_beta   90.00000000
_cell_angle_gamma   90.00000000
_symmetry_Int_Tables_number   1
_chemical_formula_structural   KAlH4
_chemical_formula_sum   'K4 Al4 H16'
_cell_volume   367.64522922
_cell_formula_units_Z   4
loop_
 _symmetry_equiv_pos_site_id
 _symmetry_equiv_pos_as_xyz
  1  'x, y, z'
loop_
 _atom_site_type_symbol
 _atom_site_label
 _atom_site_symmetry_multiplicity
 _atom_site_fract_x
 _atom_site_fract_y
 _atom_site_fract_z
 _atom_site_occupancy
  K  K0  1  0.00000000  0.50000000  0.25000000  1
  K  K1  1  0.00000000  0.00000000  0.00000000  1
  K  K2  1  0.50000000  0.00000000  0.75000000  1
  K  K3  1  0.50000000  0.50000000  0.50000000  1
  Al  Al4  1  0.50000000  0.00000000  0.25000000  1
  Al  Al5  1  0.50000000  0.50000000  0.00000000  1
  Al  Al6  1  0.00000000  0.50000000  0.75000000  1
  Al  Al7  1  0.00000000  0.00000000  0.50000000  1
  H  H8  1  0.40397100  0.23046700  0.32297100  1
  H  H9  1  0.59602900  0.76953300  0.32297100  1
  H  H10  1  0.73046700  0.59602900  0.07297100  1
  H  H11  1  0.26953300  0.40397100  0.07297100  1
  H  H12  1  0.09602900  0.76953300  0.42702900  1
  H  H13  1  0.90397100  0.23046700  0.42702900  1
  H  H14  1  0.26953300  0.90397100  0.17702900  1
  H  H15  1  0.73046700  0.09602900  0.17702900  1
  H  H16  1  0.90397100  0.73046700  0.82297100  1
  H  H17  1  0.09602900  0.26953300  0.82297100  1
  H  H18  1  0.23046700  0.09602900  0.57297100  1
  H  H19  1  0.76953300  0.90397100  0.57297100  1
  H  H20  1  0.59602900  0.26953300  0.92702900  1
  H  H21  1  0.40397100  0.73046700  0.92702900  1
  H  H22  1  0.76953300  0.40397100  0.67702900  1
  H  H23  1  0.23046700  0.59602900  0.67702900  1
