# generated using pymatgen
data_Nd3U2O10
_symmetry_space_group_name_H-M   'P 1'
_cell_length_a   12.00219400
_cell_length_b   5.49372000
_cell_length_c   8.51829404
_cell_angle_alpha   90.00000000
_cell_angle_beta   132.52915455
_cell_angle_gamma   90.00000000
_symmetry_Int_Tables_number   1
_chemical_formula_structural   Nd3U2O10
_chemical_formula_sum   'Nd6 U4 O20'
_cell_volume   413.91205302
_cell_formula_units_Z   2
loop_
 _symmetry_equiv_pos_site_id
 _symmetry_equiv_pos_as_xyz
  1  'x, y, z'
loop_
 _atom_site_type_symbol
 _atom_site_label
 _atom_site_symmetry_multiplicity
 _atom_site_fract_x
 _atom_site_fract_y
 _atom_site_fract_z
 _atom_site_occupancy
  Nd  Nd0  1  0.60038400  0.00000000  0.90262200  1
  Nd  Nd1  1  0.50000000  0.50000000  0.50000000  1
  Nd  Nd2  1  0.39961600  0.00000000  0.09737800  1
  Nd  Nd3  1  0.10038400  0.50000000  0.90262200  1
  Nd  Nd4  1  0.00000000  0.00000000  0.50000000  1
  Nd  Nd5  1  0.89961600  0.50000000  0.09737800  1
  U  U6  1  0.80777500  0.00000000  0.70899900  1
  U  U7  1  0.19222500  0.00000000  0.29100100  1
  U  U8  1  0.30777500  0.50000000  0.70899900  1
  U  U9  1  0.69222500  0.50000000  0.29100100  1
  O  O10  1  0.00000000  0.77440200  0.00000000  1
  O  O11  1  0.39264900  0.74534300  0.61060400  1
  O  O12  1  0.29208400  0.23750900  0.21353400  1
  O  O13  1  0.00000000  0.22559800  0.00000000  1
  O  O14  1  0.70791600  0.23750900  0.78646600  1
  O  O15  1  0.39264900  0.25465700  0.61060400  1
  O  O16  1  0.29208400  0.76249100  0.21353400  1
  O  O17  1  0.60735100  0.74534300  0.38939600  1
  O  O18  1  0.70791600  0.76249100  0.78646600  1
  O  O19  1  0.60735100  0.25465700  0.38939600  1
  O  O20  1  0.50000000  0.27440200  0.00000000  1
  O  O21  1  0.89264900  0.24534300  0.61060400  1
  O  O22  1  0.79208400  0.73750900  0.21353400  1
  O  O23  1  0.50000000  0.72559800  0.00000000  1
  O  O24  1  0.20791600  0.73750900  0.78646600  1
  O  O25  1  0.89264900  0.75465700  0.61060400  1
  O  O26  1  0.79208400  0.26249100  0.21353400  1
  O  O27  1  0.10735100  0.24534300  0.38939600  1
  O  O28  1  0.20791600  0.26249100  0.78646600  1
  O  O29  1  0.10735100  0.75465700  0.38939600  1
