# generated using pymatgen
data_Na2H20CO13
_symmetry_space_group_name_H-M   'P 1'
_cell_length_a   12.78481400
_cell_length_b   8.90699200
_cell_length_c   12.60564566
_cell_angle_alpha   90.00000000
_cell_angle_beta   115.86256213
_cell_angle_gamma   90.00000000
_symmetry_Int_Tables_number   1
_chemical_formula_structural   Na2H20CO13
_chemical_formula_sum   'Na8 H80 C4 O52'
_cell_volume   1291.68707434
_cell_formula_units_Z   4
loop_
 _symmetry_equiv_pos_site_id
 _symmetry_equiv_pos_as_xyz
  1  'x, y, z'
loop_
 _atom_site_type_symbol
 _atom_site_label
 _atom_site_symmetry_multiplicity
 _atom_site_fract_x
 _atom_site_fract_y
 _atom_site_fract_z
 _atom_site_occupancy
  Na  Na0  1  0.63400750  0.53192850  0.62785500  1
  Na  Na1  1  0.13400750  0.96807150  0.12785500  1
  Na  Na2  1  0.86822500  0.96517400  0.37406700  1
  Na  Na3  1  0.36822500  0.53482600  0.87406700  1
  Na  Na4  1  0.13400750  0.03192850  0.62785500  1
  Na  Na5  1  0.63400750  0.46807150  0.12785500  1
  Na  Na6  1  0.36822500  0.46517400  0.37406700  1
  Na  Na7  1  0.86822500  0.03482600  0.87406700  1
  H  H8  1  0.81631900  0.75410900  0.18034700  1
  H  H9  1  0.81631900  0.24589100  0.68034700  1
  H  H10  1  0.72877450  0.89154450  0.12852000  1
  H  H11  1  0.22877450  0.60845550  0.62852000  1
  H  H12  1  0.76706500  0.61349700  0.87912000  1
  H  H13  1  0.26706500  0.88650300  0.37912000  1
  H  H14  1  0.68212950  0.74965650  0.81235200  1
  H  H15  1  0.68212950  0.25034350  0.31235200  1
  H  H16  1  0.42336100  0.72674400  0.52047700  1
  H  H17  1  0.42336100  0.27325600  0.02047700  1
  H  H18  1  0.39690350  0.61051550  0.59768600  1
  H  H19  1  0.89690350  0.88948450  0.09768600  1
  H  H20  1  0.10382700  0.87299000  0.40189800  1
  H  H21  1  0.60382700  0.62701000  0.90189800  1
  H  H22  1  0.06539350  0.76655950  0.47862900  1
  H  H23  1  0.06539350  0.23344050  0.97862900  1
  H  H24  1  0.61542350  0.02058250  0.34910300  1
  H  H25  1  0.11542350  0.47941750  0.84910300  1
  H  H26  1  0.62248950  0.01078450  0.22721300  1
  H  H27  1  0.12248950  0.48921550  0.72721300  1
  H  H28  1  0.86093150  0.45744250  0.61720000  1
  H  H29  1  0.36093150  0.04255750  0.11720000  1
  H  H30  1  0.88901750  0.47688350  0.75263700  1
  H  H31  1  0.38901750  0.02311650  0.25263700  1
  H  H32  1  0.06556200  0.72989600  0.65954200  1
  H  H33  1  0.56556200  0.77010400  0.15954200  1
  H  H34  1  0.02115050  0.82938650  0.73635100  1
  H  H35  1  0.52115050  0.67061350  0.23635100  1
  H  H36  1  0.44103400  0.78316500  0.32824100  1
  H  H37  1  0.94103400  0.71683500  0.82824100  1
  H  H38  1  0.33996200  0.70337100  0.21730200  1
  H  H39  1  0.83996200  0.79662900  0.71730200  1
  H  H40  1  0.82290150  0.63455250  0.43970900  1
  H  H41  1  0.82290150  0.36544750  0.93970900  1
  H  H42  1  0.71294800  0.71686500  0.34094900  1
  H  H43  1  0.21294800  0.78313500  0.84094900  1
  H  H44  1  0.66137700  0.85478300  0.56344500  1
  H  H45  1  0.66137700  0.14521700  0.06344500  1
  H  H46  1  0.73642850  0.75174150  0.52221000  1
  H  H47  1  0.73642850  0.24825850  0.02221000  1
  H  H48  1  0.31631900  0.25410900  0.18034700  1
  H  H49  1  0.31631900  0.74589100  0.68034700  1
  H  H50  1  0.22877450  0.39154450  0.12852000  1
  H  H51  1  0.72877450  0.10845550  0.62852000  1
  H  H52  1  0.26706500  0.11349700  0.87912000  1
  H  H53  1  0.76706500  0.38650300  0.37912000  1
  H  H54  1  0.18212950  0.24965650  0.81235200  1
  H  H55  1  0.18212950  0.75034350  0.31235200  1
  H  H56  1  0.92336100  0.22674400  0.52047700  1
  H  H57  1  0.92336100  0.77325600  0.02047700  1
  H  H58  1  0.89690350  0.11051550  0.59768600  1
  H  H59  1  0.39690350  0.38948450  0.09768600  1
  H  H60  1  0.60382700  0.37299000  0.40189800  1
  H  H61  1  0.10382700  0.12701000  0.90189800  1
  H  H62  1  0.56539350  0.26655950  0.47862900  1
  H  H63  1  0.56539350  0.73344050  0.97862900  1
  H  H64  1  0.11542350  0.52058250  0.34910300  1
  H  H65  1  0.61542350  0.97941750  0.84910300  1
  H  H66  1  0.12248950  0.51078450  0.22721300  1
  H  H67  1  0.62248950  0.98921550  0.72721300  1
  H  H68  1  0.36093150  0.95744250  0.61720000  1
  H  H69  1  0.86093150  0.54255750  0.11720000  1
  H  H70  1  0.38901750  0.97688350  0.75263700  1
  H  H71  1  0.88901750  0.52311650  0.25263700  1
  H  H72  1  0.56556200  0.22989600  0.65954200  1
  H  H73  1  0.06556200  0.27010400  0.15954200  1
  H  H74  1  0.52115050  0.32938650  0.73635100  1
  H  H75  1  0.02115050  0.17061350  0.23635100  1
  H  H76  1  0.94103400  0.28316500  0.32824100  1
  H  H77  1  0.44103400  0.21683500  0.82824100  1
  H  H78  1  0.83996200  0.20337100  0.21730200  1
  H  H79  1  0.33996200  0.29662900  0.71730200  1
  H  H80  1  0.32290150  0.13455250  0.43970900  1
  H  H81  1  0.32290150  0.86544750  0.93970900  1
  H  H82  1  0.21294800  0.21686500  0.34094900  1
  H  H83  1  0.71294800  0.28313500  0.84094900  1
  H  H84  1  0.16137700  0.35478300  0.56344500  1
  H  H85  1  0.16137700  0.64521700  0.06344500  1
  H  H86  1  0.23642850  0.25174150  0.52221000  1
  H  H87  1  0.23642850  0.74825850  0.02221000  1
  C  C88  1  0.49134200  0.99403700  0.48558400  1
  C  C89  1  0.99134200  0.50596300  0.98558400  1
  C  C90  1  0.99134200  0.49403700  0.48558400  1
  C  C91  1  0.49134200  0.00596300  0.98558400  1
  O  O92  1  0.81150150  0.86633850  0.17627800  1
  O  O93  1  0.81150150  0.13366150  0.67627800  1
  O  O94  1  0.68586350  0.63869250  0.82252200  1
  O  O95  1  0.18586350  0.86130750  0.32252200  1
  O  O96  1  0.43820600  0.62200200  0.54703100  1
  O  O97  1  0.43820600  0.37799800  0.04703100  1
  O  O98  1  0.06076600  0.87050300  0.45179400  1
  O  O99  1  0.06076600  0.12949700  0.95179400  1
  O  O100  1  0.66366150  0.05036050  0.30850700  1
  O  O101  1  0.16366150  0.44963950  0.80850700  1
  O  O102  1  0.82969200  0.43937000  0.67586800  1
  O  O103  1  0.32969200  0.06063000  0.17586800  1
  O  O104  1  0.08588850  0.81778050  0.71238300  1
  O  O105  1  0.58588850  0.68221950  0.21238300  1
  O  O106  1  0.41562250  0.68512150  0.28708800  1
  O  O107  1  0.91562250  0.81487850  0.78708800  1
  O  O108  1  0.78315900  0.73283600  0.41773300  1
  O  O109  1  0.78315900  0.26716400  0.91773300  1
  O  O110  1  0.71030200  0.76466900  0.58621300  1
  O  O111  1  0.71030200  0.23533100  0.08621300  1
  O  O112  1  0.89690050  0.45448350  0.49410700  1
  O  O113  1  0.89690050  0.54551650  0.99410700  1
  O  O114  1  0.50388250  0.96037750  0.39176800  1
  O  O115  1  0.00388250  0.53962250  0.89176800  1
  O  O116  1  0.07347350  0.56651250  0.57199800  1
  O  O117  1  0.57347350  0.93348750  0.07199800  1
  O  O118  1  0.31150150  0.36633850  0.17627800  1
  O  O119  1  0.31150150  0.63366150  0.67627800  1
  O  O120  1  0.18586350  0.13869250  0.82252200  1
  O  O121  1  0.68586350  0.36130750  0.32252200  1
  O  O122  1  0.93820600  0.12200200  0.54703100  1
  O  O123  1  0.93820600  0.87799800  0.04703100  1
  O  O124  1  0.56076600  0.37050300  0.45179400  1
  O  O125  1  0.56076600  0.62949700  0.95179400  1
  O  O126  1  0.16366150  0.55036050  0.30850700  1
  O  O127  1  0.66366150  0.94963950  0.80850700  1
  O  O128  1  0.32969200  0.93937000  0.67586800  1
  O  O129  1  0.82969200  0.56063000  0.17586800  1
  O  O130  1  0.58588850  0.31778050  0.71238300  1
  O  O131  1  0.08588850  0.18221950  0.21238300  1
  O  O132  1  0.91562250  0.18512150  0.28708800  1
  O  O133  1  0.41562250  0.31487850  0.78708800  1
  O  O134  1  0.28315900  0.23283600  0.41773300  1
  O  O135  1  0.28315900  0.76716400  0.91773300  1
  O  O136  1  0.21030200  0.26466900  0.58621300  1
  O  O137  1  0.21030200  0.73533100  0.08621300  1
  O  O138  1  0.39690050  0.95448350  0.49410700  1
  O  O139  1  0.39690050  0.04551650  0.99410700  1
  O  O140  1  0.00388250  0.46037750  0.39176800  1
  O  O141  1  0.50388250  0.03962250  0.89176800  1
  O  O142  1  0.57347350  0.06651250  0.57199800  1
  O  O143  1  0.07347350  0.43348750  0.07199800  1
