# generated using pymatgen
data_Rb2Ti(GeO3)3
_symmetry_space_group_name_H-M   'P 1'
_cell_length_a   12.33644186
_cell_length_b   12.33644186
_cell_length_c   10.66223200
_cell_angle_alpha   90.00000000
_cell_angle_beta   90.00000000
_cell_angle_gamma   120.00000000
_symmetry_Int_Tables_number   1
_chemical_formula_structural   Rb2Ti(GeO3)3
_chemical_formula_sum   'Rb12 Ti6 Ge18 O54'
_cell_volume   1405.26617318
_cell_formula_units_Z   6
loop_
 _symmetry_equiv_pos_site_id
 _symmetry_equiv_pos_as_xyz
  1  'x, y, z'
loop_
 _atom_site_type_symbol
 _atom_site_label
 _atom_site_symmetry_multiplicity
 _atom_site_fract_x
 _atom_site_fract_y
 _atom_site_fract_z
 _atom_site_occupancy
  Rb  Rb0  1  0.63275333  0.64698167  0.47148000  1
  Rb  Rb1  1  0.64698167  0.63275333  0.02852000  1
  Rb  Rb2  1  0.98577167  0.63275333  0.52852000  1
  Rb  Rb3  1  0.36724667  0.01422833  0.02852000  1
  Rb  Rb4  1  0.35301833  0.98577167  0.47148000  1
  Rb  Rb5  1  0.01422833  0.36724667  0.47148000  1
  Rb  Rb6  1  0.64698167  0.01422833  0.52852000  1
  Rb  Rb7  1  0.01422833  0.64698167  0.97148000  1
  Rb  Rb8  1  0.63275333  0.98577167  0.97148000  1
  Rb  Rb9  1  0.35301833  0.36724667  0.97148000  1
  Rb  Rb10  1  0.98577167  0.35301833  0.02852000  1
  Rb  Rb11  1  0.36724667  0.35301833  0.52852000  1
  Ti  Ti12  1  0.33333333  0.66666667  0.00777600  1
  Ti  Ti13  1  0.00000000  0.00000000  0.50000000  1
  Ti  Ti14  1  0.66666667  0.33333333  0.49222400  1
  Ti  Ti15  1  0.33333333  0.66666667  0.50777600  1
  Ti  Ti16  1  0.66666667  0.33333333  0.99222400  1
  Ti  Ti17  1  0.00000000  0.00000000  0.00000000  1
  Ge  Ge18  1  0.83318033  0.28709367  0.75012400  1
  Ge  Ge19  1  0.54608667  0.83318033  0.24987600  1
  Ge  Ge20  1  0.83318033  0.54608667  0.25012400  1
  Ge  Ge21  1  0.28709367  0.83318033  0.74987600  1
  Ge  Ge22  1  0.71290633  0.16681967  0.25012400  1
  Ge  Ge23  1  0.16681967  0.45391333  0.74987600  1
  Ge  Ge24  1  0.18400700  0.18400700  0.75000000  1
  Ge  Ge25  1  0.45391333  0.28709367  0.25012400  1
  Ge  Ge26  1  0.45391333  0.16681967  0.75012400  1
  Ge  Ge27  1  0.71290633  0.54608667  0.75012400  1
  Ge  Ge28  1  0.28709367  0.45391333  0.24987600  1
  Ge  Ge29  1  0.18400700  0.00000000  0.25000000  1
  Ge  Ge30  1  0.00000000  0.18400700  0.25000000  1
  Ge  Ge31  1  0.81599300  0.81599300  0.25000000  1
  Ge  Ge32  1  0.16681967  0.71290633  0.24987600  1
  Ge  Ge33  1  0.00000000  0.81599300  0.75000000  1
  Ge  Ge34  1  0.81599300  0.00000000  0.75000000  1
  Ge  Ge35  1  0.54608667  0.71290633  0.74987600  1
  O  O36  1  0.63706800  0.63706800  0.75000000  1
  O  O37  1  0.21948433  0.87490867  0.22049500  1
  O  O38  1  0.04207833  0.89648867  0.89105800  1
  O  O39  1  0.21948433  0.34457567  0.72049500  1
  O  O40  1  0.64696633  0.19720967  0.38192300  1
  O  O41  1  0.87490867  0.65542433  0.77950500  1
  O  O42  1  0.78368433  0.30526367  0.60192000  1
  O  O43  1  0.00000000  0.63706800  0.25000000  1
  O  O44  1  0.30526367  0.78368433  0.89808000  1
  O  O45  1  0.47842067  0.69473633  0.89808000  1
  O  O46  1  0.00000000  0.36293200  0.75000000  1
  O  O47  1  0.12509133  0.34457567  0.22049500  1
  O  O48  1  0.95792167  0.85441033  0.60894200  1
  O  O49  1  0.52157933  0.30526367  0.10192000  1
  O  O50  1  0.69473633  0.21631567  0.10192000  1
  O  O51  1  0.21631567  0.52157933  0.89808000  1
  O  O52  1  0.65542433  0.78051567  0.22049500  1
  O  O53  1  0.04207833  0.14558967  0.39105800  1
  O  O54  1  0.14558967  0.10351133  0.60894200  1
  O  O55  1  0.55024333  0.19720967  0.88192300  1
  O  O56  1  0.30526367  0.52157933  0.39808000  1
  O  O57  1  0.63706800  0.00000000  0.25000000  1
  O  O58  1  0.64696633  0.44975667  0.88192300  1
  O  O59  1  0.85441033  0.95792167  0.89105800  1
  O  O60  1  0.69473633  0.47842067  0.60192000  1
  O  O61  1  0.47842067  0.78368433  0.39808000  1
  O  O62  1  0.10351133  0.14558967  0.89105800  1
  O  O63  1  0.44975667  0.80279033  0.11807700  1
  O  O64  1  0.89648867  0.85441033  0.10894200  1
  O  O65  1  0.21631567  0.69473633  0.39808000  1
  O  O66  1  0.80279033  0.35303367  0.88192300  1
  O  O67  1  0.78051567  0.12509133  0.77950500  1
  O  O68  1  0.78368433  0.47842067  0.10192000  1
  O  O69  1  0.34457567  0.12509133  0.27950500  1
  O  O70  1  0.35303367  0.55024333  0.11807700  1
  O  O71  1  0.55024333  0.35303367  0.38192300  1
  O  O72  1  0.85441033  0.89648867  0.39105800  1
  O  O73  1  0.19720967  0.55024333  0.61807700  1
  O  O74  1  0.36293200  0.00000000  0.75000000  1
  O  O75  1  0.89648867  0.04207833  0.60894200  1
  O  O76  1  0.87490867  0.21948433  0.27950500  1
  O  O77  1  0.78051567  0.65542433  0.27950500  1
  O  O78  1  0.36293200  0.36293200  0.25000000  1
  O  O79  1  0.19720967  0.64696633  0.11807700  1
  O  O80  1  0.52157933  0.21631567  0.60192000  1
  O  O81  1  0.12509133  0.78051567  0.72049500  1
  O  O82  1  0.10351133  0.95792167  0.39105800  1
  O  O83  1  0.95792167  0.10351133  0.10894200  1
  O  O84  1  0.44975667  0.64696633  0.61807700  1
  O  O85  1  0.34457567  0.21948433  0.77950500  1
  O  O86  1  0.35303367  0.80279033  0.61807700  1
  O  O87  1  0.14558967  0.04207833  0.10894200  1
  O  O88  1  0.65542433  0.87490867  0.72049500  1
  O  O89  1  0.80279033  0.44975667  0.38192300  1
