# generated using pymatgen
data_CuAs2Pb6Cl7O6
_symmetry_space_group_name_H-M   'P 1'
_cell_length_a   10.06092199
_cell_length_b   10.06092199
_cell_length_c   17.39953910
_cell_angle_alpha   90.00000000
_cell_angle_beta   90.00000000
_cell_angle_gamma   120.00000000
_symmetry_Int_Tables_number   1
_chemical_formula_structural   CuAs2Pb6Cl7O6
_chemical_formula_sum   'Cu3 As6 Pb18 Cl21 O18'
_cell_volume   1525.26020367
_cell_formula_units_Z   3
loop_
 _symmetry_equiv_pos_site_id
 _symmetry_equiv_pos_as_xyz
  1  'x, y, z'
loop_
 _atom_site_type_symbol
 _atom_site_label
 _atom_site_symmetry_multiplicity
 _atom_site_fract_x
 _atom_site_fract_y
 _atom_site_fract_z
 _atom_site_occupancy
  Cu  Cu0  1  0.33333333  0.66666667  0.29386667  1
  Cu  Cu1  1  0.00000000  0.00000000  0.62720000  1
  Cu  Cu2  1  0.66666667  0.33333333  0.96053333  1
  As  As3  1  0.33333333  0.66666667  0.90484067  1
  As  As4  1  0.33333333  0.66666667  0.43118267  1
  As  As5  1  0.00000000  0.00000000  0.23817400  1
  As  As6  1  0.00000000  0.00000000  0.76451600  1
  As  As7  1  0.66666667  0.33333333  0.57150733  1
  As  As8  1  0.66666667  0.33333333  0.09784933  1
  Pb  Pb9  1  0.72456767  0.74333433  0.10595733  1
  Pb  Pb10  1  0.40507667  0.34564333  0.22311933  1
  Pb  Pb11  1  0.01876667  0.27543233  0.10595733  1
  Pb  Pb12  1  0.65435667  0.05943333  0.22311933  1
  Pb  Pb13  1  0.25666567  0.98123333  0.10595733  1
  Pb  Pb14  1  0.94056667  0.59492333  0.22311933  1
  Pb  Pb15  1  0.39123433  0.07666767  0.43929067  1
  Pb  Pb16  1  0.07174333  0.67897667  0.55645267  1
  Pb  Pb17  1  0.68543333  0.60876567  0.43929067  1
  Pb  Pb18  1  0.32102333  0.39276667  0.55645267  1
  Pb  Pb19  1  0.92333233  0.31456667  0.43929067  1
  Pb  Pb20  1  0.60723333  0.92825667  0.55645267  1
  Pb  Pb21  1  0.05790100  0.41000100  0.77262400  1
  Pb  Pb22  1  0.73841000  0.01231000  0.88978600  1
  Pb  Pb23  1  0.35210000  0.94209900  0.77262400  1
  Pb  Pb24  1  0.98769000  0.72610000  0.88978600  1
  Pb  Pb25  1  0.58999900  0.64790000  0.77262400  1
  Pb  Pb26  1  0.27390000  0.26159000  0.88978600  1
  Cl  Cl27  1  0.33333333  0.66666667  0.66752367  1
  Cl  Cl28  1  0.37127767  0.44876533  0.08176833  1
  Cl  Cl29  1  0.55123467  0.92251233  0.08176833  1
  Cl  Cl30  1  0.57364500  0.70437600  0.25567300  1
  Cl  Cl31  1  0.07748767  0.62872233  0.08176833  1
  Cl  Cl32  1  0.13073100  0.42635500  0.25567300  1
  Cl  Cl33  1  0.29562400  0.86926900  0.25567300  1
  Cl  Cl34  1  0.00000000  0.00000000  0.00085700  1
  Cl  Cl35  1  0.03794433  0.78209867  0.41510167  1
  Cl  Cl36  1  0.21790133  0.25584567  0.41510167  1
  Cl  Cl37  1  0.24031167  0.03770933  0.58900633  1
  Cl  Cl38  1  0.74415433  0.96205567  0.41510167  1
  Cl  Cl39  1  0.79739767  0.75968833  0.58900633  1
  Cl  Cl40  1  0.96229067  0.20260233  0.58900633  1
  Cl  Cl41  1  0.66666667  0.33333333  0.33419033  1
  Cl  Cl42  1  0.70461100  0.11543200  0.74843500  1
  Cl  Cl43  1  0.88456800  0.58917900  0.74843500  1
  Cl  Cl44  1  0.90697833  0.37104267  0.92233967  1
  Cl  Cl45  1  0.41082100  0.29538900  0.74843500  1
  Cl  Cl46  1  0.46406433  0.09302167  0.92233967  1
  Cl  Cl47  1  0.62895733  0.53593567  0.92233967  1
  O  O48  1  0.28132433  0.49260367  0.85019567  1
  O  O49  1  0.50739633  0.78872067  0.85019567  1
  O  O50  1  0.21127933  0.71867567  0.85019567  1
  O  O51  1  0.46160233  0.62202367  0.48225867  1
  O  O52  1  0.16042133  0.53839767  0.48225867  1
  O  O53  1  0.37797633  0.83957867  0.48225867  1
  O  O54  1  0.94799100  0.82593700  0.18352900  1
  O  O55  1  0.17406300  0.12205400  0.18352900  1
  O  O56  1  0.87794600  0.05200900  0.18352900  1
  O  O57  1  0.12826900  0.95535700  0.81559200  1
  O  O58  1  0.82708800  0.87173100  0.81559200  1
  O  O59  1  0.04464300  0.17291200  0.81559200  1
  O  O60  1  0.61465767  0.15927033  0.51686233  1
  O  O61  1  0.84072967  0.45538733  0.51686233  1
  O  O62  1  0.54461267  0.38534233  0.51686233  1
  O  O63  1  0.79493567  0.28869033  0.14892533  1
  O  O64  1  0.49375467  0.20506433  0.14892533  1
  O  O65  1  0.71130967  0.50624533  0.14892533  1
