# generated using pymatgen
data_HgH16(Br3N2)2
_symmetry_space_group_name_H-M   'P 1'
_cell_length_a   9.04224500
_cell_length_b   9.30946200
_cell_length_c   12.83304428
_cell_angle_alpha   90.00000000
_cell_angle_beta   133.99889134
_cell_angle_gamma   90.00000000
_symmetry_Int_Tables_number   1
_chemical_formula_structural   HgH16(Br3N2)2
_chemical_formula_sum   'Hg2 H32 Br12 N8'
_cell_volume   777.09256056
_cell_formula_units_Z   2
loop_
 _symmetry_equiv_pos_site_id
 _symmetry_equiv_pos_as_xyz
  1  'x, y, z'
loop_
 _atom_site_type_symbol
 _atom_site_label
 _atom_site_symmetry_multiplicity
 _atom_site_fract_x
 _atom_site_fract_y
 _atom_site_fract_z
 _atom_site_occupancy
  Hg  Hg0  1  0.00000000  0.00000000  0.00000000  1
  Hg  Hg1  1  0.00000000  0.50000000  0.50000000  1
  H  H2  1  0.80698600  0.44120200  0.68184500  1
  H  H3  1  0.04434400  0.12959900  0.29815200  1
  H  H4  1  0.83944700  0.23747100  0.18847900  1
  H  H5  1  0.16055300  0.76252900  0.81152100  1
  H  H6  1  0.48548800  0.60565800  0.64584300  1
  H  H7  1  0.04434400  0.37040100  0.79815200  1
  H  H8  1  0.83944700  0.26252900  0.68847900  1
  H  H9  1  0.25358200  0.37932000  0.21372600  1
  H  H10  1  0.51451200  0.39434200  0.35415700  1
  H  H11  1  0.59602300  0.74445300  0.25122500  1
  H  H12  1  0.40397700  0.25554700  0.74877500  1
  H  H13  1  0.40608600  0.40056800  0.18296100  1
  H  H14  1  0.89143800  0.15636000  0.32974200  1
  H  H15  1  0.74641800  0.87932000  0.28627400  1
  H  H16  1  0.95565600  0.87040100  0.70184800  1
  H  H17  1  0.59602300  0.75554700  0.75122500  1
  H  H18  1  0.40608600  0.09943200  0.68296100  1
  H  H19  1  0.51451200  0.10565800  0.85415700  1
  H  H20  1  0.40397700  0.24445300  0.24877500  1
  H  H21  1  0.25358200  0.12068000  0.71372600  1
  H  H22  1  0.95565600  0.62959900  0.20184800  1
  H  H23  1  0.59391400  0.59943200  0.81703900  1
  H  H24  1  0.10856200  0.84364000  0.67025800  1
  H  H25  1  0.48548800  0.89434200  0.14584300  1
  H  H26  1  0.74641800  0.62068000  0.78627400  1
  H  H27  1  0.10856200  0.65636000  0.17025800  1
  H  H28  1  0.80698600  0.05879800  0.18184500  1
  H  H29  1  0.19301400  0.55879800  0.31815500  1
  H  H30  1  0.19301400  0.94120200  0.81815500  1
  H  H31  1  0.59391400  0.90056800  0.31703900  1
  H  H32  1  0.89143800  0.34364000  0.82974200  1
  H  H33  1  0.16055300  0.73747100  0.31152100  1
  Br  Br34  1  0.13185900  0.82376100  0.49902100  1
  Br  Br35  1  0.28045800  0.49774300  0.77941500  1
  Br  Br36  1  0.32032200  0.37200800  0.49703900  1
  Br  Br37  1  0.71954200  0.99774300  0.72058500  1
  Br  Br38  1  0.86814100  0.17623900  0.50097900  1
  Br  Br39  1  0.71954200  0.50225700  0.22058500  1
  Br  Br40  1  0.13185900  0.67623900  0.99902100  1
  Br  Br41  1  0.32032200  0.12799200  0.99703900  1
  Br  Br42  1  0.28045800  0.00225700  0.27941500  1
  Br  Br43  1  0.67967800  0.62799200  0.50296100  1
  Br  Br44  1  0.86814100  0.32376100  0.00097900  1
  Br  Br45  1  0.67967800  0.87200800  0.00296100  1
  N  N46  1  0.60508300  0.64508500  0.74948200  1
  N  N47  1  0.60508300  0.85491500  0.24948200  1
  N  N48  1  0.10480700  0.64519400  0.24979100  1
  N  N49  1  0.89519300  0.14519400  0.25020900  1
  N  N50  1  0.89519300  0.35480600  0.75020900  1
  N  N51  1  0.10480700  0.85480600  0.74979100  1
  N  N52  1  0.39491700  0.35491500  0.25051800  1
  N  N53  1  0.39491700  0.14508500  0.75051800  1
