# generated using pymatgen
data_Sr6Mg7H26
_symmetry_space_group_name_H-M   'P 1'
_cell_length_a   18.25979000
_cell_length_b   5.63612800
_cell_length_c   11.56862421
_cell_angle_alpha   90.00000000
_cell_angle_beta   128.39703458
_cell_angle_gamma   90.00000000
_symmetry_Int_Tables_number   1
_chemical_formula_structural   Sr6Mg7H26
_chemical_formula_sum   'Sr12 Mg14 H52'
_cell_volume   933.08750854
_cell_formula_units_Z   2
loop_
 _symmetry_equiv_pos_site_id
 _symmetry_equiv_pos_as_xyz
  1  'x, y, z'
loop_
 _atom_site_type_symbol
 _atom_site_label
 _atom_site_symmetry_multiplicity
 _atom_site_fract_x
 _atom_site_fract_y
 _atom_site_fract_z
 _atom_site_occupancy
  Sr  Sr0  1  0.85553400  0.50000000  0.09273100  1
  Sr  Sr1  1  0.14446600  0.50000000  0.90726900  1
  Sr  Sr2  1  0.15791200  0.50000000  0.40215200  1
  Sr  Sr3  1  0.84208800  0.50000000  0.59784800  1
  Sr  Sr4  1  0.84978000  0.00000000  0.34683600  1
  Sr  Sr5  1  0.15022000  0.00000000  0.65316400  1
  Sr  Sr6  1  0.35553400  0.00000000  0.09273100  1
  Sr  Sr7  1  0.64446600  0.00000000  0.90726900  1
  Sr  Sr8  1  0.65791200  0.00000000  0.40215200  1
  Sr  Sr9  1  0.34208800  0.00000000  0.59784800  1
  Sr  Sr10  1  0.34978000  0.50000000  0.34683600  1
  Sr  Sr11  1  0.65022000  0.50000000  0.65316400  1
  Mg  Mg12  1  0.72126500  0.50000000  0.20859400  1
  Mg  Mg13  1  0.27873500  0.50000000  0.79140600  1
  Mg  Mg14  1  0.98687900  0.00000000  0.72383700  1
  Mg  Mg15  1  0.01312100  0.00000000  0.27616300  1
  Mg  Mg16  1  0.00000000  0.25692300  0.00000000  1
  Mg  Mg17  1  0.00000000  0.74307700  0.00000000  1
  Mg  Mg18  1  0.00000000  0.50000000  0.50000000  1
  Mg  Mg19  1  0.22126500  0.00000000  0.20859400  1
  Mg  Mg20  1  0.77873500  0.00000000  0.79140600  1
  Mg  Mg21  1  0.48687900  0.50000000  0.72383700  1
  Mg  Mg22  1  0.51312100  0.50000000  0.27616300  1
  Mg  Mg23  1  0.50000000  0.75692300  0.00000000  1
  Mg  Mg24  1  0.50000000  0.24307700  0.00000000  1
  Mg  Mg25  1  0.50000000  0.00000000  0.50000000  1
  H  H26  1  0.74444600  0.74430700  0.11913300  1
  H  H27  1  0.25555400  0.74430700  0.88086700  1
  H  H28  1  0.25555400  0.25569300  0.88086700  1
  H  H29  1  0.74444600  0.25569300  0.11913300  1
  H  H30  1  0.25260600  0.73481100  0.64685200  1
  H  H31  1  0.74739400  0.73481100  0.35314800  1
  H  H32  1  0.74739400  0.26518900  0.35314800  1
  H  H33  1  0.25260600  0.26518900  0.64685200  1
  H  H34  1  0.97014900  0.25073200  0.58171800  1
  H  H35  1  0.02985100  0.25073200  0.41828200  1
  H  H36  1  0.02985100  0.74926800  0.41828200  1
  H  H37  1  0.97014900  0.74926800  0.58171800  1
  H  H38  1  0.99099950  0.27724750  0.82347000  1
  H  H39  1  0.00900050  0.27724750  0.17653000  1
  H  H40  1  0.00900050  0.72275250  0.17653000  1
  H  H41  1  0.99099950  0.72275250  0.82347000  1
  H  H42  1  0.11735900  0.00000000  0.83053300  1
  H  H43  1  0.88264100  0.00000000  0.16946700  1
  H  H44  1  0.85347800  0.00000000  0.57725800  1
  H  H45  1  0.14652200  0.00000000  0.42274200  1
  H  H46  1  0.59345100  0.00000000  0.08049400  1
  H  H47  1  0.40654900  0.00000000  0.91950600  1
  H  H48  1  0.58781600  0.50000000  0.08237400  1
  H  H49  1  0.41218400  0.50000000  0.91762600  1
  H  H50  1  0.87068200  0.50000000  0.32809800  1
  H  H51  1  0.12931800  0.50000000  0.67190200  1
  H  H52  1  0.24444600  0.24430700  0.11913300  1
  H  H53  1  0.75555400  0.24430700  0.88086700  1
  H  H54  1  0.75555400  0.75569300  0.88086700  1
  H  H55  1  0.24444600  0.75569300  0.11913300  1
  H  H56  1  0.75260600  0.23481100  0.64685200  1
  H  H57  1  0.24739400  0.23481100  0.35314800  1
  H  H58  1  0.24739400  0.76518900  0.35314800  1
  H  H59  1  0.75260600  0.76518900  0.64685200  1
  H  H60  1  0.47014900  0.75073200  0.58171800  1
  H  H61  1  0.52985100  0.75073200  0.41828200  1
  H  H62  1  0.52985100  0.24926800  0.41828200  1
  H  H63  1  0.47014900  0.24926800  0.58171800  1
  H  H64  1  0.49099950  0.77724750  0.82347000  1
  H  H65  1  0.50900050  0.77724750  0.17653000  1
  H  H66  1  0.50900050  0.22275250  0.17653000  1
  H  H67  1  0.49099950  0.22275250  0.82347000  1
  H  H68  1  0.61735900  0.50000000  0.83053300  1
  H  H69  1  0.38264100  0.50000000  0.16946700  1
  H  H70  1  0.35347800  0.50000000  0.57725800  1
  H  H71  1  0.64652200  0.50000000  0.42274200  1
  H  H72  1  0.09345100  0.50000000  0.08049400  1
  H  H73  1  0.90654900  0.50000000  0.91950600  1
  H  H74  1  0.08781600  0.00000000  0.08237400  1
  H  H75  1  0.91218400  0.00000000  0.91762600  1
  H  H76  1  0.37068200  0.00000000  0.32809800  1
  H  H77  1  0.62931800  0.00000000  0.67190200  1
