# generated using pymatgen
data_Mg2H4Ru
_symmetry_space_group_name_H-M   'P 1'
_cell_length_a   6.99902600
_cell_length_b   8.44986800
_cell_length_c   4.81599700
_cell_angle_alpha   90.00000000
_cell_angle_beta   90.00000000
_cell_angle_gamma   90.00000000
_symmetry_Int_Tables_number   1
_chemical_formula_structural   Mg2H4Ru
_chemical_formula_sum   'Mg8 H16 Ru4'
_cell_volume   284.82213609
_cell_formula_units_Z   4
loop_
 _symmetry_equiv_pos_site_id
 _symmetry_equiv_pos_as_xyz
  1  'x, y, z'
loop_
 _atom_site_type_symbol
 _atom_site_label
 _atom_site_symmetry_multiplicity
 _atom_site_fract_x
 _atom_site_fract_y
 _atom_site_fract_z
 _atom_site_occupancy
  Mg  Mg0  1  0.21056650  0.85859850  0.25000000  1
  Mg  Mg1  1  0.21056650  0.14140150  0.75000000  1
  Mg  Mg2  1  0.78943350  0.14140150  0.75000000  1
  Mg  Mg3  1  0.78943350  0.85859850  0.25000000  1
  Mg  Mg4  1  0.71056650  0.35859850  0.25000000  1
  Mg  Mg5  1  0.71056650  0.64140150  0.75000000  1
  Mg  Mg6  1  0.28943350  0.64140150  0.75000000  1
  Mg  Mg7  1  0.28943350  0.35859850  0.25000000  1
  H  H8  1  0.24206200  0.11167000  0.25000000  1
  H  H9  1  0.24206200  0.88833000  0.75000000  1
  H  H10  1  0.75793800  0.88833000  0.75000000  1
  H  H11  1  0.75793800  0.11167000  0.25000000  1
  H  H12  1  0.50000000  0.77801400  0.01529900  1
  H  H13  1  0.50000000  0.22198600  0.98470100  1
  H  H14  1  0.50000000  0.77801400  0.48470100  1
  H  H15  1  0.50000000  0.22198600  0.51529900  1
  H  H16  1  0.74206200  0.61167000  0.25000000  1
  H  H17  1  0.74206200  0.38833000  0.75000000  1
  H  H18  1  0.25793800  0.38833000  0.75000000  1
  H  H19  1  0.25793800  0.61167000  0.25000000  1
  H  H20  1  0.00000000  0.27801400  0.01529900  1
  H  H21  1  0.00000000  0.72198600  0.98470100  1
  H  H22  1  0.00000000  0.27801400  0.48470100  1
  H  H23  1  0.00000000  0.72198600  0.51529900  1
  Ru  Ru24  1  0.50000000  0.63187800  0.25000000  1
  Ru  Ru25  1  0.50000000  0.36812200  0.75000000  1
  Ru  Ru26  1  0.00000000  0.13187800  0.25000000  1
  Ru  Ru27  1  0.00000000  0.86812200  0.75000000  1
