# generated using pymatgen
data_Ba4Na(BO3)3
_symmetry_space_group_name_H-M   'P 1'
_cell_length_a   16.03844000
_cell_length_b   16.03844000
_cell_length_c   16.03844000
_cell_angle_alpha   90.00000000
_cell_angle_beta   90.00000000
_cell_angle_gamma   90.00000000
_symmetry_Int_Tables_number   1
_chemical_formula_structural   Ba4Na(BO3)3
_chemical_formula_sum   'Ba64 Na16 B48 O144'
_cell_volume   4125.59290321
_cell_formula_units_Z   16
loop_
 _symmetry_equiv_pos_site_id
 _symmetry_equiv_pos_as_xyz
  1  'x, y, z'
loop_
 _atom_site_type_symbol
 _atom_site_label
 _atom_site_symmetry_multiplicity
 _atom_site_fract_x
 _atom_site_fract_y
 _atom_site_fract_z
 _atom_site_occupancy
  Ba  Ba0  1  0.50000000  0.75000000  0.25136100  1
  Ba  Ba1  1  0.00000000  0.75000000  0.00136100  1
  Ba  Ba2  1  0.75000000  0.25136100  0.50000000  1
  Ba  Ba3  1  0.24863900  0.50000000  0.25000000  1
  Ba  Ba4  1  0.25000000  0.24863900  0.50000000  1
  Ba  Ba5  1  0.25136100  0.50000000  0.75000000  1
  Ba  Ba6  1  0.00136100  0.00000000  0.75000000  1
  Ba  Ba7  1  0.49863900  0.00000000  0.25000000  1
  Ba  Ba8  1  0.25000000  0.49863900  0.00000000  1
  Ba  Ba9  1  0.75000000  0.00136100  0.00000000  1
  Ba  Ba10  1  0.00000000  0.25000000  0.49863900  1
  Ba  Ba11  1  0.50000000  0.25000000  0.24863900  1
  Ba  Ba12  1  0.00000000  0.75000000  0.24863900  1
  Ba  Ba13  1  0.50000000  0.75000000  0.49863900  1
  Ba  Ba14  1  0.75000000  0.24863900  0.00000000  1
  Ba  Ba15  1  0.25136100  0.00000000  0.25000000  1
  Ba  Ba16  1  0.25000000  0.25136100  0.00000000  1
  Ba  Ba17  1  0.24863900  0.00000000  0.75000000  1
  Ba  Ba18  1  0.49863900  0.50000000  0.75000000  1
  Ba  Ba19  1  0.00136100  0.50000000  0.25000000  1
  Ba  Ba20  1  0.25000000  0.00136100  0.50000000  1
  Ba  Ba21  1  0.75000000  0.49863900  0.50000000  1
  Ba  Ba22  1  0.50000000  0.25000000  0.00136100  1
  Ba  Ba23  1  0.00000000  0.25000000  0.25136100  1
  Ba  Ba24  1  0.00000000  0.50000000  0.00000000  1
  Ba  Ba25  1  0.25000000  0.75000000  0.25000000  1
  Ba  Ba26  1  0.25000000  0.25000000  0.25000000  1
  Ba  Ba27  1  0.25000000  0.25000000  0.75000000  1
  Ba  Ba28  1  0.00000000  0.00000000  0.00000000  1
  Ba  Ba29  1  0.50000000  0.00000000  0.00000000  1
  Ba  Ba30  1  0.00000000  0.00000000  0.50000000  1
  Ba  Ba31  1  0.75000000  0.25000000  0.25000000  1
  Ba  Ba32  1  0.00000000  0.25000000  0.75136100  1
  Ba  Ba33  1  0.50000000  0.25000000  0.50136100  1
  Ba  Ba34  1  0.25000000  0.75136100  0.00000000  1
  Ba  Ba35  1  0.74863900  0.00000000  0.75000000  1
  Ba  Ba36  1  0.75000000  0.74863900  0.00000000  1
  Ba  Ba37  1  0.75136100  0.00000000  0.25000000  1
  Ba  Ba38  1  0.50136100  0.50000000  0.25000000  1
  Ba  Ba39  1  0.99863900  0.50000000  0.75000000  1
  Ba  Ba40  1  0.75000000  0.99863900  0.50000000  1
  Ba  Ba41  1  0.25000000  0.50136100  0.50000000  1
  Ba  Ba42  1  0.50000000  0.75000000  0.99863900  1
  Ba  Ba43  1  0.00000000  0.75000000  0.74863900  1
  Ba  Ba44  1  0.50000000  0.25000000  0.74863900  1
  Ba  Ba45  1  0.00000000  0.25000000  0.99863900  1
  Ba  Ba46  1  0.25000000  0.74863900  0.50000000  1
  Ba  Ba47  1  0.75136100  0.50000000  0.75000000  1
  Ba  Ba48  1  0.75000000  0.75136100  0.50000000  1
  Ba  Ba49  1  0.74863900  0.50000000  0.25000000  1
  Ba  Ba50  1  0.99863900  0.00000000  0.25000000  1
  Ba  Ba51  1  0.50136100  0.00000000  0.75000000  1
  Ba  Ba52  1  0.75000000  0.50136100  0.00000000  1
  Ba  Ba53  1  0.25000000  0.99863900  0.00000000  1
  Ba  Ba54  1  0.00000000  0.75000000  0.50136100  1
  Ba  Ba55  1  0.50000000  0.75000000  0.75136100  1
  Ba  Ba56  1  0.50000000  0.00000000  0.50000000  1
  Ba  Ba57  1  0.75000000  0.25000000  0.75000000  1
  Ba  Ba58  1  0.75000000  0.75000000  0.75000000  1
  Ba  Ba59  1  0.75000000  0.75000000  0.25000000  1
  Ba  Ba60  1  0.50000000  0.50000000  0.50000000  1
  Ba  Ba61  1  0.00000000  0.50000000  0.50000000  1
  Ba  Ba62  1  0.50000000  0.50000000  0.00000000  1
  Ba  Ba63  1  0.25000000  0.75000000  0.75000000  1
  Na  Na64  1  0.87500000  0.37500000  0.12500000  1
  Na  Na65  1  0.12500000  0.87500000  0.37500000  1
  Na  Na66  1  0.37500000  0.12500000  0.87500000  1
  Na  Na67  1  0.12500000  0.12500000  0.12500000  1
  Na  Na68  1  0.12500000  0.62500000  0.87500000  1
  Na  Na69  1  0.87500000  0.12500000  0.62500000  1
  Na  Na70  1  0.62500000  0.87500000  0.12500000  1
  Na  Na71  1  0.37500000  0.37500000  0.37500000  1
  Na  Na72  1  0.37500000  0.87500000  0.62500000  1
  Na  Na73  1  0.62500000  0.37500000  0.87500000  1
  Na  Na74  1  0.87500000  0.62500000  0.37500000  1
  Na  Na75  1  0.62500000  0.62500000  0.62500000  1
  Na  Na76  1  0.62500000  0.12500000  0.37500000  1
  Na  Na77  1  0.37500000  0.62500000  0.12500000  1
  Na  Na78  1  0.12500000  0.37500000  0.62500000  1
  Na  Na79  1  0.87500000  0.87500000  0.87500000  1
  B  B80  1  0.60859200  0.35859200  0.37500000  1
  B  B81  1  0.10859200  0.35859200  0.12500000  1
  B  B82  1  0.60859200  0.14140800  0.87500000  1
  B  B83  1  0.39140800  0.35859200  0.87500000  1
  B  B84  1  0.35859200  0.12500000  0.10859200  1
  B  B85  1  0.35859200  0.87500000  0.39140800  1
  B  B86  1  0.87500000  0.60859200  0.14140800  1
  B  B87  1  0.12500000  0.10859200  0.35859200  1
  B  B88  1  0.87500000  0.39140800  0.35859200  1
  B  B89  1  0.35859200  0.62500000  0.89140800  1
  B  B90  1  0.37500000  0.60859200  0.35859200  1
  B  B91  1  0.35859200  0.37500000  0.60859200  1
  B  B92  1  0.62500000  0.10859200  0.14140800  1
  B  B93  1  0.37500000  0.39140800  0.14140800  1
  B  B94  1  0.62500000  0.89140800  0.35859200  1
  B  B95  1  0.14140800  0.62500000  0.10859200  1
  B  B96  1  0.14140800  0.37500000  0.39140800  1
  B  B97  1  0.10859200  0.14140800  0.62500000  1
  B  B98  1  0.89140800  0.35859200  0.62500000  1
  B  B99  1  0.39140800  0.14140800  0.37500000  1
  B  B100  1  0.89140800  0.14140800  0.12500000  1
  B  B101  1  0.14140800  0.87500000  0.60859200  1
  B  B102  1  0.12500000  0.89140800  0.14140800  1
  B  B103  1  0.14140800  0.12500000  0.89140800  1
  B  B104  1  0.10859200  0.85859200  0.87500000  1
  B  B105  1  0.60859200  0.85859200  0.62500000  1
  B  B106  1  0.10859200  0.64140800  0.37500000  1
  B  B107  1  0.89140800  0.85859200  0.37500000  1
  B  B108  1  0.85859200  0.62500000  0.60859200  1
  B  B109  1  0.85859200  0.37500000  0.89140800  1
  B  B110  1  0.37500000  0.10859200  0.64140800  1
  B  B111  1  0.62500000  0.60859200  0.85859200  1
  B  B112  1  0.37500000  0.89140800  0.85859200  1
  B  B113  1  0.85859200  0.12500000  0.39140800  1
  B  B114  1  0.87500000  0.10859200  0.85859200  1
  B  B115  1  0.85859200  0.87500000  0.10859200  1
  B  B116  1  0.12500000  0.60859200  0.64140800  1
  B  B117  1  0.87500000  0.89140800  0.64140800  1
  B  B118  1  0.12500000  0.39140800  0.85859200  1
  B  B119  1  0.64140800  0.12500000  0.60859200  1
  B  B120  1  0.64140800  0.87500000  0.89140800  1
  B  B121  1  0.60859200  0.64140800  0.12500000  1
  B  B122  1  0.39140800  0.85859200  0.12500000  1
  B  B123  1  0.89140800  0.64140800  0.87500000  1
  B  B124  1  0.39140800  0.64140800  0.62500000  1
  B  B125  1  0.64140800  0.37500000  0.10859200  1
  B  B126  1  0.62500000  0.39140800  0.64140800  1
  B  B127  1  0.64140800  0.62500000  0.39140800  1
  O  O128  1  0.12200300  0.47660800  0.87899100  1
  O  O129  1  0.08056400  0.62500000  0.16943600  1
  O  O130  1  0.12500000  0.33056400  0.91943600  1
  O  O131  1  0.37500000  0.33056400  0.08056400  1
  O  O132  1  0.62500000  0.16943600  0.08056400  1
  O  O133  1  0.41943600  0.37500000  0.66943600  1
  O  O134  1  0.37500000  0.66943600  0.41943600  1
  O  O135  1  0.66943600  0.41943600  0.37500000  1
  O  O136  1  0.02339200  0.37899100  0.12200300  1
  O  O137  1  0.62899100  0.22660800  0.87200300  1
  O  O138  1  0.37100900  0.27339200  0.87200300  1
  O  O139  1  0.27339200  0.12799700  0.12899100  1
  O  O140  1  0.27339200  0.87200300  0.37100900  1
  O  O141  1  0.87200300  0.62899100  0.22660800  1
  O  O142  1  0.12799700  0.12899100  0.27339200  1
  O  O143  1  0.87799700  0.47660800  0.37899100  1
  O  O144  1  0.12100900  0.12200300  0.97660800  1
  O  O145  1  0.12200300  0.97660800  0.12100900  1
  O  O146  1  0.62100900  0.37799700  0.02339200  1
  O  O147  1  0.12200300  0.02339200  0.37899100  1
  O  O148  1  0.37899100  0.12200300  0.02339200  1
  O  O149  1  0.37899100  0.87799700  0.47660800  1
  O  O150  1  0.37799700  0.02339200  0.62100900  1
  O  O151  1  0.97660800  0.12100900  0.12200300  1
  O  O152  1  0.37100900  0.72660800  0.62799700  1
  O  O153  1  0.02339200  0.62100900  0.37799700  1
  O  O154  1  0.22660800  0.87200300  0.62899100  1
  O  O155  1  0.47660800  0.37899100  0.87799700  1
  O  O156  1  0.87200300  0.37100900  0.27339200  1
  O  O157  1  0.12899100  0.27339200  0.12799700  1
  O  O158  1  0.72660800  0.62799700  0.37100900  1
  O  O159  1  0.62799700  0.37100900  0.72660800  1
  O  O160  1  0.47660800  0.12100900  0.37799700  1
  O  O161  1  0.87100900  0.27339200  0.62799700  1
  O  O162  1  0.12899100  0.22660800  0.62799700  1
  O  O163  1  0.22660800  0.37200300  0.37100900  1
  O  O164  1  0.22660800  0.62799700  0.12899100  1
  O  O165  1  0.62799700  0.87100900  0.27339200  1
  O  O166  1  0.37200300  0.37100900  0.22660800  1
  O  O167  1  0.62200300  0.02339200  0.12100900  1
  O  O168  1  0.37899100  0.37799700  0.52339200  1
  O  O169  1  0.37799700  0.52339200  0.37899100  1
  O  O170  1  0.87899100  0.12200300  0.47660800  1
  O  O171  1  0.37799700  0.47660800  0.12100900  1
  O  O172  1  0.12100900  0.37799700  0.47660800  1
  O  O173  1  0.12100900  0.62200300  0.02339200  1
  O  O174  1  0.91943600  0.12500000  0.33056400  1
  O  O175  1  0.52339200  0.37899100  0.37799700  1
  O  O176  1  0.12899100  0.77339200  0.87200300  1
  O  O177  1  0.47660800  0.87899100  0.12200300  1
  O  O178  1  0.27339200  0.62799700  0.87100900  1
  O  O179  1  0.02339200  0.12100900  0.62200300  1
  O  O180  1  0.08056400  0.37500000  0.33056400  1
  O  O181  1  0.37100900  0.22660800  0.37200300  1
  O  O182  1  0.77339200  0.87200300  0.12899100  1
  O  O183  1  0.87200300  0.12899100  0.77339200  1
  O  O184  1  0.16943600  0.41943600  0.12500000  1
  O  O185  1  0.16943600  0.58056400  0.37500000  1
  O  O186  1  0.33056400  0.41943600  0.87500000  1
  O  O187  1  0.41943600  0.12500000  0.16943600  1
  O  O188  1  0.41943600  0.87500000  0.33056400  1
  O  O189  1  0.37500000  0.16943600  0.58056400  1
  O  O190  1  0.12500000  0.16943600  0.41943600  1
  O  O191  1  0.87500000  0.33056400  0.41943600  1
  O  O192  1  0.08056400  0.12500000  0.83056400  1
  O  O193  1  0.12500000  0.83056400  0.08056400  1
  O  O194  1  0.58056400  0.37500000  0.16943600  1
  O  O195  1  0.83056400  0.08056400  0.12500000  1
  O  O196  1  0.33056400  0.08056400  0.37500000  1
  O  O197  1  0.33056400  0.91943600  0.12500000  1
  O  O198  1  0.16943600  0.08056400  0.62500000  1
  O  O199  1  0.62799700  0.12899100  0.22660800  1
  O  O200  1  0.62200300  0.97660800  0.37899100  1
  O  O201  1  0.58056400  0.12500000  0.66943600  1
  O  O202  1  0.62500000  0.83056400  0.41943600  1
  O  O203  1  0.87500000  0.83056400  0.58056400  1
  O  O204  1  0.12500000  0.66943600  0.58056400  1
  O  O205  1  0.91943600  0.87500000  0.16943600  1
  O  O206  1  0.87500000  0.16943600  0.91943600  1
  O  O207  1  0.16943600  0.91943600  0.87500000  1
  O  O208  1  0.52339200  0.87899100  0.62200300  1
  O  O209  1  0.12899100  0.72660800  0.37200300  1
  O  O210  1  0.87100900  0.77339200  0.37200300  1
  O  O211  1  0.77339200  0.62799700  0.62899100  1
  O  O212  1  0.77339200  0.37200300  0.87100900  1
  O  O213  1  0.37200300  0.12899100  0.72660800  1
  O  O214  1  0.62799700  0.62899100  0.77339200  1
  O  O215  1  0.37799700  0.97660800  0.87899100  1
  O  O216  1  0.62100900  0.62200300  0.47660800  1
  O  O217  1  0.62200300  0.47660800  0.62100900  1
  O  O218  1  0.12100900  0.87799700  0.52339200  1
  O  O219  1  0.62200300  0.52339200  0.87899100  1
  O  O220  1  0.87899100  0.62200300  0.52339200  1
  O  O221  1  0.87899100  0.37799700  0.97660800  1
  O  O222  1  0.87799700  0.52339200  0.12100900  1
  O  O223  1  0.47660800  0.62100900  0.62200300  1
  O  O224  1  0.87100900  0.22660800  0.12799700  1
  O  O225  1  0.52339200  0.12100900  0.87799700  1
  O  O226  1  0.72660800  0.37200300  0.12899100  1
  O  O227  1  0.97660800  0.87899100  0.37799700  1
  O  O228  1  0.37200300  0.87100900  0.77339200  1
  O  O229  1  0.62899100  0.77339200  0.62799700  1
  O  O230  1  0.22660800  0.12799700  0.87100900  1
  O  O231  1  0.12799700  0.87100900  0.22660800  1
  O  O232  1  0.97660800  0.62100900  0.87799700  1
  O  O233  1  0.37100900  0.77339200  0.12799700  1
  O  O234  1  0.62899100  0.72660800  0.12799700  1
  O  O235  1  0.72660800  0.87200300  0.87100900  1
  O  O236  1  0.72660800  0.12799700  0.62899100  1
  O  O237  1  0.12799700  0.37100900  0.77339200  1
  O  O238  1  0.87200300  0.87100900  0.72660800  1
  O  O239  1  0.12200300  0.52339200  0.62100900  1
  O  O240  1  0.87899100  0.87799700  0.02339200  1
  O  O241  1  0.87799700  0.02339200  0.87899100  1
  O  O242  1  0.37899100  0.62200300  0.97660800  1
  O  O243  1  0.87799700  0.97660800  0.62100900  1
  O  O244  1  0.62100900  0.87799700  0.97660800  1
  O  O245  1  0.62100900  0.12200300  0.52339200  1
  O  O246  1  0.41943600  0.62500000  0.83056400  1
  O  O247  1  0.02339200  0.87899100  0.87799700  1
  O  O248  1  0.62899100  0.27339200  0.37200300  1
  O  O249  1  0.97660800  0.37899100  0.62200300  1
  O  O250  1  0.77339200  0.12799700  0.37100900  1
  O  O251  1  0.52339200  0.62100900  0.12200300  1
  O  O252  1  0.58056400  0.87500000  0.83056400  1
  O  O253  1  0.87100900  0.72660800  0.87200300  1
  O  O254  1  0.27339200  0.37200300  0.62899100  1
  O  O255  1  0.37200300  0.62899100  0.27339200  1
  O  O256  1  0.66943600  0.91943600  0.62500000  1
  O  O257  1  0.66943600  0.08056400  0.87500000  1
  O  O258  1  0.83056400  0.91943600  0.37500000  1
  O  O259  1  0.91943600  0.62500000  0.66943600  1
  O  O260  1  0.91943600  0.37500000  0.83056400  1
  O  O261  1  0.87500000  0.66943600  0.08056400  1
  O  O262  1  0.62500000  0.66943600  0.91943600  1
  O  O263  1  0.37500000  0.83056400  0.91943600  1
  O  O264  1  0.58056400  0.62500000  0.33056400  1
  O  O265  1  0.62500000  0.33056400  0.58056400  1
  O  O266  1  0.08056400  0.87500000  0.66943600  1
  O  O267  1  0.33056400  0.58056400  0.62500000  1
  O  O268  1  0.83056400  0.58056400  0.87500000  1
  O  O269  1  0.83056400  0.41943600  0.62500000  1
  O  O270  1  0.66943600  0.58056400  0.12500000  1
  O  O271  1  0.12799700  0.62899100  0.72660800  1
