# generated using pymatgen
data_InSnBr3
_symmetry_space_group_name_H-M   'P 1'
_cell_length_a   12.05966200
_cell_length_b   12.22797743
_cell_length_c   18.03637887
_cell_angle_alpha   90.38692803
_cell_angle_beta   89.98107970
_cell_angle_gamma   94.97603382
_symmetry_Int_Tables_number   1
_chemical_formula_structural   InSnBr3
_chemical_formula_sum   'In16 Sn16 Br48'
_cell_volume   2649.65467721
_cell_formula_units_Z   16
loop_
 _symmetry_equiv_pos_site_id
 _symmetry_equiv_pos_as_xyz
  1  'x, y, z'
loop_
 _atom_site_type_symbol
 _atom_site_label
 _atom_site_symmetry_multiplicity
 _atom_site_fract_x
 _atom_site_fract_y
 _atom_site_fract_z
 _atom_site_occupancy
  In  In0  1  0.50118700  0.50138100  0.00142200  1
  In  In1  1  0.22004700  0.40106200  0.74998200  1
  In  In2  1  0.00290500  0.00507600  0.50009900  1
  In  In3  1  0.94080400  0.44342800  0.91315200  1
  In  In4  1  0.90064600  0.72060600  0.74814400  1
  In  In5  1  0.72452700  0.89354100  0.25529800  1
  In  In6  1  0.60773900  0.77040500  0.75289100  1
  In  In7  1  0.55960900  0.05774200  0.58129400  1
  In  In8  1  0.50851200  0.49940700  0.49915900  1
  In  In9  1  0.44454200  0.94042200  0.08370300  1
  In  In10  1  0.39557600  0.22805600  0.25211400  1
  In  In11  1  0.27534600  0.10989500  0.75369400  1
  In  In12  1  0.09985100  0.27794000  0.24948800  1
  In  In13  1  0.05491600  0.55665700  0.41403100  1
  In  In14  1  0.00127300  0.00064100  0.00104400  1
  In  In15  1  0.77634300  0.60056500  0.25138700  1
  Sn  Sn16  1  0.22843100  0.27975400  0.51142900  1
  Sn  Sn17  1  0.22603900  0.27742900  0.00206100  1
  Sn  Sn18  1  0.27044800  0.77360100  0.89004900  1
  Sn  Sn19  1  0.90535100  0.42250800  0.59485500  1
  Sn  Sn20  1  0.89943600  0.08545800  0.75714900  1
  Sn  Sn21  1  0.77774100  0.76288300  0.49931900  1
  Sn  Sn22  1  0.73973300  0.25068600  0.39139600  1
  Sn  Sn23  1  0.59004400  0.40228500  0.74916800  1
  Sn  Sn24  1  0.58547700  0.09333000  0.90497200  1
  Sn  Sn25  1  0.41539500  0.90570200  0.40654700  1
  Sn  Sn26  1  0.40768500  0.59357600  0.25349000  1
  Sn  Sn27  1  0.26653200  0.76979200  0.61087800  1
  Sn  Sn28  1  0.11405200  0.92195800  0.25169900  1
  Sn  Sn29  1  0.07889800  0.59201500  0.09423900  1
  Sn  Sn30  1  0.73126800  0.22872500  0.11186500  1
  Sn  Sn31  1  0.77127300  0.71778600  0.00780700  1
  Br  Br32  1  0.49489200  0.77706900  0.92595300  1
  Br  Br33  1  0.43845100  0.55870100  0.74927800  1
  Br  Br34  1  0.22222700  0.47746500  0.93302500  1
  Br  Br35  1  0.21486000  0.48631400  0.56548700  1
  Br  Br36  1  0.12840300  0.62803400  0.74897900  1
  Br  Br37  1  0.06655800  0.19869100  0.86767000  1
  Br  Br38  1  0.07445800  0.21259400  0.62601400  1
  Br  Br39  1  0.02293200  0.27801900  0.43297200  1
  Br  Br40  1  0.98063900  0.71936800  0.93326600  1
  Br  Br41  1  0.94207300  0.05878200  0.25403600  1
  Br  Br42  1  0.88486800  0.37654700  0.74256500  1
  Br  Br43  1  0.79078600  0.95181100  0.86822800  1
  Br  Br44  1  0.79292500  0.93215100  0.62958200  1
  Br  Br45  1  0.74916100  0.25214000  0.93588600  1
  Br  Br46  1  0.75621300  0.24799600  0.56234900  1
  Br  Br47  1  0.71843000  0.99029500  0.43144100  1
  Br  Br48  1  0.73312800  0.00855200  0.07097000  1
  Br  Br49  1  0.71297300  0.55104200  0.63120800  1
  Br  Br50  1  0.70068800  0.56641100  0.86898100  1
  Br  Br51  1  0.63783700  0.13557500  0.24879400  1
  Br  Br52  1  0.61752700  0.11783200  0.75489700  1
  Br  Br53  1  0.56770200  0.70539700  0.13151500  1
  Br  Br54  1  0.55162300  0.70954600  0.36870500  1
  Br  Br55  1  0.49371200  0.77161200  0.57153600  1
  Br  Br56  1  0.51205200  0.22932300  0.42538200  1
  Br  Br57  1  0.43685600  0.29515000  0.63479900  1
  Br  Br58  1  0.44327600  0.28240400  0.87082700  1
  Br  Br59  1  0.38383100  0.88046300  0.25581200  1
  Br  Br60  1  0.36472600  0.86505200  0.74849300  1
  Br  Br61  1  0.28591100  0.43229300  0.12703300  1
  Br  Br62  1  0.30081900  0.43911000  0.36387700  1
  Br  Br63  1  0.27621600  0.99336400  0.92863600  1
  Br  Br64  1  0.26950600  0.99052700  0.57081200  1
  Br  Br65  1  0.24794900  0.74903400  0.43555200  1
  Br  Br66  1  0.24870100  0.74578000  0.06273900  1
  Br  Br67  1  0.20384700  0.05538700  0.13760300  1
  Br  Br68  1  0.21407700  0.05167800  0.36924400  1
  Br  Br69  1  0.11627400  0.61926000  0.24210700  1
  Br  Br70  1  0.05880900  0.93777600  0.75045400  1
  Br  Br71  1  0.01684500  0.27918200  0.06582800  1
  Br  Br72  1  0.98034000  0.71847600  0.56661700  1
  Br  Br73  1  0.93230700  0.78232300  0.12659300  1
  Br  Br74  1  0.91986300  0.79016700  0.37514200  1
  Br  Br75  1  0.86936700  0.36890300  0.25156400  1
  Br  Br76  1  0.76959400  0.49724400  0.43133200  1
  Br  Br77  1  0.78632600  0.51308300  0.06640200  1
  Br  Br78  1  0.56253500  0.44058600  0.24746500  1
  Br  Br79  1  0.50508300  0.22593000  0.07216700  1
