# generated using pymatgen
data_Na7Zr4Si5PO24
_symmetry_space_group_name_H-M   'P 1'
_cell_length_a   9.23334700
_cell_length_b   9.24001998
_cell_length_c   9.27093084
_cell_angle_alpha   60.83706791
_cell_angle_beta   60.28308702
_cell_angle_gamma   60.18384451
_symmetry_Int_Tables_number   1
_chemical_formula_structural   Na7Zr4Si5PO24
_chemical_formula_sum   'Na7 Zr4 Si5 P1 O24'
_cell_volume   564.74860466
_cell_formula_units_Z   1
loop_
 _symmetry_equiv_pos_site_id
 _symmetry_equiv_pos_as_xyz
  1  'x, y, z'
loop_
 _atom_site_type_symbol
 _atom_site_label
 _atom_site_symmetry_multiplicity
 _atom_site_fract_x
 _atom_site_fract_y
 _atom_site_fract_z
 _atom_site_occupancy
  Na  Na0  1  0.99052700  0.00548000  0.99718400  1
  Na  Na1  1  0.25936100  0.89532300  0.21229100  1
  Na  Na2  1  0.89288700  0.60613200  0.24592200  1
  Na  Na3  1  0.46058300  0.68322800  0.56299600  1
  Na  Na4  1  0.57881400  0.25292500  0.34086600  1
  Na  Na5  1  0.12147300  0.39775800  0.73285800  1
  Na  Na6  1  0.74389700  0.12580200  0.75430400  1
  Zr  Zr7  1  0.85398700  0.84206000  0.44346100  1
  Zr  Zr8  1  0.65431600  0.64088900  0.06156500  1
  Zr  Zr9  1  0.34948700  0.35628900  0.94121100  1
  Zr  Zr10  1  0.14920700  0.14854100  0.55473500  1
  Si  Si11  1  0.55252600  0.96547700  0.23335400  1
  Si  Si12  1  0.24900000  0.53527100  0.25975600  1
  Si  Si13  1  0.96448400  0.24492000  0.24263700  1
  Si  Si14  1  0.03527700  0.75034200  0.76293800  1
  Si  Si15  1  0.75281500  0.46365800  0.73679900  1
  P  P16  1  0.44965500  0.03773300  0.75891800  1
  O  O17  1  0.48299000  0.88737300  0.92664500  1
  O  O18  1  0.87201500  0.72397500  0.94882300  1
  O  O19  1  0.73322300  0.94072900  0.24942300  1
  O  O20  1  0.73854300  0.52777000  0.88088800  1
  O  O21  1  0.38159300  0.00997600  0.40730700  1
  O  O22  1  0.55788900  0.77965000  0.24327100  1
  O  O23  1  0.08627800  0.72380700  0.26596000  1
  O  O24  1  0.43120400  0.56186900  0.21222200  1
  O  O25  1  0.78403900  0.41462100  0.22494100  1
  O  O26  1  0.98052400  0.77144200  0.60747900  1
  O  O27  1  0.06319100  0.92973400  0.72393100  1
  O  O28  1  0.78334100  0.61963700  0.54473500  1
  O  O29  1  0.22353000  0.37325000  0.44598800  1
  O  O30  1  0.93099500  0.06869300  0.28300000  1
  O  O31  1  0.00185000  0.23130600  0.40583100  1
  O  O32  1  0.21795100  0.57931700  0.76618900  1
  O  O33  1  0.57486300  0.43366700  0.77466200  1
  O  O34  1  0.91944900  0.27621600  0.73764800  1
  O  O35  1  0.44152700  0.21295200  0.75243200  1
  O  O36  1  0.60666200  0.99443200  0.59336400  1
  O  O37  1  0.25236500  0.48192300  0.11318000  1
  O  O38  1  0.27193400  0.06429400  0.75466900  1
  O  O39  1  0.13696300  0.26168900  0.06393200  1
  O  O40  1  0.52278500  0.12444900  0.05488000  1
