# generated using pymatgen
data_Mg2NiH4
_symmetry_space_group_name_H-M   'P 1'
_cell_length_a   14.40202400
_cell_length_b   6.41315000
_cell_length_c   6.50055632
_cell_angle_alpha   90.00000000
_cell_angle_beta   113.45193603
_cell_angle_gamma   90.00000000
_symmetry_Int_Tables_number   1
_chemical_formula_structural   Mg2NiH4
_chemical_formula_sum   'Mg16 Ni8 H32'
_cell_volume   550.80955833
_cell_formula_units_Z   8
loop_
 _symmetry_equiv_pos_site_id
 _symmetry_equiv_pos_as_xyz
  1  'x, y, z'
loop_
 _atom_site_type_symbol
 _atom_site_label
 _atom_site_symmetry_multiplicity
 _atom_site_fract_x
 _atom_site_fract_y
 _atom_site_fract_z
 _atom_site_occupancy
  Mg  Mg0  1  0.23420400  0.01597000  0.91112000  1
  Mg  Mg1  1  0.26579600  0.51597000  0.58888000  1
  Mg  Mg2  1  0.26579600  0.48403000  0.08888000  1
  Mg  Mg3  1  0.23420400  0.98403000  0.41112000  1
  Mg  Mg4  1  0.00000000  0.97133700  0.75000000  1
  Mg  Mg5  1  0.00000000  0.02866300  0.25000000  1
  Mg  Mg6  1  0.00000000  0.46870200  0.75000000  1
  Mg  Mg7  1  0.00000000  0.53129800  0.25000000  1
  Mg  Mg8  1  0.73420400  0.51597000  0.91112000  1
  Mg  Mg9  1  0.76579600  0.01597000  0.58888000  1
  Mg  Mg10  1  0.76579600  0.98403000  0.08888000  1
  Mg  Mg11  1  0.73420400  0.48403000  0.41112000  1
  Mg  Mg12  1  0.50000000  0.47133700  0.75000000  1
  Mg  Mg13  1  0.50000000  0.52866300  0.25000000  1
  Mg  Mg14  1  0.50000000  0.96870200  0.75000000  1
  Mg  Mg15  1  0.50000000  0.03129800  0.25000000  1
  Ni  Ni16  1  0.37948850  0.27217650  0.92310600  1
  Ni  Ni17  1  0.12051150  0.77217650  0.57689400  1
  Ni  Ni18  1  0.12051150  0.22782350  0.07689400  1
  Ni  Ni19  1  0.37948850  0.72782350  0.42310600  1
  Ni  Ni20  1  0.87948850  0.77217650  0.92310600  1
  Ni  Ni21  1  0.62051150  0.27217650  0.57689400  1
  Ni  Ni22  1  0.62051150  0.72782350  0.07689400  1
  Ni  Ni23  1  0.87948850  0.22782350  0.42310600  1
  H  H24  1  0.29090000  0.19862900  0.69975300  1
  H  H25  1  0.20910000  0.69862900  0.80024700  1
  H  H26  1  0.20910000  0.30137100  0.30024700  1
  H  H27  1  0.29090000  0.80137100  0.19975300  1
  H  H28  1  0.36075800  0.17691900  0.12288900  1
  H  H29  1  0.13924200  0.67691900  0.37711100  1
  H  H30  1  0.13924200  0.32308100  0.87711100  1
  H  H31  1  0.36075800  0.82308100  0.62288900  1
  H  H32  1  0.48695950  0.20770450  0.94099400  1
  H  H33  1  0.01304050  0.70770450  0.55900600  1
  H  H34  1  0.01304050  0.29229550  0.05900600  1
  H  H35  1  0.48695950  0.79229550  0.44099400  1
  H  H36  1  0.37559500  0.51257700  0.93325900  1
  H  H37  1  0.12440500  0.01257700  0.56674100  1
  H  H38  1  0.12440500  0.98742300  0.06674100  1
  H  H39  1  0.37559500  0.48742300  0.43325900  1
  H  H40  1  0.79090000  0.69862900  0.69975300  1
  H  H41  1  0.70910000  0.19862900  0.80024700  1
  H  H42  1  0.70910000  0.80137100  0.30024700  1
  H  H43  1  0.79090000  0.30137100  0.19975300  1
  H  H44  1  0.86075800  0.67691900  0.12288900  1
  H  H45  1  0.63924200  0.17691900  0.37711100  1
  H  H46  1  0.63924200  0.82308100  0.87711100  1
  H  H47  1  0.86075800  0.32308100  0.62288900  1
  H  H48  1  0.98695950  0.70770450  0.94099400  1
  H  H49  1  0.51304050  0.20770450  0.55900600  1
  H  H50  1  0.51304050  0.79229550  0.05900600  1
  H  H51  1  0.98695950  0.29229550  0.44099400  1
  H  H52  1  0.87559500  0.01257700  0.93325900  1
  H  H53  1  0.62440500  0.51257700  0.56674100  1
  H  H54  1  0.62440500  0.48742300  0.06674100  1
  H  H55  1  0.87559500  0.98742300  0.43325900  1
