# generated using pymatgen
data_Na4H6Ru
_symmetry_space_group_name_H-M   'P 1'
_cell_length_a   9.12937835
_cell_length_b   9.12937835
_cell_length_c   11.41987336
_cell_angle_alpha   90.00000000
_cell_angle_beta   90.00000000
_cell_angle_gamma   120.00000000
_symmetry_Int_Tables_number   1
_chemical_formula_structural   Na4H6Ru
_chemical_formula_sum   'Na24 H36 Ru6'
_cell_volume   824.27918153
_cell_formula_units_Z   6
loop_
 _symmetry_equiv_pos_site_id
 _symmetry_equiv_pos_as_xyz
  1  'x, y, z'
loop_
 _atom_site_type_symbol
 _atom_site_label
 _atom_site_symmetry_multiplicity
 _atom_site_fract_x
 _atom_site_fract_y
 _atom_site_fract_z
 _atom_site_occupancy
  Na  Na0  1  0.33333333  0.66666667  0.91666667  1
  Na  Na1  1  0.33333333  0.66666667  0.41666667  1
  Na  Na2  1  0.38760800  0.38760800  0.25000000  1
  Na  Na3  1  0.61239200  0.00000000  0.25000000  1
  Na  Na4  1  0.00000000  0.61239200  0.25000000  1
  Na  Na5  1  0.05427467  0.33333333  0.08333333  1
  Na  Na6  1  0.66666667  0.72094133  0.08333333  1
  Na  Na7  1  0.27905867  0.94572533  0.08333333  1
  Na  Na8  1  0.00000000  0.00000000  0.25000000  1
  Na  Na9  1  0.00000000  0.00000000  0.75000000  1
  Na  Na10  1  0.05427467  0.72094133  0.58333333  1
  Na  Na11  1  0.27905867  0.33333333  0.58333333  1
  Na  Na12  1  0.66666667  0.94572533  0.58333333  1
  Na  Na13  1  0.72094133  0.66666667  0.41666667  1
  Na  Na14  1  0.33333333  0.05427467  0.41666667  1
  Na  Na15  1  0.94572533  0.27905867  0.41666667  1
  Na  Na16  1  0.66666667  0.33333333  0.58333333  1
  Na  Na17  1  0.66666667  0.33333333  0.08333333  1
  Na  Na18  1  0.72094133  0.05427467  0.91666667  1
  Na  Na19  1  0.94572533  0.66666667  0.91666667  1
  Na  Na20  1  0.33333333  0.27905867  0.91666667  1
  Na  Na21  1  0.38760800  0.00000000  0.75000000  1
  Na  Na22  1  0.00000000  0.38760800  0.75000000  1
  Na  Na23  1  0.61239200  0.61239200  0.75000000  1
  H  H24  1  0.47072500  0.83718700  0.07939500  1
  H  H25  1  0.16281300  0.63353800  0.07939500  1
  H  H26  1  0.36646200  0.52927500  0.07939500  1
  H  H27  1  0.80405833  0.30020467  0.24606167  1
  H  H28  1  0.69979533  0.50385367  0.24606167  1
  H  H29  1  0.49614633  0.19594167  0.24606167  1
  H  H30  1  0.19594167  0.49614633  0.25393833  1
  H  H31  1  0.50385367  0.69979533  0.25393833  1
  H  H32  1  0.30020467  0.80405833  0.25393833  1
  H  H33  1  0.86260833  0.03312867  0.08727167  1
  H  H34  1  0.96687133  0.82947967  0.08727167  1
  H  H35  1  0.17052033  0.13739167  0.08727167  1
  H  H36  1  0.13739167  0.17052033  0.41272833  1
  H  H37  1  0.82947967  0.96687133  0.41272833  1
  H  H38  1  0.03312867  0.86260833  0.41272833  1
  H  H39  1  0.47072500  0.63353800  0.57939500  1
  H  H40  1  0.36646200  0.83718700  0.57939500  1
  H  H41  1  0.16281300  0.52927500  0.57939500  1
  H  H42  1  0.86260833  0.82947967  0.58727167  1
  H  H43  1  0.17052033  0.03312867  0.58727167  1
  H  H44  1  0.96687133  0.13739167  0.58727167  1
  H  H45  1  0.52927500  0.36646200  0.42060500  1
  H  H46  1  0.63353800  0.16281300  0.42060500  1
  H  H47  1  0.83718700  0.47072500  0.42060500  1
  H  H48  1  0.80405833  0.50385367  0.74606167  1
  H  H49  1  0.49614633  0.30020467  0.74606167  1
  H  H50  1  0.69979533  0.19594167  0.74606167  1
  H  H51  1  0.13739167  0.96687133  0.91272833  1
  H  H52  1  0.03312867  0.17052033  0.91272833  1
  H  H53  1  0.82947967  0.86260833  0.91272833  1
  H  H54  1  0.52927500  0.16281300  0.92060500  1
  H  H55  1  0.83718700  0.36646200  0.92060500  1
  H  H56  1  0.63353800  0.47072500  0.92060500  1
  H  H57  1  0.19594167  0.69979533  0.75393833  1
  H  H58  1  0.30020467  0.49614633  0.75393833  1
  H  H59  1  0.50385367  0.80405833  0.75393833  1
  Ru  Ru60  1  0.33333333  0.66666667  0.16666667  1
  Ru  Ru61  1  0.00000000  0.00000000  0.00000000  1
  Ru  Ru62  1  1.00000000  0.00000000  0.50000000  1
  Ru  Ru63  1  0.66666667  0.33333333  0.33333333  1
  Ru  Ru64  1  0.66666667  0.33333333  0.83333333  1
  Ru  Ru65  1  0.33333333  0.66666667  0.66666667  1
