# generated using pymatgen
data_K2HS2NO6
_symmetry_space_group_name_H-M   'P 1'
_cell_length_a   7.38778000
_cell_length_b   7.28558300
_cell_length_c   7.91878914
_cell_angle_alpha   90.00000000
_cell_angle_beta   94.46223115
_cell_angle_gamma   90.00000000
_symmetry_Int_Tables_number   1
_chemical_formula_structural   K2HS2NO6
_chemical_formula_sum   'K4 H2 S4 N2 O12'
_cell_volume   424.93120675
_cell_formula_units_Z   2
loop_
 _symmetry_equiv_pos_site_id
 _symmetry_equiv_pos_as_xyz
  1  'x, y, z'
loop_
 _atom_site_type_symbol
 _atom_site_label
 _atom_site_symmetry_multiplicity
 _atom_site_fract_x
 _atom_site_fract_y
 _atom_site_fract_z
 _atom_site_occupancy
  K  K0  1  0.88498100  0.33846400  0.72395700  1
  K  K1  1  0.62585300  0.33127400  0.27186800  1
  K  K2  1  0.38498100  0.66153600  0.72395700  1
  K  K3  1  0.12585300  0.66872600  0.27186800  1
  H  H4  1  0.66289200  0.02426500  0.54345800  1
  H  H5  1  0.16289200  0.97573500  0.54345800  1
  S  S6  1  0.86588500  0.82000300  0.66325800  1
  S  S7  1  0.63095600  0.81265500  0.33288900  1
  S  S8  1  0.36588500  0.17999700  0.66325800  1
  S  S9  1  0.13095600  0.18734500  0.33288900  1
  N  N10  1  0.74662000  0.92475000  0.49817200  1
  N  N11  1  0.24662000  0.07525000  0.49817200  1
  O  O12  1  0.98609900  0.29959100  0.40015100  1
  O  O13  1  0.92697400  0.97494600  0.76922800  1
  O  O14  1  0.76633100  0.69595700  0.26063200  1
  O  O15  1  0.74859900  0.68890200  0.74374800  1
  O  O16  1  0.56187100  0.96538600  0.22794200  1
  O  O17  1  0.51693800  0.27569400  0.58769700  1
  O  O18  1  0.48609900  0.70040900  0.40015100  1
  O  O19  1  0.42697400  0.02505400  0.76922800  1
  O  O20  1  0.26633100  0.30404300  0.26063200  1
  O  O21  1  0.24859900  0.31109800  0.74374800  1
  O  O22  1  0.06187100  0.03461400  0.22794200  1
  O  O23  1  0.01693800  0.72430600  0.58769700  1
