# generated using pymatgen
data_CsCd(NO2)3
_symmetry_space_group_name_H-M   'P 1'
_cell_length_a   7.91986282
_cell_length_b   7.91986282
_cell_length_c   9.62110624
_cell_angle_alpha   90.00000000
_cell_angle_beta   90.00000000
_cell_angle_gamma   120.00000000
_symmetry_Int_Tables_number   1
_chemical_formula_structural   CsCd(NO2)3
_chemical_formula_sum   'Cs3 Cd3 N9 O18'
_cell_volume   522.62593854
_cell_formula_units_Z   3
loop_
 _symmetry_equiv_pos_site_id
 _symmetry_equiv_pos_as_xyz
  1  'x, y, z'
loop_
 _atom_site_type_symbol
 _atom_site_label
 _atom_site_symmetry_multiplicity
 _atom_site_fract_x
 _atom_site_fract_y
 _atom_site_fract_z
 _atom_site_occupancy
  Cs  Cs0  1  0.00000000  0.00000000  0.44527000  1
  Cs  Cs1  1  0.66666667  0.33333333  0.77860333  1
  Cs  Cs2  1  0.33333333  0.66666667  0.11193667  1
  Cd  Cd3  1  0.00000000  0.00000000  0.98025600  1
  Cd  Cd4  1  0.66666667  0.33333333  0.31358933  1
  Cd  Cd5  1  0.33333333  0.66666667  0.64692267  1
  N  N6  1  0.15219400  0.27886800  0.80562000  1
  N  N7  1  0.12667400  0.84780600  0.80562000  1
  N  N8  1  0.72113200  0.87332600  0.80562000  1
  N  N9  1  0.81886067  0.61220133  0.13895333  1
  N  N10  1  0.79334067  0.18113933  0.13895333  1
  N  N11  1  0.38779867  0.20665933  0.13895333  1
  N  N12  1  0.48552733  0.94553467  0.47228667  1
  N  N13  1  0.46000733  0.51447267  0.47228667  1
  N  N14  1  0.05446533  0.53999267  0.47228667  1
  O  O15  1  0.22929467  0.94593933  0.70512933  1
  O  O16  1  0.05406067  0.28335533  0.70512933  1
  O  O17  1  0.90344833  0.55480567  0.49056467  1
  O  O18  1  0.44519433  0.34864267  0.49056467  1
  O  O19  1  0.65135733  0.09655167  0.49056467  1
  O  O20  1  0.71664467  0.77070533  0.70512933  1
  O  O21  1  0.89596133  0.27927267  0.03846267  1
  O  O22  1  0.72072733  0.61668867  0.03846267  1
  O  O23  1  0.57011500  0.88813900  0.82389800  1
  O  O24  1  0.11186100  0.68197600  0.82389800  1
  O  O25  1  0.31802400  0.42988500  0.82389800  1
  O  O26  1  0.38331133  0.10403867  0.03846267  1
  O  O27  1  0.56262800  0.61260600  0.37179600  1
  O  O28  1  0.38739400  0.95002200  0.37179600  1
  O  O29  1  0.23678167  0.22147233  0.15723133  1
  O  O30  1  0.77852767  0.01530933  0.15723133  1
  O  O31  1  0.98469067  0.76321833  0.15723133  1
  O  O32  1  0.04997800  0.43737200  0.37179600  1
