# generated using pymatgen
data_TlP(HO2)2
_symmetry_space_group_name_H-M   'P 1'
_cell_length_a   6.56478400
_cell_length_b   4.62944400
_cell_length_c   14.64038830
_cell_angle_alpha   90.00000000
_cell_angle_beta   91.80822365
_cell_angle_gamma   90.00000000
_symmetry_Int_Tables_number   1
_chemical_formula_structural   TlP(HO2)2
_chemical_formula_sum   'Tl4 P4 H8 O16'
_cell_volume   444.71886979
_cell_formula_units_Z   4
loop_
 _symmetry_equiv_pos_site_id
 _symmetry_equiv_pos_as_xyz
  1  'x, y, z'
loop_
 _atom_site_type_symbol
 _atom_site_label
 _atom_site_symmetry_multiplicity
 _atom_site_fract_x
 _atom_site_fract_y
 _atom_site_fract_z
 _atom_site_occupancy
  Tl  Tl0  1  0.73508100  0.99783300  0.86777300  1
  Tl  Tl1  1  0.26491900  0.49783300  0.63222700  1
  Tl  Tl2  1  0.26491900  0.00216700  0.13222700  1
  Tl  Tl3  1  0.73508100  0.50216700  0.36777300  1
  P  P4  1  0.76046800  0.01746300  0.61911800  1
  P  P5  1  0.23953200  0.51746300  0.88088200  1
  P  P6  1  0.23953200  0.98253700  0.38088200  1
  P  P7  1  0.76046800  0.48253700  0.11911800  1
  H  H8  1  0.00000000  0.00000000  0.50000000  1
  H  H9  1  0.00000000  0.50000000  0.00000000  1
  H  H10  1  0.50000000  0.00000000  0.50000000  1
  H  H11  1  0.50000000  0.50000000  0.00000000  1
  H  H12  1  0.76027300  0.47542500  0.67703500  1
  H  H13  1  0.23972700  0.97542500  0.82296500  1
  H  H14  1  0.23972700  0.52457500  0.32296500  1
  H  H15  1  0.76027300  0.02457500  0.17703500  1
  O  O16  1  0.95706000  0.90552200  0.57359000  1
  O  O17  1  0.04294000  0.40552200  0.92641000  1
  O  O18  1  0.04294000  0.09447800  0.42641000  1
  O  O19  1  0.95706000  0.59447800  0.07359000  1
  O  O20  1  0.61056800  0.15147800  0.54630400  1
  O  O21  1  0.38943200  0.65147800  0.95369600  1
  O  O22  1  0.38943200  0.84852200  0.45369600  1
  O  O23  1  0.61056800  0.34852200  0.04630400  1
  O  O24  1  0.82893800  0.27509500  0.68542400  1
  O  O25  1  0.17106200  0.77509500  0.81457600  1
  O  O26  1  0.17106200  0.72490500  0.31457600  1
  O  O27  1  0.82893800  0.22490500  0.18542400  1
  O  O28  1  0.66830900  0.77831800  0.67677900  1
  O  O29  1  0.33169100  0.27831800  0.82322100  1
  O  O30  1  0.33169100  0.22168200  0.32322100  1
  O  O31  1  0.66830900  0.72168200  0.17677900  1
