# generated using pymatgen
data_Re2(HgO2)5
_symmetry_space_group_name_H-M   'P 1'
_cell_length_a   8.88335100
_cell_length_b   12.31429100
_cell_length_c   12.40367460
_cell_angle_alpha   90.00000000
_cell_angle_beta   97.40589402
_cell_angle_gamma   90.00000000
_symmetry_Int_Tables_number   1
_chemical_formula_structural   Re2(HgO2)5
_chemical_formula_sum   'Re8 Hg20 O40'
_cell_volume   1345.54577923
_cell_formula_units_Z   4
loop_
 _symmetry_equiv_pos_site_id
 _symmetry_equiv_pos_as_xyz
  1  'x, y, z'
loop_
 _atom_site_type_symbol
 _atom_site_label
 _atom_site_symmetry_multiplicity
 _atom_site_fract_x
 _atom_site_fract_y
 _atom_site_fract_z
 _atom_site_occupancy
  Re  Re0  1  0.70440100  0.46282200  0.07230600  1
  Re  Re1  1  0.30237700  0.98301900  0.07054400  1
  Re  Re2  1  0.30237700  0.51698100  0.57054400  1
  Re  Re3  1  0.69762300  0.48301900  0.42945600  1
  Re  Re4  1  0.70440100  0.03717800  0.57230600  1
  Re  Re5  1  0.29559900  0.53717800  0.92769400  1
  Re  Re6  1  0.29559900  0.96282200  0.42769400  1
  Re  Re7  1  0.69762300  0.01698100  0.92945600  1
  Hg  Hg8  1  0.99560100  0.28508200  0.59786400  1
  Hg  Hg9  1  0.60279700  0.77008000  0.23985600  1
  Hg  Hg10  1  0.00439900  0.78508200  0.90213600  1
  Hg  Hg11  1  0.32881900  0.79984000  0.74566200  1
  Hg  Hg12  1  0.12094500  0.02226600  0.75269100  1
  Hg  Hg13  1  0.87905500  0.97773400  0.24730900  1
  Hg  Hg14  1  0.87905500  0.52226600  0.74730900  1
  Hg  Hg15  1  0.67118100  0.29984000  0.75433800  1
  Hg  Hg16  1  0.00439900  0.71491800  0.40213600  1
  Hg  Hg17  1  0.60279700  0.72992000  0.73985600  1
  Hg  Hg18  1  0.32881900  0.70016000  0.24566200  1
  Hg  Hg19  1  0.99560100  0.21491800  0.09786400  1
  Hg  Hg20  1  0.06077000  0.25608100  0.90220400  1
  Hg  Hg21  1  0.39720300  0.22992000  0.76014400  1
  Hg  Hg22  1  0.12094500  0.47773400  0.25269100  1
  Hg  Hg23  1  0.93923000  0.75608100  0.59779600  1
  Hg  Hg24  1  0.06077000  0.24391900  0.40220400  1
  Hg  Hg25  1  0.67118100  0.20016000  0.25433800  1
  Hg  Hg26  1  0.93923000  0.74391900  0.09779600  1
  Hg  Hg27  1  0.39720300  0.27008000  0.26014400  1
  O  O28  1  0.12488800  0.00144200  0.11683900  1
  O  O29  1  0.09552800  0.64518100  0.25365400  1
  O  O30  1  0.44696200  0.98495300  0.18163600  1
  O  O31  1  0.27382100  0.09805900  0.38136400  1
  O  O32  1  0.52071800  0.08766400  0.57389300  1
  O  O33  1  0.90447200  0.14518100  0.24634600  1
  O  O34  1  0.44696200  0.51504700  0.68163600  1
  O  O35  1  0.32752100  0.41033100  0.48049400  1
  O  O36  1  0.67247900  0.91033100  0.01950600  1
  O  O37  1  0.17316800  0.88178600  0.33748900  1
  O  O38  1  0.84058100  0.68775600  0.74849600  1
  O  O39  1  0.47928200  0.91233600  0.42610700  1
  O  O40  1  0.76319900  0.45013900  0.94308700  1
  O  O41  1  0.15941900  0.18775600  0.75150400  1
  O  O42  1  0.15941900  0.31224400  0.25150400  1
  O  O43  1  0.72617900  0.59805900  0.11863600  1
  O  O44  1  0.09552800  0.85481900  0.75365400  1
  O  O45  1  0.69637600  0.35830800  0.49798700  1
  O  O46  1  0.72617900  0.90194100  0.61863600  1
  O  O47  1  0.32752100  0.08966900  0.98049400  1
  O  O48  1  0.30362400  0.85830800  0.00201300  1
  O  O49  1  0.84058100  0.81224400  0.24849600  1
  O  O50  1  0.23680100  0.95013900  0.55691300  1
  O  O51  1  0.87511200  0.99855800  0.88316100  1
  O  O52  1  0.87511200  0.50144200  0.38316100  1
  O  O53  1  0.69637600  0.14169200  0.99798700  1
  O  O54  1  0.82683200  0.38178600  0.16251100  1
  O  O55  1  0.82683200  0.11821400  0.66251100  1
  O  O56  1  0.12488800  0.49855800  0.61683900  1
  O  O57  1  0.90447200  0.35481900  0.74634600  1
  O  O58  1  0.23680100  0.54986100  0.05691300  1
  O  O59  1  0.47928200  0.58766400  0.92610700  1
  O  O60  1  0.67247900  0.58966900  0.51950600  1
  O  O61  1  0.55303800  0.48495300  0.31836400  1
  O  O62  1  0.52071800  0.41233600  0.07389300  1
  O  O63  1  0.55303800  0.01504700  0.81836400  1
  O  O64  1  0.76319900  0.04986100  0.44308700  1
  O  O65  1  0.30362400  0.64169200  0.50201300  1
  O  O66  1  0.27382100  0.40194100  0.88136400  1
  O  O67  1  0.17316800  0.61821400  0.83748900  1
