# generated using pymatgen
data_H7ClO3
_symmetry_space_group_name_H-M   'P 1'
_cell_length_a   7.77012600
_cell_length_b   10.65798600
_cell_length_c   6.52447705
_cell_angle_alpha   90.00000000
_cell_angle_beta   124.40485068
_cell_angle_gamma   90.00000000
_symmetry_Int_Tables_number   1
_chemical_formula_structural   H7ClO3
_chemical_formula_sum   'H28 Cl4 O12'
_cell_volume   445.79729538
_cell_formula_units_Z   4
loop_
 _symmetry_equiv_pos_site_id
 _symmetry_equiv_pos_as_xyz
  1  'x, y, z'
loop_
 _atom_site_type_symbol
 _atom_site_label
 _atom_site_symmetry_multiplicity
 _atom_site_fract_x
 _atom_site_fract_y
 _atom_site_fract_z
 _atom_site_occupancy
  H  H0  1  0.13228300  0.08197500  0.40999800  1
  H  H1  1  0.37644850  0.08113750  0.57900300  1
  H  H2  1  0.13228300  0.91802500  0.90999800  1
  H  H3  1  0.37644850  0.91886250  0.07900300  1
  H  H4  1  0.73731350  0.05946150  0.72891100  1
  H  H5  1  0.56324450  0.00194150  0.46037900  1
  H  H6  1  0.73731350  0.94053850  0.22891100  1
  H  H7  1  0.56324450  0.99805850  0.96037900  1
  H  H8  1  0.69121800  0.85850900  0.73614600  1
  H  H9  1  0.65056800  0.73619500  0.86718300  1
  H  H10  1  0.24547950  0.20337250  0.69453700  1
  H  H11  1  0.69121800  0.14149100  0.23614600  1
  H  H12  1  0.65056800  0.26380500  0.36718300  1
  H  H13  1  0.24547950  0.79662750  0.19453700  1
  H  H14  1  0.63228300  0.58197500  0.40999800  1
  H  H15  1  0.87644850  0.58113750  0.57900300  1
  H  H16  1  0.63228300  0.41802500  0.90999800  1
  H  H17  1  0.87644850  0.41886250  0.07900300  1
  H  H18  1  0.23731350  0.55946150  0.72891100  1
  H  H19  1  0.06324450  0.50194150  0.46037900  1
  H  H20  1  0.23731350  0.44053850  0.22891100  1
  H  H21  1  0.06324450  0.49805850  0.96037900  1
  H  H22  1  0.19121800  0.35850900  0.73614600  1
  H  H23  1  0.15056800  0.23619500  0.86718300  1
  H  H24  1  0.74547950  0.70337250  0.69453700  1
  H  H25  1  0.19121800  0.64149100  0.23614600  1
  H  H26  1  0.15056800  0.76380500  0.36718300  1
  H  H27  1  0.74547950  0.29662750  0.19453700  1
  Cl  Cl28  1  0.47882100  0.33785900  0.45875200  1
  Cl  Cl29  1  0.47882100  0.66214100  0.95875200  1
  Cl  Cl30  1  0.97882100  0.83785900  0.45875200  1
  Cl  Cl31  1  0.97882100  0.16214100  0.95875200  1
  O  O32  1  0.25270800  0.09580500  0.58135200  1
  O  O33  1  0.25270800  0.90419500  0.08135200  1
  O  O34  1  0.61383900  0.99891700  0.63585400  1
  O  O35  1  0.61383900  0.00108300  0.13585400  1
  O  O36  1  0.74398050  0.77231150  0.81549300  1
  O  O37  1  0.74398050  0.22768850  0.31549300  1
  O  O38  1  0.75270800  0.59580500  0.58135200  1
  O  O39  1  0.75270800  0.40419500  0.08135200  1
  O  O40  1  0.11383900  0.49891700  0.63585400  1
  O  O41  1  0.11383900  0.50108300  0.13585400  1
  O  O42  1  0.24398050  0.27231150  0.81549300  1
  O  O43  1  0.24398050  0.72768850  0.31549300  1
