# generated using pymatgen
data_NaH3CN4O
_symmetry_space_group_name_H-M   'P 1'
_cell_length_a   5.72283200
_cell_length_b   5.87714200
_cell_length_c   6.52669400
_cell_angle_alpha   90.00000000
_cell_angle_beta   90.00000000
_cell_angle_gamma   90.00000000
_symmetry_Int_Tables_number   1
_chemical_formula_structural   NaH3CN4O
_chemical_formula_sum   'Na2 H6 C2 N8 O2'
_cell_volume   219.51814922
_cell_formula_units_Z   2
loop_
 _symmetry_equiv_pos_site_id
 _symmetry_equiv_pos_as_xyz
  1  'x, y, z'
loop_
 _atom_site_type_symbol
 _atom_site_label
 _atom_site_symmetry_multiplicity
 _atom_site_fract_x
 _atom_site_fract_y
 _atom_site_fract_z
 _atom_site_occupancy
  Na  Na0  1  0.50000000  0.00000000  0.00000000  1
  Na  Na1  1  0.50000000  0.00000000  0.50000000  1
  H  H2  1  0.67580500  0.50000000  0.25000000  1
  H  H3  1  0.32419500  0.50000000  0.75000000  1
  H  H4  1  0.90985000  0.13580800  0.25000000  1
  H  H5  1  0.09015000  0.13580800  0.75000000  1
  H  H6  1  0.09015000  0.86419200  0.75000000  1
  H  H7  1  0.90985000  0.86419200  0.25000000  1
  C  C8  1  0.48527800  0.50000000  0.25000000  1
  C  C9  1  0.51472200  0.50000000  0.75000000  1
  N  N10  1  0.13138700  0.38788600  0.25000000  1
  N  N11  1  0.86861300  0.38788600  0.75000000  1
  N  N12  1  0.86861300  0.61211400  0.75000000  1
  N  N13  1  0.13138700  0.61211400  0.25000000  1
  N  N14  1  0.35447500  0.31125800  0.25000000  1
  N  N15  1  0.64552500  0.31125800  0.75000000  1
  N  N16  1  0.64552500  0.68874200  0.75000000  1
  N  N17  1  0.35447500  0.68874200  0.25000000  1
  O  O18  1  0.80655700  0.00000000  0.25000000  1
  O  O19  1  0.19344300  0.00000000  0.75000000  1
