# generated using pymatgen
data_V3(H3O5)2
_symmetry_space_group_name_H-M   'P 1'
_cell_length_a   5.81707700
_cell_length_b   8.81160265
_cell_length_c   9.11377877
_cell_angle_alpha   88.60911080
_cell_angle_beta   87.38705003
_cell_angle_gamma   85.33323752
_symmetry_Int_Tables_number   1
_chemical_formula_structural   V3(H3O5)2
_chemical_formula_sum   'V6 H12 O20'
_cell_volume   465.01995214
_cell_formula_units_Z   2
loop_
 _symmetry_equiv_pos_site_id
 _symmetry_equiv_pos_as_xyz
  1  'x, y, z'
loop_
 _atom_site_type_symbol
 _atom_site_label
 _atom_site_symmetry_multiplicity
 _atom_site_fract_x
 _atom_site_fract_y
 _atom_site_fract_z
 _atom_site_occupancy
  V  V0  1  0.73390200  0.49160000  0.48819900  1
  V  V1  1  0.72616700  0.99396000  0.00258700  1
  V  V2  1  0.75791400  0.37208700  0.86130000  1
  V  V3  1  0.75570500  0.63172800  0.12466200  1
  V  V4  1  0.70040100  0.12496200  0.37048600  1
  V  V5  1  0.70543000  0.85580900  0.64225400  1
  H  H6  1  0.35381600  0.61119100  0.44018600  1
  H  H7  1  0.34846500  0.09776600  0.07336900  1
  H  H8  1  0.30333100  0.36549500  0.09888000  1
  H  H9  1  0.27584800  0.27235300  0.24809000  1
  H  H10  1  0.15291900  0.71232500  0.89983000  1
  H  H11  1  0.32655400  0.57694600  0.82726200  1
  H  H12  1  0.31138700  0.76638000  0.73853400  1
  H  H13  1  0.16055100  0.12914700  0.78431700  1
  H  H14  1  0.25270200  0.09937300  0.62316900  1
  H  H15  1  0.02231100  0.29872400  0.66019000  1
  H  H16  1  0.29655600  0.87762700  0.38660600  1
  H  H17  1  0.28864000  0.77168800  0.25103600  1
  O  O18  1  0.43119900  0.51349200  0.48362700  1
  O  O19  1  0.42110700  0.00831000  0.01418300  1
  O  O20  1  0.88541600  0.38578800  0.67172000  1
  O  O21  1  0.82240800  0.57936700  0.30670000  1
  O  O22  1  0.77465500  0.07123300  0.18940100  1
  O  O23  1  0.80789300  0.90885300  0.80790900  1
  O  O24  1  0.81626300  0.29625000  0.41005800  1
  O  O25  1  0.79440700  0.67108200  0.59442600  1
  O  O26  1  0.87282900  0.80406100  0.07032500  1
  O  O27  1  0.81774000  0.18510400  0.91677700  1
  O  O28  1  0.47828700  0.42103700  0.85673500  1
  O  O29  1  0.47376300  0.64831700  0.10943300  1
  O  O30  1  0.41546500  0.14051300  0.39578700  1
  O  O31  1  0.40981800  0.86746100  0.65996200  1
  O  O32  1  0.87628500  0.49375200  0.98825600  1
  O  O33  1  0.80837800  0.98065600  0.50033000  1
  O  O34  1  0.24746800  0.27206900  0.14257400  1
  O  O35  1  0.22348200  0.67340800  0.80682200  1
  O  O36  1  0.20865900  0.18069700  0.69287300  1
  O  O37  1  0.25237200  0.77881300  0.35766100  1
