# generated using pymatgen
data_Na2Zn2(TeO3)3
_symmetry_space_group_name_H-M   'P 1'
_cell_length_a   8.41634749
_cell_length_b   8.41634749
_cell_length_c   10.28064400
_cell_angle_alpha   90.00000000
_cell_angle_beta   90.00000000
_cell_angle_gamma   120.00000000
_symmetry_Int_Tables_number   1
_chemical_formula_structural   Na2Zn2(TeO3)3
_chemical_formula_sum   'Na4 Zn4 Te6 O18'
_cell_volume   630.66433055
_cell_formula_units_Z   2
loop_
 _symmetry_equiv_pos_site_id
 _symmetry_equiv_pos_as_xyz
  1  'x, y, z'
loop_
 _atom_site_type_symbol
 _atom_site_label
 _atom_site_symmetry_multiplicity
 _atom_site_fract_x
 _atom_site_fract_y
 _atom_site_fract_z
 _atom_site_occupancy
  Na  Na0  1  0.00000000  0.00000000  0.12408500  1
  Na  Na1  1  0.00000000  0.00000000  0.87591500  1
  Na  Na2  1  0.00000000  0.00000000  0.62408500  1
  Na  Na3  1  0.00000000  0.00000000  0.37591500  1
  Zn  Zn4  1  0.66666667  0.33333333  0.09158600  1
  Zn  Zn5  1  0.66666667  0.33333333  0.40841400  1
  Zn  Zn6  1  0.33333333  0.66666667  0.59158600  1
  Zn  Zn7  1  0.33333333  0.66666667  0.90841400  1
  Te  Te8  1  0.60329100  0.62608400  0.25000000  1
  Te  Te9  1  0.37391600  0.97720700  0.25000000  1
  Te  Te10  1  0.39670900  0.37391600  0.75000000  1
  Te  Te11  1  0.62608400  0.02279300  0.75000000  1
  Te  Te12  1  0.02279300  0.39670900  0.25000000  1
  Te  Te13  1  0.97720700  0.60329100  0.75000000  1
  O  O14  1  0.72190500  0.58174200  0.39342300  1
  O  O15  1  0.85983700  0.27809500  0.39342300  1
  O  O16  1  0.41825800  0.14016300  0.10657700  1
  O  O17  1  0.13452400  0.25658400  0.25000000  1
  O  O18  1  0.58174200  0.85983700  0.89342300  1
  O  O19  1  0.85983700  0.27809500  0.10657700  1
  O  O20  1  0.74341600  0.87794000  0.25000000  1
  O  O21  1  0.27809500  0.41825800  0.89342300  1
  O  O22  1  0.14016300  0.72190500  0.89342300  1
  O  O23  1  0.58174200  0.85983700  0.60657700  1
  O  O24  1  0.12206000  0.86547600  0.25000000  1
  O  O25  1  0.86547600  0.74341600  0.75000000  1
  O  O26  1  0.87794000  0.13452400  0.75000000  1
  O  O27  1  0.25658400  0.12206000  0.75000000  1
  O  O28  1  0.41825800  0.14016300  0.39342300  1
  O  O29  1  0.14016300  0.72190500  0.60657700  1
  O  O30  1  0.72190500  0.58174200  0.10657700  1
  O  O31  1  0.27809500  0.41825800  0.60657700  1
