# generated using pymatgen
data_Nb5P7O30
_symmetry_space_group_name_H-M   'P 1'
_cell_length_a   30.53431184
_cell_length_b   8.87519700
_cell_length_c   8.93350448
_cell_angle_alpha   90.00000000
_cell_angle_beta   91.66244167
_cell_angle_gamma   90.00000000
_symmetry_Int_Tables_number   1
_chemical_formula_structural   Nb5P7O30
_chemical_formula_sum   'Nb20 P28 O120'
_cell_volume   2419.94313840
_cell_formula_units_Z   4
loop_
 _symmetry_equiv_pos_site_id
 _symmetry_equiv_pos_as_xyz
  1  'x, y, z'
loop_
 _atom_site_type_symbol
 _atom_site_label
 _atom_site_symmetry_multiplicity
 _atom_site_fract_x
 _atom_site_fract_y
 _atom_site_fract_z
 _atom_site_occupancy
  Nb  Nb0  1  0.04881900  0.74478200  0.03804450  1
  Nb  Nb1  1  0.45118100  0.75521800  0.96195550  1
  Nb  Nb2  1  0.45118100  0.24478200  0.46195550  1
  Nb  Nb3  1  0.33786150  0.74350150  0.44645450  1
  Nb  Nb4  1  0.16213850  0.24350150  0.05354550  1
  Nb  Nb5  1  0.33786150  0.25649850  0.94645450  1
  Nb  Nb6  1  0.04881900  0.25521800  0.53804450  1
  Nb  Nb7  1  0.25000000  0.25000000  0.50000000  1
  Nb  Nb8  1  0.25000000  0.75000000  0.00000000  1
  Nb  Nb9  1  0.16213850  0.75649850  0.55354550  1
  Nb  Nb10  1  0.54881900  0.24478200  0.03804450  1
  Nb  Nb11  1  0.95118100  0.25521800  0.96195550  1
  Nb  Nb12  1  0.95118100  0.74478200  0.46195550  1
  Nb  Nb13  1  0.83786150  0.24350150  0.44645450  1
  Nb  Nb14  1  0.66213850  0.74350150  0.05354550  1
  Nb  Nb15  1  0.83786150  0.75649850  0.94645450  1
  Nb  Nb16  1  0.54881900  0.75521800  0.53804450  1
  Nb  Nb17  1  0.75000000  0.75000000  0.50000000  1
  Nb  Nb18  1  0.75000000  0.25000000  0.00000000  1
  Nb  Nb19  1  0.66213850  0.25649850  0.55354550  1
  P  P20  1  0.35652900  0.39153300  0.59127050  1
  P  P21  1  0.20355050  0.47620950  0.76917150  1
  P  P22  1  0.06030850  0.38752450  0.89653150  1
  P  P23  1  0.29644950  0.02379050  0.23082850  1
  P  P24  1  0.43969150  0.11247550  0.10346850  1
  P  P25  1  0.00000000  0.97050800  0.75000000  1
  P  P26  1  0.50000000  0.52949200  0.25000000  1
  P  P27  1  0.35652900  0.60846700  0.09127050  1
  P  P28  1  0.29644950  0.97620950  0.73082850  1
  P  P29  1  0.06030850  0.61247550  0.39653150  1
  P  P30  1  0.20355050  0.52379050  0.26917150  1
  P  P31  1  0.14347100  0.10846700  0.40872950  1
  P  P32  1  0.14347100  0.89153300  0.90872950  1
  P  P33  1  0.43969150  0.88752450  0.60346850  1
  P  P34  1  0.85652900  0.89153300  0.59127050  1
  P  P35  1  0.70355050  0.97620950  0.76917150  1
  P  P36  1  0.56030850  0.88752450  0.89653150  1
  P  P37  1  0.79644950  0.52379050  0.23082850  1
  P  P38  1  0.93969150  0.61247550  0.10346850  1
  P  P39  1  0.50000000  0.47050800  0.75000000  1
  P  P40  1  0.00000000  0.02949200  0.25000000  1
  P  P41  1  0.85652900  0.10846700  0.09127050  1
  P  P42  1  0.79644950  0.47620950  0.73082850  1
  P  P43  1  0.56030850  0.11247550  0.39653150  1
  P  P44  1  0.70355050  0.02379050  0.26917150  1
  P  P45  1  0.64347100  0.60846700  0.40872950  1
  P  P46  1  0.64347100  0.39153300  0.90872950  1
  P  P47  1  0.93969150  0.38752450  0.60346850  1
  O  O48  1  0.35934900  0.43719000  0.07320450  1
  O  O49  1  0.48809400  0.17283100  0.06813250  1
  O  O50  1  0.10869200  0.18056800  0.50433650  1
  O  O51  1  0.43520150  0.14118150  0.27499250  1
  O  O52  1  0.03407750  0.06953050  0.66672050  1
  O  O53  1  0.27055800  0.11530400  0.34022550  1
  O  O54  1  0.33404250  0.93659250  0.32150650  1
  O  O55  1  0.47536950  0.62821950  0.13724850  1
  O  O56  1  0.05773500  0.56338700  0.91267450  1
  O  O57  1  0.21743150  0.17335750  0.08590450  1
  O  O58  1  0.18978300  0.83144700  0.97579750  1
  O  O59  1  0.23420100  0.58961000  0.85180650  1
  O  O60  1  0.39130800  0.31943200  0.49566350  1
  O  O61  1  0.40724550  0.17780050  0.00435750  1
  O  O62  1  0.02463050  0.87178050  0.86275150  1
  O  O63  1  0.10869200  0.81943200  0.00433650  1
  O  O64  1  0.16595750  0.56340750  0.67849350  1
  O  O65  1  0.13821150  0.15141750  0.24600650  1
  O  O66  1  0.09275450  0.32219950  0.99564250  1
  O  O67  1  0.31021700  0.33144700  0.52420250  1
  O  O68  1  0.43520150  0.85881850  0.77499250  1
  O  O69  1  0.14065100  0.93719000  0.42679550  1
  O  O70  1  0.21743150  0.82664250  0.58590450  1
  O  O71  1  0.26579900  0.91039000  0.14819350  1
  O  O72  1  0.27055800  0.88469600  0.84022550  1
  O  O73  1  0.22944200  0.38469600  0.65977450  1
  O  O74  1  0.48809400  0.82716900  0.56813250  1
  O  O75  1  0.09275450  0.67780050  0.49564250  1
  O  O76  1  0.35934900  0.56281000  0.57320450  1
  O  O77  1  0.33404250  0.06340750  0.82150650  1
  O  O78  1  0.40724550  0.82219950  0.50435750  1
  O  O79  1  0.06479850  0.35881850  0.72500750  1
  O  O80  1  0.28256850  0.67335750  0.41409550  1
  O  O81  1  0.18072300  0.37071600  0.87602650  1
  O  O82  1  0.36178850  0.65141750  0.25399350  1
  O  O83  1  0.22944200  0.61530400  0.15977450  1
  O  O84  1  0.39130800  0.68056800  0.99566350  1
  O  O85  1  0.46592250  0.56953050  0.83327950  1
  O  O86  1  0.16595750  0.43659250  0.17849350  1
  O  O87  1  0.26579900  0.08961000  0.64819350  1
  O  O88  1  0.44226500  0.06338700  0.58732550  1
  O  O89  1  0.05773500  0.43661300  0.41267450  1
  O  O90  1  0.02463050  0.12821950  0.36275150  1
  O  O91  1  0.03407750  0.93046950  0.16672050  1
  O  O92  1  0.18978300  0.16855300  0.47579750  1
  O  O93  1  0.44226500  0.93661300  0.08732550  1
  O  O94  1  0.31021700  0.66855300  0.02420250  1
  O  O95  1  0.36178850  0.34858250  0.75399350  1
  O  O96  1  0.18072300  0.62928400  0.37602650  1
  O  O97  1  0.31927700  0.12928400  0.12397350  1
  O  O98  1  0.23420100  0.41039000  0.35180650  1
  O  O99  1  0.13821150  0.84858250  0.74600650  1
  O  O100  1  0.06811250  0.64015750  0.22542550  1
  O  O101  1  0.32257700  0.87114000  0.62607750  1
  O  O102  1  0.28256850  0.32664250  0.91409550  1
  O  O103  1  0.47536950  0.37178050  0.63724850  1
  O  O104  1  0.01190600  0.32716900  0.93186750  1
  O  O105  1  0.46592250  0.43046950  0.33327950  1
  O  O106  1  0.01190600  0.67283100  0.43186750  1
  O  O107  1  0.14065100  0.06281000  0.92679550  1
  O  O108  1  0.85934900  0.93719000  0.07320450  1
  O  O109  1  0.98809400  0.67283100  0.06813250  1
  O  O110  1  0.60869200  0.68056800  0.50433650  1
  O  O111  1  0.93520150  0.64118150  0.27499250  1
  O  O112  1  0.53407750  0.56953050  0.66672050  1
  O  O113  1  0.77055800  0.61530400  0.34022550  1
  O  O114  1  0.83404250  0.43659250  0.32150650  1
  O  O115  1  0.97536950  0.12821950  0.13724850  1
  O  O116  1  0.55773500  0.06338700  0.91267450  1
  O  O117  1  0.71743150  0.67335750  0.08590450  1
  O  O118  1  0.68978300  0.33144700  0.97579750  1
  O  O119  1  0.73420100  0.08961000  0.85180650  1
  O  O120  1  0.89130800  0.81943200  0.49566350  1
  O  O121  1  0.90724550  0.67780050  0.00435750  1
  O  O122  1  0.52463050  0.37178050  0.86275150  1
  O  O123  1  0.60869200  0.31943200  0.00433650  1
  O  O124  1  0.66595750  0.06340750  0.67849350  1
  O  O125  1  0.63821150  0.65141750  0.24600650  1
  O  O126  1  0.59275450  0.82219950  0.99564250  1
  O  O127  1  0.81021700  0.83144700  0.52420250  1
  O  O128  1  0.93520150  0.35881850  0.77499250  1
  O  O129  1  0.64065100  0.43719000  0.42679550  1
  O  O130  1  0.71743150  0.32664250  0.58590450  1
  O  O131  1  0.76579900  0.41039000  0.14819350  1
  O  O132  1  0.77055800  0.38469600  0.84022550  1
  O  O133  1  0.72944200  0.88469600  0.65977450  1
  O  O134  1  0.98809400  0.32716900  0.56813250  1
  O  O135  1  0.59275450  0.17780050  0.49564250  1
  O  O136  1  0.85934900  0.06281000  0.57320450  1
  O  O137  1  0.83404250  0.56340750  0.82150650  1
  O  O138  1  0.90724550  0.32219950  0.50435750  1
  O  O139  1  0.56479850  0.85881850  0.72500750  1
  O  O140  1  0.78256850  0.17335750  0.41409550  1
  O  O141  1  0.68072300  0.87071600  0.87602650  1
  O  O142  1  0.86178850  0.15141750  0.25399350  1
  O  O143  1  0.72944200  0.11530400  0.15977450  1
  O  O144  1  0.89130800  0.18056800  0.99566350  1
  O  O145  1  0.96592250  0.06953050  0.83327950  1
  O  O146  1  0.66595750  0.93659250  0.17849350  1
  O  O147  1  0.76579900  0.58961000  0.64819350  1
  O  O148  1  0.94226500  0.56338700  0.58732550  1
  O  O149  1  0.55773500  0.93661300  0.41267450  1
  O  O150  1  0.52463050  0.62821950  0.36275150  1
  O  O151  1  0.53407750  0.43046950  0.16672050  1
  O  O152  1  0.68978300  0.66855300  0.47579750  1
  O  O153  1  0.94226500  0.43661300  0.08732550  1
  O  O154  1  0.81021700  0.16855300  0.02420250  1
  O  O155  1  0.86178850  0.84858250  0.75399350  1
  O  O156  1  0.68072300  0.12928400  0.37602650  1
  O  O157  1  0.81927700  0.62928400  0.12397350  1
  O  O158  1  0.73420100  0.91039000  0.35180650  1
  O  O159  1  0.63821150  0.34858250  0.74600650  1
  O  O160  1  0.56811250  0.14015750  0.22542550  1
  O  O161  1  0.82257700  0.37114000  0.62607750  1
  O  O162  1  0.78256850  0.82664250  0.91409550  1
  O  O163  1  0.97536950  0.87178050  0.63724850  1
  O  O164  1  0.51190600  0.82716900  0.93186750  1
  O  O165  1  0.96592250  0.93046950  0.33327950  1
  O  O166  1  0.51190600  0.17283100  0.43186750  1
  O  O167  1  0.64065100  0.56281000  0.92679550  1
