# generated using pymatgen
data_U(HO)8
_symmetry_space_group_name_H-M   'P 1'
_cell_length_a   14.17461200
_cell_length_b   6.83892400
_cell_length_c   8.58623795
_cell_angle_alpha   90.00000000
_cell_angle_beta   122.72370565
_cell_angle_gamma   90.00000000
_symmetry_Int_Tables_number   1
_chemical_formula_structural   U(HO)8
_chemical_formula_sum   'U4 H32 O32'
_cell_volume   700.23877142
_cell_formula_units_Z   4
loop_
 _symmetry_equiv_pos_site_id
 _symmetry_equiv_pos_as_xyz
  1  'x, y, z'
loop_
 _atom_site_type_symbol
 _atom_site_label
 _atom_site_symmetry_multiplicity
 _atom_site_fract_x
 _atom_site_fract_y
 _atom_site_fract_z
 _atom_site_occupancy
  U  U0  1  0.00000000  0.00000000  0.50000000  1
  U  U1  1  0.00000000  0.00000000  0.00000000  1
  U  U2  1  0.50000000  0.50000000  0.50000000  1
  U  U3  1  0.50000000  0.50000000  0.00000000  1
  H  H4  1  0.25294750  0.97423950  0.82141700  1
  H  H5  1  0.24705250  0.47423950  0.67858300  1
  H  H6  1  0.74705250  0.02576050  0.17858300  1
  H  H7  1  0.75294750  0.52576050  0.32141700  1
  H  H8  1  0.25325950  0.99981350  0.63546200  1
  H  H9  1  0.24674050  0.49981350  0.86453800  1
  H  H10  1  0.74674050  0.00018650  0.36453800  1
  H  H11  1  0.75325950  0.50018650  0.13546200  1
  H  H12  1  0.89582600  0.43099600  0.57118200  1
  H  H13  1  0.10417400  0.43099600  0.92881800  1
  H  H14  1  0.10417400  0.56900400  0.42881800  1
  H  H15  1  0.89582600  0.56900400  0.07118200  1
  H  H16  1  0.88307800  0.65597700  0.60145000  1
  H  H17  1  0.11692200  0.65597700  0.89855000  1
  H  H18  1  0.11692200  0.34402300  0.39855000  1
  H  H19  1  0.88307800  0.34402300  0.10145000  1
  H  H20  1  0.75294750  0.47423950  0.82141700  1
  H  H21  1  0.74705250  0.97423950  0.67858300  1
  H  H22  1  0.24705250  0.52576050  0.17858300  1
  H  H23  1  0.25294750  0.02576050  0.32141700  1
  H  H24  1  0.75325950  0.49981350  0.63546200  1
  H  H25  1  0.74674050  0.99981350  0.86453800  1
  H  H26  1  0.24674050  0.50018650  0.36453800  1
  H  H27  1  0.25325950  0.00018650  0.13546200  1
  H  H28  1  0.39582600  0.93099600  0.57118200  1
  H  H29  1  0.60417400  0.93099600  0.92881800  1
  H  H30  1  0.60417400  0.06900400  0.42881800  1
  H  H31  1  0.39582600  0.06900400  0.07118200  1
  H  H32  1  0.38307800  0.15597700  0.60145000  1
  H  H33  1  0.61692200  0.15597700  0.89855000  1
  H  H34  1  0.61692200  0.84402300  0.39855000  1
  H  H35  1  0.38307800  0.84402300  0.10145000  1
  O  O36  1  0.06100050  0.88658850  0.80561800  1
  O  O37  1  0.93899950  0.88658850  0.69438200  1
  O  O38  1  0.93899950  0.11341150  0.19438200  1
  O  O39  1  0.06100050  0.11341150  0.30561800  1
  O  O40  1  0.99724550  0.25268250  0.56675400  1
  O  O41  1  0.00275450  0.25268250  0.93324600  1
  O  O42  1  0.00275450  0.74731750  0.43324600  1
  O  O43  1  0.99724550  0.74731750  0.06675400  1
  O  O44  1  0.20368900  0.99498300  0.68361500  1
  O  O45  1  0.29631100  0.49498300  0.81638500  1
  O  O46  1  0.79631100  0.00501700  0.31638500  1
  O  O47  1  0.70368900  0.50501700  0.18361500  1
  O  O48  1  0.84007150  0.53200950  0.54991100  1
  O  O49  1  0.15992850  0.53200950  0.95008900  1
  O  O50  1  0.15992850  0.46799050  0.45008900  1
  O  O51  1  0.84007150  0.46799050  0.04991100  1
  O  O52  1  0.56100050  0.38658850  0.80561800  1
  O  O53  1  0.43899950  0.38658850  0.69438200  1
  O  O54  1  0.43899950  0.61341150  0.19438200  1
  O  O55  1  0.56100050  0.61341150  0.30561800  1
  O  O56  1  0.49724550  0.75268250  0.56675400  1
  O  O57  1  0.50275450  0.75268250  0.93324600  1
  O  O58  1  0.50275450  0.24731750  0.43324600  1
  O  O59  1  0.49724550  0.24731750  0.06675400  1
  O  O60  1  0.70368900  0.49498300  0.68361500  1
  O  O61  1  0.79631100  0.99498300  0.81638500  1
  O  O62  1  0.29631100  0.50501700  0.31638500  1
  O  O63  1  0.20368900  0.00501700  0.18361500  1
  O  O64  1  0.34007150  0.03200950  0.54991100  1
  O  O65  1  0.65992850  0.03200950  0.95008900  1
  O  O66  1  0.65992850  0.96799050  0.45008900  1
  O  O67  1  0.34007150  0.96799050  0.04991100  1
