# generated using pymatgen
data_K4UC3O11
_symmetry_space_group_name_H-M   'P 1'
_cell_length_a   10.47193000
_cell_length_b   9.35326800
_cell_length_c   12.45348210
_cell_angle_alpha   90.00000000
_cell_angle_beta   94.52346335
_cell_angle_gamma   90.00000000
_symmetry_Int_Tables_number   1
_chemical_formula_structural   K4UC3O11
_chemical_formula_sum   'K16 U4 C12 O44'
_cell_volume   1215.97885628
_cell_formula_units_Z   4
loop_
 _symmetry_equiv_pos_site_id
 _symmetry_equiv_pos_as_xyz
  1  'x, y, z'
loop_
 _atom_site_type_symbol
 _atom_site_label
 _atom_site_symmetry_multiplicity
 _atom_site_fract_x
 _atom_site_fract_y
 _atom_site_fract_z
 _atom_site_occupancy
  K  K0  1  0.39355650  0.18103750  0.95709600  1
  K  K1  1  0.60644350  0.18103750  0.54290400  1
  K  K2  1  0.60644350  0.81896250  0.04290400  1
  K  K3  1  0.39355650  0.81896250  0.45709600  1
  K  K4  1  0.81635650  0.15026650  0.15656300  1
  K  K5  1  0.18364350  0.15026650  0.34343700  1
  K  K6  1  0.18364350  0.84973350  0.84343700  1
  K  K7  1  0.81635650  0.84973350  0.65656300  1
  K  K8  1  0.89355650  0.68103750  0.95709600  1
  K  K9  1  0.10644350  0.68103750  0.54290400  1
  K  K10  1  0.10644350  0.31896250  0.04290400  1
  K  K11  1  0.89355650  0.31896250  0.45709600  1
  K  K12  1  0.31635650  0.65026650  0.15656300  1
  K  K13  1  0.68364350  0.65026650  0.34343700  1
  K  K14  1  0.68364350  0.34973350  0.84343700  1
  K  K15  1  0.31635650  0.34973350  0.65656300  1
  U  U16  1  0.50000000  0.29992600  0.25000000  1
  U  U17  1  0.50000000  0.70007400  0.75000000  1
  U  U18  1  0.00000000  0.79992600  0.25000000  1
  U  U19  1  0.00000000  0.20007400  0.75000000  1
  C  C20  1  0.50000000  0.98993100  0.25000000  1
  C  C21  1  0.50000000  0.01006900  0.75000000  1
  C  C22  1  0.87539900  0.95638000  0.41363000  1
  C  C23  1  0.12460100  0.95638000  0.08637000  1
  C  C24  1  0.12460100  0.04362000  0.58637000  1
  C  C25  1  0.87539900  0.04362000  0.91363000  1
  C  C26  1  0.00000000  0.48993100  0.25000000  1
  C  C27  1  0.00000000  0.51006900  0.75000000  1
  C  C28  1  0.37539900  0.45638000  0.41363000  1
  C  C29  1  0.62460100  0.45638000  0.08637000  1
  C  C30  1  0.62460100  0.54362000  0.58637000  1
  C  C31  1  0.37539900  0.54362000  0.91363000  1
  O  O32  1  0.33835600  0.29769100  0.17911900  1
  O  O33  1  0.66164400  0.29769100  0.32088100  1
  O  O34  1  0.66164400  0.70230900  0.82088100  1
  O  O35  1  0.33835600  0.70230900  0.67911900  1
  O  O36  1  0.45768950  0.93380250  0.82889400  1
  O  O37  1  0.54231050  0.93380250  0.67110600  1
  O  O38  1  0.54231050  0.06619750  0.17110600  1
  O  O39  1  0.45768950  0.06619750  0.32889400  1
  O  O40  1  0.39592850  0.68320750  0.91995400  1
  O  O41  1  0.60407150  0.68320750  0.58004600  1
  O  O42  1  0.60407150  0.31679250  0.08004600  1
  O  O43  1  0.39592850  0.31679250  0.41995400  1
  O  O44  1  0.93534150  0.98031750  0.83746200  1
  O  O45  1  0.06465850  0.98031750  0.66253800  1
  O  O46  1  0.06465850  0.01968250  0.16253800  1
  O  O47  1  0.93534150  0.01968250  0.33746200  1
  O  O48  1  0.50000000  0.14560200  0.75000000  1
  O  O49  1  0.50000000  0.85439800  0.25000000  1
  O  O50  1  0.80422450  0.97792950  0.97390300  1
  O  O51  1  0.19577550  0.97792950  0.52609700  1
  O  O52  1  0.19577550  0.02207050  0.02609700  1
  O  O53  1  0.80422450  0.02207050  0.47390300  1
  O  O54  1  0.83835600  0.79769100  0.17911900  1
  O  O55  1  0.16164400  0.79769100  0.32088100  1
  O  O56  1  0.16164400  0.20230900  0.82088100  1
  O  O57  1  0.83835600  0.20230900  0.67911900  1
  O  O58  1  0.95768950  0.43380250  0.82889400  1
  O  O59  1  0.04231050  0.43380250  0.67110600  1
  O  O60  1  0.04231050  0.56619750  0.17110600  1
  O  O61  1  0.95768950  0.56619750  0.32889400  1
  O  O62  1  0.89592850  0.18320750  0.91995400  1
  O  O63  1  0.10407150  0.18320750  0.58004600  1
  O  O64  1  0.10407150  0.81679250  0.08004600  1
  O  O65  1  0.89592850  0.81679250  0.41995400  1
  O  O66  1  0.43534150  0.48031750  0.83746200  1
  O  O67  1  0.56465850  0.48031750  0.66253800  1
  O  O68  1  0.56465850  0.51968250  0.16253800  1
  O  O69  1  0.43534150  0.51968250  0.33746200  1
  O  O70  1  0.00000000  0.64560200  0.75000000  1
  O  O71  1  0.00000000  0.35439800  0.25000000  1
  O  O72  1  0.30422450  0.47792950  0.97390300  1
  O  O73  1  0.69577550  0.47792950  0.52609700  1
  O  O74  1  0.69577550  0.52207050  0.02609700  1
  O  O75  1  0.30422450  0.52207050  0.47390300  1
