# generated using pymatgen
data_Ba(H8O5)2
_symmetry_space_group_name_H-M   'P 1'
_cell_length_a   6.38954300
_cell_length_b   6.41299200
_cell_length_c   11.99275401
_cell_angle_alpha   90.00000000
_cell_angle_beta   90.67206144
_cell_angle_gamma   90.00000000
_symmetry_Int_Tables_number   1
_chemical_formula_structural   Ba(H8O5)2
_chemical_formula_sum   'Ba2 H32 O20'
_cell_volume   491.38233970
_cell_formula_units_Z   2
loop_
 _symmetry_equiv_pos_site_id
 _symmetry_equiv_pos_as_xyz
  1  'x, y, z'
loop_
 _atom_site_type_symbol
 _atom_site_label
 _atom_site_symmetry_multiplicity
 _atom_site_fract_x
 _atom_site_fract_y
 _atom_site_fract_z
 _atom_site_occupancy
  Ba  Ba0  1  0.99684600  0.00455200  0.50455400  1
  Ba  Ba1  1  0.99684600  0.99544800  0.00455400  1
  H  H2  1  0.40005200  0.28725400  0.60829000  1
  H  H3  1  0.44474000  0.04894700  0.63248000  1
  H  H4  1  0.68019100  0.83890100  0.70965900  1
  H  H5  1  0.59370900  0.72501400  0.60067400  1
  H  H6  1  0.28530100  0.60359800  0.60637800  1
  H  H7  1  0.04669000  0.55563600  0.63313600  1
  H  H8  1  0.83441500  0.32927600  0.71392900  1
  H  H9  1  0.72216400  0.41316700  0.60380500  1
  H  H10  1  0.40005200  0.71274600  0.10829000  1
  H  H11  1  0.44474000  0.95105300  0.13248000  1
  H  H12  1  0.68019100  0.16109900  0.20965900  1
  H  H13  1  0.59370900  0.27498600  0.10067400  1
  H  H14  1  0.04669000  0.44436400  0.13313600  1
  H  H15  1  0.28530100  0.39640200  0.10637800  1
  H  H16  1  0.83441500  0.67072400  0.21392900  1
  H  H17  1  0.72216400  0.58683300  0.10380500  1
  H  H18  1  0.59750900  0.71891200  0.39776300  1
  H  H19  1  0.54363000  0.95336100  0.36691700  1
  H  H20  1  0.28038200  0.19375800  0.29487300  1
  H  H21  1  0.39373800  0.28159500  0.40387900  1
  H  H22  1  0.71685200  0.40199100  0.39952800  1
  H  H23  1  0.95320800  0.45130600  0.36652900  1
  H  H24  1  0.19866300  0.71680000  0.29592100  1
  H  H25  1  0.27743100  0.60276100  0.40443400  1
  H  H26  1  0.59750900  0.28108800  0.89776300  1
  H  H27  1  0.54363000  0.04663900  0.86691700  1
  H  H28  1  0.28038200  0.80624200  0.79487300  1
  H  H29  1  0.39373800  0.71840500  0.90387900  1
  H  H30  1  0.95320800  0.54869400  0.86652900  1
  H  H31  1  0.71685200  0.59800900  0.89952800  1
  H  H32  1  0.19866300  0.28320000  0.79592100  1
  H  H33  1  0.27743100  0.39723900  0.90443400  1
  O  O34  1  0.50849700  0.50570400  0.56597300  1
  O  O35  1  0.50849700  0.49429600  0.06597300  1
  O  O36  1  0.49502400  0.49543400  0.44219600  1
  O  O37  1  0.49502400  0.50456600  0.94219600  1
  O  O38  1  0.32949900  0.15348300  0.63151200  1
  O  O39  1  0.65011400  0.86494900  0.63022500  1
  O  O40  1  0.15052700  0.67105400  0.63067700  1
  O  O41  1  0.86035800  0.35079100  0.63432200  1
  O  O42  1  0.32949900  0.84651700  0.13151200  1
  O  O43  1  0.65011400  0.13505100  0.13022500  1
  O  O44  1  0.15052700  0.32894600  0.13067700  1
  O  O45  1  0.86035800  0.64920900  0.13432200  1
  O  O46  1  0.66251000  0.85467800  0.37345900  1
  O  O47  1  0.33283300  0.14880700  0.36830800  1
  O  O48  1  0.85119100  0.33623100  0.37258000  1
  O  O49  1  0.14758900  0.66897900  0.36847900  1
  O  O50  1  0.66251000  0.14532200  0.87345900  1
  O  O51  1  0.33283300  0.85119300  0.86830800  1
  O  O52  1  0.85119100  0.66376900  0.87258000  1
  O  O53  1  0.14758900  0.33102100  0.86847900  1
