# generated using pymatgen
data_P3SN4Cl5O
_symmetry_space_group_name_H-M   'P 1'
_cell_length_a   8.08011700
_cell_length_b   9.17088500
_cell_length_c   17.56961400
_cell_angle_alpha   90.00000000
_cell_angle_beta   90.00000000
_cell_angle_gamma   90.00000000
_symmetry_Int_Tables_number   1
_chemical_formula_structural   P3SN4Cl5O
_chemical_formula_sum   'P12 S4 N16 Cl20 O4'
_cell_volume   1301.94044075
_cell_formula_units_Z   4
loop_
 _symmetry_equiv_pos_site_id
 _symmetry_equiv_pos_as_xyz
  1  'x, y, z'
loop_
 _atom_site_type_symbol
 _atom_site_label
 _atom_site_symmetry_multiplicity
 _atom_site_fract_x
 _atom_site_fract_y
 _atom_site_fract_z
 _atom_site_occupancy
  P  P0  1  0.28309100  0.90199200  0.14492000  1
  P  P1  1  0.21690900  0.59800800  0.64492000  1
  P  P2  1  0.52767300  0.75000000  0.06604500  1
  P  P3  1  0.71690900  0.09800800  0.85508000  1
  P  P4  1  0.28309100  0.59800800  0.14492000  1
  P  P5  1  0.71690900  0.40199200  0.85508000  1
  P  P6  1  0.02767300  0.25000000  0.43395500  1
  P  P7  1  0.97232700  0.75000000  0.56604500  1
  P  P8  1  0.47232700  0.25000000  0.93395500  1
  P  P9  1  0.21690900  0.90199200  0.64492000  1
  P  P10  1  0.78309100  0.40199200  0.35508000  1
  P  P11  1  0.78309100  0.09800800  0.35508000  1
  S  S12  1  0.60966100  0.25000000  0.08679200  1
  S  S13  1  0.39033900  0.75000000  0.91320800  1
  S  S14  1  0.89033900  0.25000000  0.58679200  1
  S  S15  1  0.10966100  0.75000000  0.41320800  1
  N  N16  1  0.69812100  0.25000000  0.33366500  1
  N  N17  1  0.04942000  0.89959600  0.59707100  1
  N  N18  1  0.30187900  0.75000000  0.66633500  1
  N  N19  1  0.45058000  0.60040400  0.09707100  1
  N  N20  1  0.03270600  0.25000000  0.52964200  1
  N  N21  1  0.96729400  0.75000000  0.47035800  1
  N  N22  1  0.95058000  0.39959600  0.40292900  1
  N  N23  1  0.53270600  0.75000000  0.97035800  1
  N  N24  1  0.45058000  0.89959600  0.09707100  1
  N  N25  1  0.46729400  0.25000000  0.02964200  1
  N  N26  1  0.54942000  0.10040400  0.90292900  1
  N  N27  1  0.80187900  0.25000000  0.83366500  1
  N  N28  1  0.54942000  0.39959600  0.90292900  1
  N  N29  1  0.19812100  0.75000000  0.16633500  1
  N  N30  1  0.04942000  0.60040400  0.59707100  1
  N  N31  1  0.95058000  0.10040400  0.40292900  1
  Cl  Cl32  1  0.38444800  0.47096700  0.59215000  1
  Cl  Cl33  1  0.88444800  0.97096700  0.90785000  1
  Cl  Cl34  1  0.32032600  0.01905900  0.24096500  1
  Cl  Cl35  1  0.77180900  0.75000000  0.08854000  1
  Cl  Cl36  1  0.72819100  0.75000000  0.58854000  1
  Cl  Cl37  1  0.88444800  0.52903300  0.90785000  1
  Cl  Cl38  1  0.11555200  0.02903300  0.09215000  1
  Cl  Cl39  1  0.38444800  0.02903300  0.59215000  1
  Cl  Cl40  1  0.11555200  0.47096700  0.09215000  1
  Cl  Cl41  1  0.17967400  0.48094100  0.74096500  1
  Cl  Cl42  1  0.27180900  0.25000000  0.41146000  1
  Cl  Cl43  1  0.17967400  0.01905900  0.74096500  1
  Cl  Cl44  1  0.67967400  0.51905900  0.75903500  1
  Cl  Cl45  1  0.67967400  0.98094100  0.75903500  1
  Cl  Cl46  1  0.32032600  0.48094100  0.24096500  1
  Cl  Cl47  1  0.22819100  0.25000000  0.91146000  1
  Cl  Cl48  1  0.82032600  0.51905900  0.25903500  1
  Cl  Cl49  1  0.82032600  0.98094100  0.25903500  1
  Cl  Cl50  1  0.61555200  0.97096700  0.40785000  1
  Cl  Cl51  1  0.61555200  0.52903300  0.40785000  1
  O  O52  1  0.21958100  0.75000000  0.94112500  1
  O  O53  1  0.78041900  0.25000000  0.05887500  1
  O  O54  1  0.71958100  0.25000000  0.55887500  1
  O  O55  1  0.28041900  0.75000000  0.44112500  1
