# generated using pymatgen
data_ScP3(HO2)6
_symmetry_space_group_name_H-M   'P 1'
_cell_length_a   8.31584172
_cell_length_b   8.31584172
_cell_length_c   26.63845196
_cell_angle_alpha   90.00000000
_cell_angle_beta   90.00000000
_cell_angle_gamma   120.00000000
_symmetry_Int_Tables_number   1
_chemical_formula_structural   ScP3(HO2)6
_chemical_formula_sum   'Sc6 P18 H36 O72'
_cell_volume   1595.33555278
_cell_formula_units_Z   6
loop_
 _symmetry_equiv_pos_site_id
 _symmetry_equiv_pos_as_xyz
  1  'x, y, z'
loop_
 _atom_site_type_symbol
 _atom_site_label
 _atom_site_symmetry_multiplicity
 _atom_site_fract_x
 _atom_site_fract_y
 _atom_site_fract_z
 _atom_site_occupancy
  Sc  Sc0  1  0.66666667  0.33333333  0.25187833  1
  Sc  Sc1  1  0.33333333  0.66666667  0.08521167  1
  Sc  Sc2  1  0.33333333  0.66666667  0.58521167  1
  Sc  Sc3  1  0.00000000  0.00000000  0.41854500  1
  Sc  Sc4  1  0.00000000  0.00000000  0.91854500  1
  Sc  Sc5  1  0.66666667  0.33333333  0.75187833  1
  P  P6  1  0.65293400  0.00274400  0.16879600  1
  P  P7  1  0.99725600  0.65019000  0.16879600  1
  P  P8  1  0.34981000  0.34706600  0.16879600  1
  P  P9  1  0.66392267  0.68039933  0.00212933  1
  P  P10  1  0.31960067  0.98352333  0.00212933  1
  P  P11  1  0.01647667  0.33607733  0.00212933  1
  P  P12  1  0.31960067  0.33607733  0.50212933  1
  P  P13  1  0.66392267  0.98352333  0.50212933  1
  P  P14  1  0.01647667  0.68039933  0.50212933  1
  P  P15  1  0.33058933  0.01373267  0.33546267  1
  P  P16  1  0.98626733  0.31685667  0.33546267  1
  P  P17  1  0.68314333  0.66941067  0.33546267  1
  P  P18  1  0.98626733  0.66941067  0.83546267  1
  P  P19  1  0.33058933  0.31685667  0.83546267  1
  P  P20  1  0.68314333  0.01373267  0.83546267  1
  P  P21  1  0.99725600  0.34706600  0.66879600  1
  P  P22  1  0.65293400  0.65019000  0.66879600  1
  P  P23  1  0.34981000  0.00274400  0.66879600  1
  H  H24  1  0.74583700  0.79699200  0.17547800  1
  H  H25  1  0.20300800  0.94884500  0.17547800  1
  H  H26  1  0.05115500  0.25416300  0.17547800  1
  H  H27  1  0.86967467  0.58749633  0.00881133  1
  H  H28  1  0.41250367  0.28217833  0.00881133  1
  H  H29  1  0.71782167  0.13032533  0.00881133  1
  H  H30  1  0.71000667  0.86784533  0.27537733  1
  H  H31  1  0.13215467  0.84216133  0.27537733  1
  H  H32  1  0.15783867  0.28999333  0.27537733  1
  H  H33  1  0.79882133  0.62332667  0.10871067  1
  H  H34  1  0.37667333  0.17549467  0.10871067  1
  H  H35  1  0.82450533  0.20117867  0.10871067  1
  H  H36  1  0.41250367  0.13032533  0.50881133  1
  H  H37  1  0.86967467  0.28217833  0.50881133  1
  H  H38  1  0.71782167  0.58749633  0.50881133  1
  H  H39  1  0.53634133  0.92082967  0.34214467  1
  H  H40  1  0.07917033  0.61551167  0.34214467  1
  H  H41  1  0.38448833  0.46365867  0.34214467  1
  H  H42  1  0.37667333  0.20117867  0.60871067  1
  H  H43  1  0.79882133  0.17549467  0.60871067  1
  H  H44  1  0.82450533  0.62332667  0.60871067  1
  H  H45  1  0.46548800  0.95666000  0.44204400  1
  H  H46  1  0.04334000  0.50882800  0.44204400  1
  H  H47  1  0.49117200  0.53451200  0.44204400  1
  H  H48  1  0.07917033  0.46365867  0.84214467  1
  H  H49  1  0.53634133  0.61551167  0.84214467  1
  H  H50  1  0.38448833  0.92082967  0.84214467  1
  H  H51  1  0.20300800  0.25416300  0.67547800  1
  H  H52  1  0.74583700  0.94884500  0.67547800  1
  H  H53  1  0.05115500  0.79699200  0.67547800  1
  H  H54  1  0.04334000  0.53451200  0.94204400  1
  H  H55  1  0.46548800  0.50882800  0.94204400  1
  H  H56  1  0.49117200  0.95666000  0.94204400  1
  H  H57  1  0.13215467  0.28999333  0.77537733  1
  H  H58  1  0.71000667  0.84216133  0.77537733  1
  H  H59  1  0.15783867  0.86784533  0.77537733  1
  O  O60  1  0.60538167  0.10059933  0.20845233  1
  O  O61  1  0.89940067  0.50478233  0.20845233  1
  O  O62  1  0.49521767  0.39461833  0.20845233  1
  O  O63  1  0.56606733  0.72795167  0.04178567  1
  O  O64  1  0.27204833  0.83811567  0.04178567  1
  O  O65  1  0.16188433  0.43393267  0.04178567  1
  O  O66  1  0.50306333  0.89659067  0.13066267  1
  O  O67  1  0.10340933  0.60647267  0.13066267  1
  O  O68  1  0.39352733  0.49693667  0.13066267  1
  O  O69  1  0.43674267  0.16360333  0.29732933  1
  O  O70  1  0.83639667  0.27313933  0.29732933  1
  O  O71  1  0.72686067  0.56325733  0.29732933  1
  O  O72  1  0.71914367  0.87840433  0.19772633  1
  O  O73  1  0.12159567  0.84073933  0.19772633  1
  O  O74  1  0.15926067  0.28085633  0.19772633  1
  O  O75  1  0.78826233  0.61418967  0.03105967  1
  O  O76  1  0.38581033  0.17407267  0.03105967  1
  O  O77  1  0.82592733  0.21173767  0.03105967  1
  O  O78  1  0.84163533  0.15009267  0.14022667  1
  O  O79  1  0.84990733  0.69154267  0.14022667  1
  O  O80  1  0.30845733  0.15836467  0.14022667  1
  O  O81  1  0.18324067  0.82503133  0.30689333  1
  O  O82  1  0.17496867  0.35820933  0.30689333  1
  O  O83  1  0.64179067  0.81675933  0.30689333  1
  O  O84  1  0.27204833  0.43393267  0.54178567  1
  O  O85  1  0.56606733  0.83811567  0.54178567  1
  O  O86  1  0.16188433  0.72795167  0.54178567  1
  O  O87  1  0.23273400  0.06128500  0.37511900  1
  O  O88  1  0.93871500  0.17144900  0.37511900  1
  O  O89  1  0.82855100  0.76726600  0.37511900  1
  O  O90  1  0.16973000  0.22992400  0.46399600  1
  O  O91  1  0.77007600  0.93980600  0.46399600  1
  O  O92  1  0.06019400  0.83027000  0.46399600  1
  O  O93  1  0.10340933  0.49693667  0.63066267  1
  O  O94  1  0.50306333  0.60647267  0.63066267  1
  O  O95  1  0.39352733  0.89659067  0.63066267  1
  O  O96  1  0.38581033  0.21173767  0.53105967  1
  O  O97  1  0.78826233  0.17407267  0.53105967  1
  O  O98  1  0.82592733  0.61418967  0.53105967  1
  O  O99  1  0.45492900  0.94752300  0.36439300  1
  O  O100  1  0.05247700  0.50740600  0.36439300  1
  O  O101  1  0.49259400  0.54507100  0.36439300  1
  O  O102  1  0.50830200  0.48342600  0.47356000  1
  O  O103  1  0.51657400  0.02487600  0.47356000  1
  O  O104  1  0.97512400  0.49169800  0.47356000  1
  O  O105  1  0.84990733  0.15836467  0.64022667  1
  O  O106  1  0.84163533  0.69154267  0.64022667  1
  O  O107  1  0.30845733  0.15009267  0.64022667  1
  O  O108  1  0.93871500  0.76726600  0.87511900  1
  O  O109  1  0.23273400  0.17144900  0.87511900  1
  O  O110  1  0.82855100  0.06128500  0.87511900  1
  O  O111  1  0.89940067  0.39461833  0.70845233  1
  O  O112  1  0.60538167  0.50478233  0.70845233  1
  O  O113  1  0.49521767  0.10059933  0.70845233  1
  O  O114  1  0.83639667  0.56325733  0.79732933  1
  O  O115  1  0.43674267  0.27313933  0.79732933  1
  O  O116  1  0.72686067  0.16360333  0.79732933  1
  O  O117  1  0.77007600  0.83027000  0.96399600  1
  O  O118  1  0.16973000  0.93980600  0.96399600  1
  O  O119  1  0.06019400  0.22992400  0.96399600  1
  O  O120  1  0.05247700  0.54507100  0.86439300  1
  O  O121  1  0.45492900  0.50740600  0.86439300  1
  O  O122  1  0.49259400  0.94752300  0.86439300  1
  O  O123  1  0.12159567  0.28085633  0.69772633  1
  O  O124  1  0.71914367  0.84073933  0.69772633  1
  O  O125  1  0.15926067  0.87840433  0.69772633  1
  O  O126  1  0.17496867  0.81675933  0.80689333  1
  O  O127  1  0.18324067  0.35820933  0.80689333  1
  O  O128  1  0.64179067  0.82503133  0.80689333  1
  O  O129  1  0.51657400  0.49169800  0.97356000  1
  O  O130  1  0.50830200  0.02487600  0.97356000  1
  O  O131  1  0.97512400  0.48342600  0.97356000  1
