# generated using pymatgen
data_Cs2P2H2O7
_symmetry_space_group_name_H-M   'P 1'
_cell_length_a   8.07048800
_cell_length_b   9.11230200
_cell_length_c   11.52103687
_cell_angle_alpha   90.00000000
_cell_angle_beta   90.34001588
_cell_angle_gamma   90.00000000
_symmetry_Int_Tables_number   1
_chemical_formula_structural   Cs2P2H2O7
_chemical_formula_sum   'Cs8 P8 H8 O28'
_cell_volume   847.25047279
_cell_formula_units_Z   4
loop_
 _symmetry_equiv_pos_site_id
 _symmetry_equiv_pos_as_xyz
  1  'x, y, z'
loop_
 _atom_site_type_symbol
 _atom_site_label
 _atom_site_symmetry_multiplicity
 _atom_site_fract_x
 _atom_site_fract_y
 _atom_site_fract_z
 _atom_site_occupancy
  Cs  Cs0  1  0.50563700  0.77347100  0.02061200  1
  Cs  Cs1  1  0.49436300  0.77347100  0.47938800  1
  Cs  Cs2  1  0.49436300  0.22652900  0.97938800  1
  Cs  Cs3  1  0.50563700  0.22652900  0.52061200  1
  Cs  Cs4  1  0.00563700  0.27347100  0.02061200  1
  Cs  Cs5  1  0.99436300  0.27347100  0.47938800  1
  Cs  Cs6  1  0.99436300  0.72652900  0.97938800  1
  Cs  Cs7  1  0.00563700  0.72652900  0.52061200  1
  P  P8  1  0.81447050  0.98591650  0.26336600  1
  P  P9  1  0.18552950  0.98591650  0.23663400  1
  P  P10  1  0.18552950  0.01408350  0.73663400  1
  P  P11  1  0.81447050  0.01408350  0.76336600  1
  P  P12  1  0.31447050  0.48591650  0.26336600  1
  P  P13  1  0.68552950  0.48591650  0.23663400  1
  P  P14  1  0.68552950  0.51408350  0.73663400  1
  P  P15  1  0.31447050  0.51408350  0.76336600  1
  H  H16  1  0.69128950  0.80025050  0.73728300  1
  H  H17  1  0.30871050  0.80025050  0.76271700  1
  H  H18  1  0.30871050  0.19974950  0.26271700  1
  H  H19  1  0.69128950  0.19974950  0.23728300  1
  H  H20  1  0.19128950  0.30025050  0.73728300  1
  H  H21  1  0.80871050  0.30025050  0.76271700  1
  H  H22  1  0.80871050  0.69974950  0.26271700  1
  H  H23  1  0.19128950  0.69974950  0.23728300  1
  O  O24  1  0.70566600  0.89887100  0.69250000  1
  O  O25  1  0.29433400  0.89887100  0.80750000  1
  O  O26  1  0.29433400  0.10112900  0.30750000  1
  O  O27  1  0.70566600  0.10112900  0.19250000  1
  O  O28  1  0.22598850  0.01701250  0.60918500  1
  O  O29  1  0.77401150  0.01701250  0.89081500  1
  O  O30  1  0.77401150  0.98298750  0.39081500  1
  O  O31  1  0.22598850  0.98298750  0.10918500  1
  O  O32  1  0.80978400  0.15842000  0.69644400  1
  O  O33  1  0.19021600  0.15842000  0.80355600  1
  O  O34  1  0.19021600  0.84158000  0.30355600  1
  O  O35  1  0.80978400  0.84158000  0.19644400  1
  O  O36  1  0.50000000  0.44109100  0.75000000  1
  O  O37  1  0.50000000  0.55890900  0.25000000  1
  O  O38  1  0.20566600  0.39887100  0.69250000  1
  O  O39  1  0.79433400  0.39887100  0.80750000  1
  O  O40  1  0.79433400  0.60112900  0.30750000  1
  O  O41  1  0.20566600  0.60112900  0.19250000  1
  O  O42  1  0.72598850  0.51701250  0.60918500  1
  O  O43  1  0.27401150  0.51701250  0.89081500  1
  O  O44  1  0.27401150  0.48298750  0.39081500  1
  O  O45  1  0.72598850  0.48298750  0.10918500  1
  O  O46  1  0.30978400  0.65842000  0.69644400  1
  O  O47  1  0.69021600  0.65842000  0.80355600  1
  O  O48  1  0.69021600  0.34158000  0.30355600  1
  O  O49  1  0.30978400  0.34158000  0.19644400  1
  O  O50  1  0.00000000  0.94109100  0.75000000  1
  O  O51  1  0.00000000  0.05890900  0.25000000  1
