# generated using pymatgen
data_ScHO2
_symmetry_space_group_name_H-M   'P 1'
_cell_length_a   3.27667800
_cell_length_b   13.03129800
_cell_length_c   4.05048000
_cell_angle_alpha   90.00000000
_cell_angle_beta   90.00000000
_cell_angle_gamma   90.00000000
_symmetry_Int_Tables_number   1
_chemical_formula_structural   ScHO2
_chemical_formula_sum   'Sc4 H4 O8'
_cell_volume   172.95293394
_cell_formula_units_Z   4
loop_
 _symmetry_equiv_pos_site_id
 _symmetry_equiv_pos_as_xyz
  1  'x, y, z'
loop_
 _atom_site_type_symbol
 _atom_site_label
 _atom_site_symmetry_multiplicity
 _atom_site_fract_x
 _atom_site_fract_y
 _atom_site_fract_z
 _atom_site_occupancy
  Sc  Sc0  1  0.00000000  0.67556400  0.75088900  1
  Sc  Sc1  1  0.50000000  0.82443600  0.25088900  1
  Sc  Sc2  1  0.50000000  0.17556400  0.75088900  1
  Sc  Sc3  1  0.00000000  0.32443600  0.25088900  1
  H  H4  1  0.50000000  0.51581800  0.56504900  1
  H  H5  1  0.00000000  0.98418200  0.06504900  1
  H  H6  1  0.00000000  0.01581800  0.56504900  1
  H  H7  1  0.50000000  0.48418200  0.06504900  1
  O  O8  1  0.50000000  0.78441100  0.75046100  1
  O  O9  1  0.00000000  0.71558900  0.25046100  1
  O  O10  1  0.50000000  0.56911200  0.74420100  1
  O  O11  1  0.00000000  0.93088800  0.24420100  1
  O  O12  1  0.00000000  0.28441100  0.75046100  1
  O  O13  1  0.50000000  0.21558900  0.25046100  1
  O  O14  1  0.00000000  0.06911200  0.74420100  1
  O  O15  1  0.50000000  0.43088800  0.24420100  1
