# generated using pymatgen
data_KCaNb2O6F
_symmetry_space_group_name_H-M   'P 1'
_cell_length_a   7.48767800
_cell_length_b   7.65035000
_cell_length_c   10.76963800
_cell_angle_alpha   90.00000000
_cell_angle_beta   90.00000000
_cell_angle_gamma   90.00000000
_symmetry_Int_Tables_number   1
_chemical_formula_structural   KCaNb2O6F
_chemical_formula_sum   'K4 Ca4 Nb8 O24 F4'
_cell_volume   616.92102249
_cell_formula_units_Z   4
loop_
 _symmetry_equiv_pos_site_id
 _symmetry_equiv_pos_as_xyz
  1  'x, y, z'
loop_
 _atom_site_type_symbol
 _atom_site_label
 _atom_site_symmetry_multiplicity
 _atom_site_fract_x
 _atom_site_fract_y
 _atom_site_fract_z
 _atom_site_occupancy
  K  K0  1  0.25000000  0.25000000  0.25000000  1
  K  K1  1  0.75000000  0.25000000  0.25000000  1
  K  K2  1  0.75000000  0.75000000  0.75000000  1
  K  K3  1  0.25000000  0.75000000  0.75000000  1
  Ca  Ca4  1  0.50000000  0.50000000  0.00000000  1
  Ca  Ca5  1  0.50000000  0.00000000  0.00000000  1
  Ca  Ca6  1  0.00000000  0.00000000  0.50000000  1
  Ca  Ca7  1  0.00000000  0.50000000  0.50000000  1
  Nb  Nb8  1  0.00000000  0.00000000  0.00000000  1
  Nb  Nb9  1  0.75000000  0.25000000  0.75000000  1
  Nb  Nb10  1  0.00000000  0.50000000  0.00000000  1
  Nb  Nb11  1  0.25000000  0.25000000  0.75000000  1
  Nb  Nb12  1  0.50000000  0.50000000  0.50000000  1
  Nb  Nb13  1  0.25000000  0.75000000  0.25000000  1
  Nb  Nb14  1  0.50000000  0.00000000  0.50000000  1
  Nb  Nb15  1  0.75000000  0.75000000  0.25000000  1
  O  O16  1  0.30548800  0.06428900  0.62244200  1
  O  O17  1  0.00000000  0.75000000  0.94124500  1
  O  O18  1  0.69451200  0.06428900  0.62244200  1
  O  O19  1  0.80548800  0.93571100  0.12244200  1
  O  O20  1  0.80548800  0.06428900  0.87755800  1
  O  O21  1  0.50000000  0.75000000  0.18119300  1
  O  O22  1  0.50000000  0.25000000  0.81880700  1
  O  O23  1  0.19451200  0.93571100  0.12244200  1
  O  O24  1  0.19451200  0.06428900  0.87755800  1
  O  O25  1  0.30548800  0.93571100  0.37755800  1
  O  O26  1  0.00000000  0.25000000  0.05875500  1
  O  O27  1  0.69451200  0.93571100  0.37755800  1
  O  O28  1  0.80548800  0.56428900  0.12244200  1
  O  O29  1  0.50000000  0.25000000  0.44124500  1
  O  O30  1  0.19451200  0.56428900  0.12244200  1
  O  O31  1  0.30548800  0.43571100  0.62244200  1
  O  O32  1  0.30548800  0.56428900  0.37755800  1
  O  O33  1  0.00000000  0.25000000  0.68119300  1
  O  O34  1  0.00000000  0.75000000  0.31880700  1
  O  O35  1  0.69451200  0.43571100  0.62244200  1
  O  O36  1  0.69451200  0.56428900  0.37755800  1
  O  O37  1  0.80548800  0.43571100  0.87755800  1
  O  O38  1  0.50000000  0.75000000  0.55875500  1
  O  O39  1  0.19451200  0.43571100  0.87755800  1
  F  F40  1  0.50000000  0.25000000  0.09680200  1
  F  F41  1  0.50000000  0.75000000  0.90319800  1
  F  F42  1  0.00000000  0.75000000  0.59680200  1
  F  F43  1  0.00000000  0.25000000  0.40319800  1
