# generated using pymatgen
data_RbPbF3
_symmetry_space_group_name_H-M   'P 1'
_cell_length_a   11.54540400
_cell_length_b   6.88296400
_cell_length_c   6.61652235
_cell_angle_alpha   90.00000000
_cell_angle_beta   123.87820848
_cell_angle_gamma   90.00000000
_symmetry_Int_Tables_number   1
_chemical_formula_structural   RbPbF3
_chemical_formula_sum   'Rb4 Pb4 F12'
_cell_volume   436.52576872
_cell_formula_units_Z   4
loop_
 _symmetry_equiv_pos_site_id
 _symmetry_equiv_pos_as_xyz
  1  'x, y, z'
loop_
 _atom_site_type_symbol
 _atom_site_label
 _atom_site_symmetry_multiplicity
 _atom_site_fract_x
 _atom_site_fract_y
 _atom_site_fract_z
 _atom_site_occupancy
  Rb  Rb0  1  0.53578400  0.74813300  0.23965700  1
  Rb  Rb1  1  0.53578400  0.25186700  0.73965700  1
  Rb  Rb2  1  0.03578400  0.24813300  0.23965700  1
  Rb  Rb3  1  0.03578400  0.75186700  0.73965700  1
  Pb  Pb4  1  0.30135150  0.25444550  0.98432400  1
  Pb  Pb5  1  0.30135150  0.74555450  0.48432400  1
  Pb  Pb6  1  0.80135150  0.75444550  0.98432400  1
  Pb  Pb7  1  0.80135150  0.24555450  0.48432400  1
  F  F8  1  0.54448000  0.33884700  0.19551900  1
  F  F9  1  0.36309700  0.99250100  0.83009200  1
  F  F10  1  0.36309700  0.00749900  0.33009200  1
  F  F11  1  0.54448000  0.66115300  0.69551900  1
  F  F12  1  0.77557150  0.92301750  0.64221400  1
  F  F13  1  0.77557150  0.07698250  0.14221400  1
  F  F14  1  0.04448000  0.83884700  0.19551900  1
  F  F15  1  0.86309700  0.49250100  0.83009200  1
  F  F16  1  0.86309700  0.50749900  0.33009200  1
  F  F17  1  0.04448000  0.16115300  0.69551900  1
  F  F18  1  0.27557150  0.42301750  0.64221400  1
  F  F19  1  0.27557150  0.57698250  0.14221400  1
