# generated using pymatgen
data_Na2Zn2Si2O7
_symmetry_space_group_name_H-M   'P 1'
_cell_length_a   5.16968200
_cell_length_b   9.37644800
_cell_length_c   13.82079300
_cell_angle_alpha   90.00000000
_cell_angle_beta   90.00000000
_cell_angle_gamma   90.00000000
_symmetry_Int_Tables_number   1
_chemical_formula_structural   Na2Zn2Si2O7
_chemical_formula_sum   'Na8 Zn8 Si8 O28'
_cell_volume   669.93881578
_cell_formula_units_Z   4
loop_
 _symmetry_equiv_pos_site_id
 _symmetry_equiv_pos_as_xyz
  1  'x, y, z'
loop_
 _atom_site_type_symbol
 _atom_site_label
 _atom_site_symmetry_multiplicity
 _atom_site_fract_x
 _atom_site_fract_y
 _atom_site_fract_z
 _atom_site_occupancy
  Na  Na0  1  0.02136050  0.03608150  0.25000000  1
  Na  Na1  1  0.52136050  0.46391850  0.75000000  1
  Na  Na2  1  0.00776800  0.00000000  0.50000000  1
  Na  Na3  1  0.00776800  0.00000000  0.00000000  1
  Na  Na4  1  0.52136050  0.53608150  0.25000000  1
  Na  Na5  1  0.02136050  0.96391850  0.75000000  1
  Na  Na6  1  0.50776800  0.50000000  0.50000000  1
  Na  Na7  1  0.50776800  0.50000000  0.00000000  1
  Zn  Zn8  1  0.55729600  0.21450700  0.42000600  1
  Zn  Zn9  1  0.05729600  0.28549300  0.57999400  1
  Zn  Zn10  1  0.55729600  0.21450700  0.07999400  1
  Zn  Zn11  1  0.05729600  0.28549300  0.92000600  1
  Zn  Zn12  1  0.05729600  0.71450700  0.42000600  1
  Zn  Zn13  1  0.55729600  0.78549300  0.57999400  1
  Zn  Zn14  1  0.05729600  0.71450700  0.07999400  1
  Zn  Zn15  1  0.55729600  0.78549300  0.92000600  1
  Si  Si16  1  0.04865500  0.38030500  0.35967500  1
  Si  Si17  1  0.54865500  0.11969500  0.64032500  1
  Si  Si18  1  0.04865500  0.38030500  0.14032500  1
  Si  Si19  1  0.54865500  0.11969500  0.85967500  1
  Si  Si20  1  0.54865500  0.88030500  0.35967500  1
  Si  Si21  1  0.04865500  0.61969500  0.64032500  1
  Si  Si22  1  0.54865500  0.88030500  0.14032500  1
  Si  Si23  1  0.04865500  0.61969500  0.85967500  1
  O  O24  1  0.68487400  0.03661200  0.37098700  1
  O  O25  1  0.18487400  0.46338800  0.62901300  1
  O  O26  1  0.68487400  0.03661200  0.12901300  1
  O  O27  1  0.18487400  0.46338800  0.87098700  1
  O  O28  1  0.18394100  0.26620200  0.43664200  1
  O  O29  1  0.68394100  0.23379800  0.56335800  1
  O  O30  1  0.18394100  0.26620200  0.06335800  1
  O  O31  1  0.68394100  0.23379800  0.93664200  1
  O  O32  1  0.73636200  0.38780500  0.37401500  1
  O  O33  1  0.23636200  0.11219500  0.62598500  1
  O  O34  1  0.73636200  0.38780500  0.12598500  1
  O  O35  1  0.23636200  0.11219500  0.87401500  1
  O  O36  1  0.62251550  0.18530450  0.75000000  1
  O  O37  1  0.12251550  0.31469550  0.25000000  1
  O  O38  1  0.18487400  0.53661200  0.37098700  1
  O  O39  1  0.68487400  0.96338800  0.62901300  1
  O  O40  1  0.18487400  0.53661200  0.12901300  1
  O  O41  1  0.68487400  0.96338800  0.87098700  1
  O  O42  1  0.68394100  0.76620200  0.43664200  1
  O  O43  1  0.18394100  0.73379800  0.56335800  1
  O  O44  1  0.68394100  0.76620200  0.06335800  1
  O  O45  1  0.18394100  0.73379800  0.93664200  1
  O  O46  1  0.23636200  0.88780500  0.37401500  1
  O  O47  1  0.73636200  0.61219500  0.62598500  1
  O  O48  1  0.23636200  0.88780500  0.12598500  1
  O  O49  1  0.73636200  0.61219500  0.87401500  1
  O  O50  1  0.12251550  0.68530450  0.75000000  1
  O  O51  1  0.62251550  0.81469550  0.25000000  1
