# generated using pymatgen
data_K4(BSe)9
_symmetry_space_group_name_H-M   'P 1'
_cell_length_a   16.57950259
_cell_length_b   42.17638074
_cell_length_c   10.01924400
_cell_angle_alpha   90.00000000
_cell_angle_beta   109.50608699
_cell_angle_gamma   90.00000000
_symmetry_Int_Tables_number   1
_chemical_formula_structural   K4(BSe)9
_chemical_formula_sum   'K48 B108 Se108'
_cell_volume   6603.98334982
_cell_formula_units_Z   12
loop_
 _symmetry_equiv_pos_site_id
 _symmetry_equiv_pos_as_xyz
  1  'x, y, z'
loop_
 _atom_site_type_symbol
 _atom_site_label
 _atom_site_symmetry_multiplicity
 _atom_site_fract_x
 _atom_site_fract_y
 _atom_site_fract_z
 _atom_site_occupancy
  K  K0  1  0.67123250  0.07314050  0.89974200  1
  K  K1  1  0.50679050  0.35864550  0.00368300  1
  K  K2  1  0.27350100  0.18520300  0.90894100  1
  K  K3  1  0.48205850  0.31164450  0.51313400  1
  K  K4  1  0.16013500  0.00000000  0.60791900  1
  K  K5  1  0.65552750  0.40289850  0.46926600  1
  K  K6  1  0.32020650  0.07498150  0.04213100  1
  K  K7  1  0.65282750  0.25921450  0.22209600  1
  K  K8  1  0.31784950  0.41734850  0.48602900  1
  K  K9  1  0.81784950  0.08265150  0.48602900  1
  K  K10  1  0.10837100  0.50000000  0.41852200  1
  K  K11  1  0.82005000  0.42742100  0.03763500  1
  K  K12  1  0.99349150  0.50000000  0.97944600  1
  K  K13  1  0.98205850  0.18835550  0.51313400  1
  K  K14  1  0.17123250  0.42685950  0.89974200  1
  K  K15  1  0.15282750  0.24078550  0.22209600  1
  K  K16  1  0.40434950  0.00140650  0.54242600  1
  K  K17  1  0.85078400  0.22521500  0.80170900  1
  K  K18  1  0.15552750  0.09710150  0.46926600  1
  K  K19  1  0.77350100  0.31479700  0.90894100  1
  K  K20  1  0.67359450  0.15966950  0.09538100  1
  K  K21  1  0.00679050  0.14135450  0.00368300  1
  K  K22  1  0.35078400  0.27478500  0.80170900  1
  K  K23  1  0.17359450  0.34033050  0.09538100  1
  K  K24  1  0.17123250  0.57314050  0.89974200  1
  K  K25  1  0.00679050  0.85864550  0.00368300  1
  K  K26  1  0.77350100  0.68520300  0.90894100  1
  K  K27  1  0.98205850  0.81164450  0.51313400  1
  K  K28  1  0.66013500  0.50000000  0.60791900  1
  K  K29  1  0.15552750  0.90289850  0.46926600  1
  K  K30  1  0.82020650  0.57498150  0.04213100  1
  K  K31  1  0.15282750  0.75921450  0.22209600  1
  K  K32  1  0.81784950  0.91734850  0.48602900  1
  K  K33  1  0.31784950  0.58265150  0.48602900  1
  K  K34  1  0.60837100  0.00000000  0.41852200  1
  K  K35  1  0.32005000  0.92742100  0.03763500  1
  K  K36  1  0.49349150  0.00000000  0.97944600  1
  K  K37  1  0.48205850  0.68835550  0.51313400  1
  K  K38  1  0.67123250  0.92685950  0.89974200  1
  K  K39  1  0.65282750  0.74078550  0.22209600  1
  K  K40  1  0.90434950  0.50140650  0.54242600  1
  K  K41  1  0.35078400  0.72521500  0.80170900  1
  K  K42  1  0.65552750  0.59710150  0.46926600  1
  K  K43  1  0.27350100  0.81479700  0.90894100  1
  K  K44  1  0.17359450  0.65966950  0.09538100  1
  K  K45  1  0.50679050  0.64135450  0.00368300  1
  K  K46  1  0.85078400  0.77478500  0.80170900  1
  K  K47  1  0.67359450  0.84033050  0.09538100  1
  B  B48  1  0.54075600  0.13153500  0.51678000  1
  B  B49  1  0.75912000  0.15906500  0.63001500  1
  B  B50  1  0.40000900  0.41789800  0.15007500  1
  B  B51  1  0.39108950  0.16674750  0.36915600  1
  B  B52  1  0.37761000  0.24833900  0.24890600  1
  B  B53  1  0.04323600  0.30167600  0.54558000  1
  B  B54  1  0.44210100  0.46680400  0.96319300  1
  B  B55  1  0.56576150  0.24694750  0.77914600  1
  B  B56  1  0.48125650  0.14704650  0.34984200  1
  B  B57  1  0.92719950  0.36959650  0.46733300  1
  B  B58  1  0.09873050  0.08370750  0.85328500  1
  B  B59  1  0.08764450  0.00000000  0.14640100  1
  B  B60  1  0.22464750  0.50000000  0.82437100  1
  B  B61  1  0.57547000  0.08947400  0.29668100  1
  B  B62  1  0.71017200  0.33177700  0.37291700  1
  B  B63  1  0.94210100  0.03319600  0.96319300  1
  B  B64  1  0.07418950  0.33346250  0.45886000  1
  B  B65  1  0.98999100  0.31703300  0.65674100  1
  B  B66  1  0.98125650  0.35295350  0.34984200  1
  B  B67  1  0.07547000  0.41052600  0.29668100  1
  B  B68  1  0.89108950  0.33325250  0.36915600  1
  B  B69  1  0.59873050  0.41629250  0.85328500  1
  B  B70  1  0.04075600  0.36846500  0.51678000  1
  B  B71  1  0.40993700  0.50000000  0.85172000  1
  B  B72  1  0.00449950  0.02224150  0.85804300  1
  B  B73  1  0.55474200  0.46686800  0.03600600  1
  B  B74  1  0.42996500  0.19998900  0.48472300  1
  B  B75  1  0.48999100  0.18296700  0.65674100  1
  B  B76  1  0.54323600  0.19832400  0.54558000  1
  B  B77  1  0.98800800  0.35946200  0.64271300  1
  B  B78  1  0.89586850  0.33617350  0.54866800  1
  B  B79  1  0.50449950  0.47775850  0.85804300  1
  B  B80  1  0.06576150  0.25305250  0.77914600  1
  B  B81  1  0.57975450  0.16327050  0.63727700  1
  B  B82  1  0.92996500  0.30001100  0.48472300  1
  B  B83  1  0.21017200  0.16822300  0.37291700  1
  B  B84  1  0.48141450  0.18951050  0.36326000  1
  B  B85  1  0.05474200  0.03313200  0.03600600  1
  B  B86  1  0.87761000  0.25166100  0.24890600  1
  B  B87  1  0.98141450  0.31048950  0.36326000  1
  B  B88  1  0.39586850  0.16382650  0.54866800  1
  B  B89  1  0.90351400  0.00000000  0.02579600  1
  B  B90  1  0.89043150  0.41870950  0.65639900  1
  B  B91  1  0.09261700  0.00000000  0.97276700  1
  B  B92  1  0.42719950  0.13040350  0.46733300  1
  B  B93  1  0.48800800  0.14053800  0.64271300  1
  B  B94  1  0.07975450  0.33672950  0.63727700  1
  B  B95  1  0.27489800  0.00000000  0.16660400  1
  B  B96  1  0.99270950  0.02221250  0.14113800  1
  B  B97  1  0.57418950  0.16653750  0.45886000  1
  B  B98  1  0.49270950  0.47778750  0.14113800  1
  B  B99  1  0.90000900  0.08210200  0.15007500  1
  B  B100  1  0.39043150  0.08129050  0.65639900  1
  B  B101  1  0.25912000  0.34093500  0.63001500  1
  B  B102  1  0.04075600  0.63153500  0.51678000  1
  B  B103  1  0.25912000  0.65906500  0.63001500  1
  B  B104  1  0.90000900  0.91789800  0.15007500  1
  B  B105  1  0.89108950  0.66674750  0.36915600  1
  B  B106  1  0.87761000  0.74833900  0.24890600  1
  B  B107  1  0.54323600  0.80167600  0.54558000  1
  B  B108  1  0.94210100  0.96680400  0.96319300  1
  B  B109  1  0.06576150  0.74694750  0.77914600  1
  B  B110  1  0.98125650  0.64704650  0.34984200  1
  B  B111  1  0.42719950  0.86959650  0.46733300  1
  B  B112  1  0.59873050  0.58370750  0.85328500  1
  B  B113  1  0.58764450  0.50000000  0.14640100  1
  B  B114  1  0.72464750  0.00000000  0.82437100  1
  B  B115  1  0.07547000  0.58947400  0.29668100  1
  B  B116  1  0.21017200  0.83177700  0.37291700  1
  B  B117  1  0.44210100  0.53319600  0.96319300  1
  B  B118  1  0.57418950  0.83346250  0.45886000  1
  B  B119  1  0.48999100  0.81703300  0.65674100  1
  B  B120  1  0.48125650  0.85295350  0.34984200  1
  B  B121  1  0.57547000  0.91052600  0.29668100  1
  B  B122  1  0.39108950  0.83325250  0.36915600  1
  B  B123  1  0.09873050  0.91629250  0.85328500  1
  B  B124  1  0.54075600  0.86846500  0.51678000  1
  B  B125  1  0.90993700  0.00000000  0.85172000  1
  B  B126  1  0.50449950  0.52224150  0.85804300  1
  B  B127  1  0.05474200  0.96686800  0.03600600  1
  B  B128  1  0.92996500  0.69998900  0.48472300  1
  B  B129  1  0.98999100  0.68296700  0.65674100  1
  B  B130  1  0.04323600  0.69832400  0.54558000  1
  B  B131  1  0.48800800  0.85946200  0.64271300  1
  B  B132  1  0.39586850  0.83617350  0.54866800  1
  B  B133  1  0.00449950  0.97775850  0.85804300  1
  B  B134  1  0.56576150  0.75305250  0.77914600  1
  B  B135  1  0.07975450  0.66327050  0.63727700  1
  B  B136  1  0.42996500  0.80001100  0.48472300  1
  B  B137  1  0.71017200  0.66822300  0.37291700  1
  B  B138  1  0.98141450  0.68951050  0.36326000  1
  B  B139  1  0.55474200  0.53313200  0.03600600  1
  B  B140  1  0.37761000  0.75166100  0.24890600  1
  B  B141  1  0.48141450  0.81048950  0.36326000  1
  B  B142  1  0.89586850  0.66382650  0.54866800  1
  B  B143  1  0.40351400  0.50000000  0.02579600  1
  B  B144  1  0.39043150  0.91870950  0.65639900  1
  B  B145  1  0.59261700  0.50000000  0.97276700  1
  B  B146  1  0.92719950  0.63040350  0.46733300  1
  B  B147  1  0.98800800  0.64053800  0.64271300  1
  B  B148  1  0.57975450  0.83672950  0.63727700  1
  B  B149  1  0.77489800  0.50000000  0.16660400  1
  B  B150  1  0.49270950  0.52221250  0.14113800  1
  B  B151  1  0.07418950  0.66653750  0.45886000  1
  B  B152  1  0.99270950  0.97778750  0.14113800  1
  B  B153  1  0.40000900  0.58210200  0.15007500  1
  B  B154  1  0.89043150  0.58129050  0.65639900  1
  B  B155  1  0.75912000  0.84093500  0.63001500  1
  Se  Se156  1  0.86105300  0.41045900  0.45073900  1
  Se  Se157  1  0.31466750  0.27976850  0.11942500  1
  Se  Se158  1  0.62024100  0.42606100  0.05700400  1
  Se  Se159  1  0.87914700  0.15213800  0.68195400  1
  Se  Se160  1  0.97301650  0.05184550  0.28582100  1
  Se  Se161  1  0.19922550  0.34349050  0.77409400  1
  Se  Se162  1  0.10793750  0.26114750  0.61976600  1
  Se  Se163  1  0.87937700  0.07625900  0.94447800  1
  Se  Se164  1  0.60323250  0.09106550  0.50501800  1
  Se  Se165  1  0.97561500  0.39008600  0.78911400  1
  Se  Se166  1  0.28172150  0.16636750  0.57574800  1
  Se  Se167  1  0.49401000  0.12252200  0.18456400  1
  Se  Se168  1  0.10132750  0.50000000  0.74871300  1
  Se  Se169  1  0.86359800  0.26012400  0.43837900  1
  Se  Se170  1  0.46031500  0.21981800  0.19948000  1
  Se  Se171  1  0.69922550  0.15650950  0.77409400  1
  Se  Se172  1  0.50268900  0.21103700  0.83009100  1
  Se  Se173  1  0.27087000  0.16735000  0.23156900  1
  Se  Se174  1  0.83705800  0.45178500  0.73039400  1
  Se  Se175  1  0.99401000  0.37747800  0.18456400  1
  Se  Se176  1  0.20561900  0.00000000  0.29564900  1
  Se  Se177  1  0.29473400  0.50000000  0.69740400  1
  Se  Se178  1  0.85729400  0.12036500  0.21482400  1
  Se  Se179  1  0.78172150  0.33363250  0.57574800  1
  Se  Se180  1  0.35729400  0.37963500  0.21482400  1
  Se  Se181  1  0.21094800  0.00000000  0.96193000  1
  Se  Se182  1  0.58160150  0.28612750  0.88180000  1
  Se  Se183  1  0.08160150  0.21387250  0.88180000  1
  Se  Se184  1  0.47301650  0.44815450  0.28582100  1
  Se  Se185  1  0.33705800  0.04821500  0.73039400  1
  Se  Se186  1  0.00268900  0.28896300  0.83009100  1
  Se  Se187  1  0.36105300  0.08954100  0.45073900  1
  Se  Se188  1  0.58864650  0.32913250  0.31359900  1
  Se  Se189  1  0.52433850  0.44937350  0.71460000  1
  Se  Se190  1  0.37914700  0.34786200  0.68195400  1
  Se  Se191  1  0.36359800  0.23987600  0.43837900  1
  Se  Se192  1  0.81466750  0.22023150  0.11942500  1
  Se  Se193  1  0.77087000  0.33265000  0.23156900  1
  Se  Se194  1  0.62866350  0.05880350  0.21049200  1
  Se  Se195  1  0.68937750  0.17014550  0.43297000  1
  Se  Se196  1  0.08864650  0.17086750  0.31359900  1
  Se  Se197  1  0.28296650  0.50000000  0.03062500  1
  Se  Se198  1  0.37937700  0.42374100  0.94447800  1
  Se  Se199  1  0.02433850  0.05062650  0.71460000  1
  Se  Se200  1  0.12866350  0.44119650  0.21049200  1
  Se  Se201  1  0.60793750  0.23885250  0.61976600  1
  Se  Se202  1  0.10323250  0.40893450  0.50501800  1
  Se  Se203  1  0.14529400  0.11979800  0.79110400  1
  Se  Se204  1  0.12024100  0.07393900  0.05700400  1
  Se  Se205  1  0.96031500  0.28018200  0.19948000  1
  Se  Se206  1  0.64529400  0.38020200  0.79110400  1
  Se  Se207  1  0.47561500  0.10991400  0.78911400  1
  Se  Se208  1  0.39729150  0.00132950  0.22119000  1
  Se  Se209  1  0.18937750  0.32985450  0.43297000  1
  Se  Se210  1  0.36105300  0.91045900  0.45073900  1
  Se  Se211  1  0.81466750  0.77976850  0.11942500  1
  Se  Se212  1  0.12024100  0.92606100  0.05700400  1
  Se  Se213  1  0.37914700  0.65213800  0.68195400  1
  Se  Se214  1  0.47301650  0.55184550  0.28582100  1
  Se  Se215  1  0.69922550  0.84349050  0.77409400  1
  Se  Se216  1  0.60793750  0.76114750  0.61976600  1
  Se  Se217  1  0.37937700  0.57625900  0.94447800  1
  Se  Se218  1  0.10323250  0.59106550  0.50501800  1
  Se  Se219  1  0.47561500  0.89008600  0.78911400  1
  Se  Se220  1  0.78172150  0.66636750  0.57574800  1
  Se  Se221  1  0.99401000  0.62252200  0.18456400  1
  Se  Se222  1  0.60132750  0.00000000  0.74871300  1
  Se  Se223  1  0.36359800  0.76012400  0.43837900  1
  Se  Se224  1  0.96031500  0.71981800  0.19948000  1
  Se  Se225  1  0.19922550  0.65650950  0.77409400  1
  Se  Se226  1  0.00268900  0.71103700  0.83009100  1
  Se  Se227  1  0.77087000  0.66735000  0.23156900  1
  Se  Se228  1  0.33705800  0.95178500  0.73039400  1
  Se  Se229  1  0.49401000  0.87747800  0.18456400  1
  Se  Se230  1  0.70561900  0.50000000  0.29564900  1
  Se  Se231  1  0.79473400  0.00000000  0.69740400  1
  Se  Se232  1  0.35729400  0.62036500  0.21482400  1
  Se  Se233  1  0.28172150  0.83363250  0.57574800  1
  Se  Se234  1  0.85729400  0.87963500  0.21482400  1
  Se  Se235  1  0.71094800  0.50000000  0.96193000  1
  Se  Se236  1  0.08160150  0.78612750  0.88180000  1
  Se  Se237  1  0.58160150  0.71387250  0.88180000  1
  Se  Se238  1  0.97301650  0.94815450  0.28582100  1
  Se  Se239  1  0.83705800  0.54821500  0.73039400  1
  Se  Se240  1  0.50268900  0.78896300  0.83009100  1
  Se  Se241  1  0.86105300  0.58954100  0.45073900  1
  Se  Se242  1  0.08864650  0.82913250  0.31359900  1
  Se  Se243  1  0.02433850  0.94937350  0.71460000  1
  Se  Se244  1  0.87914700  0.84786200  0.68195400  1
  Se  Se245  1  0.86359800  0.73987600  0.43837900  1
  Se  Se246  1  0.31466750  0.72023150  0.11942500  1
  Se  Se247  1  0.27087000  0.83265000  0.23156900  1
  Se  Se248  1  0.12866350  0.55880350  0.21049200  1
  Se  Se249  1  0.18937750  0.67014550  0.43297000  1
  Se  Se250  1  0.58864650  0.67086750  0.31359900  1
  Se  Se251  1  0.78296650  0.00000000  0.03062500  1
  Se  Se252  1  0.87937700  0.92374100  0.94447800  1
  Se  Se253  1  0.52433850  0.55062650  0.71460000  1
  Se  Se254  1  0.62866350  0.94119650  0.21049200  1
  Se  Se255  1  0.10793750  0.73885250  0.61976600  1
  Se  Se256  1  0.60323250  0.90893450  0.50501800  1
  Se  Se257  1  0.64529400  0.61979800  0.79110400  1
  Se  Se258  1  0.62024100  0.57393900  0.05700400  1
  Se  Se259  1  0.46031500  0.78018200  0.19948000  1
  Se  Se260  1  0.14529400  0.88020200  0.79110400  1
  Se  Se261  1  0.97561500  0.60991400  0.78911400  1
  Se  Se262  1  0.89729150  0.50132950  0.22119000  1
  Se  Se263  1  0.68937750  0.82985450  0.43297000  1
