# generated using pymatgen
data_LiCa4(BN2)3
_symmetry_space_group_name_H-M   'P 1'
_cell_length_a   7.13421400
_cell_length_b   7.13421400
_cell_length_c   7.13421400
_cell_angle_alpha   90.00000000
_cell_angle_beta   90.00000000
_cell_angle_gamma   90.00000000
_symmetry_Int_Tables_number   1
_chemical_formula_structural   LiCa4(BN2)3
_chemical_formula_sum   'Li2 Ca8 B6 N12'
_cell_volume   363.11015700
_cell_formula_units_Z   2
loop_
 _symmetry_equiv_pos_site_id
 _symmetry_equiv_pos_as_xyz
  1  'x, y, z'
loop_
 _atom_site_type_symbol
 _atom_site_label
 _atom_site_symmetry_multiplicity
 _atom_site_fract_x
 _atom_site_fract_y
 _atom_site_fract_z
 _atom_site_occupancy
  Li  Li0  1  0.00000000  0.00000000  0.00000000  1
  Li  Li1  1  0.50000000  0.50000000  0.50000000  1
  Ca  Ca2  1  0.25000000  0.25000000  0.25000000  1
  Ca  Ca3  1  0.25000000  0.75000000  0.25000000  1
  Ca  Ca4  1  0.75000000  0.25000000  0.25000000  1
  Ca  Ca5  1  0.25000000  0.25000000  0.75000000  1
  Ca  Ca6  1  0.75000000  0.75000000  0.75000000  1
  Ca  Ca7  1  0.75000000  0.25000000  0.75000000  1
  Ca  Ca8  1  0.25000000  0.75000000  0.75000000  1
  Ca  Ca9  1  0.75000000  0.75000000  0.25000000  1
  B  B10  1  0.00000000  0.50000000  0.00000000  1
  B  B11  1  0.50000000  0.00000000  0.00000000  1
  B  B12  1  0.00000000  0.00000000  0.50000000  1
  B  B13  1  0.50000000  0.00000000  0.50000000  1
  B  B14  1  0.00000000  0.50000000  0.50000000  1
  B  B15  1  0.50000000  0.50000000  0.00000000  1
  N  N16  1  0.00000000  0.00000000  0.31205700  1
  N  N17  1  0.00000000  0.00000000  0.68794300  1
  N  N18  1  0.00000000  0.31205700  0.00000000  1
  N  N19  1  0.68794300  0.00000000  0.00000000  1
  N  N20  1  0.31205700  0.00000000  0.00000000  1
  N  N21  1  0.00000000  0.68794300  0.00000000  1
  N  N22  1  0.50000000  0.50000000  0.81205700  1
  N  N23  1  0.50000000  0.50000000  0.18794300  1
  N  N24  1  0.50000000  0.81205700  0.50000000  1
  N  N25  1  0.18794300  0.50000000  0.50000000  1
  N  N26  1  0.81205700  0.50000000  0.50000000  1
  N  N27  1  0.50000000  0.18794300  0.50000000  1
