# generated using pymatgen
data_K3ClO
_symmetry_space_group_name_H-M   'P 1'
_cell_length_a   10.42372400
_cell_length_b   10.43353400
_cell_length_c   5.27561400
_cell_angle_alpha   90.00000000
_cell_angle_beta   90.00000000
_cell_angle_gamma   90.00000000
_symmetry_Int_Tables_number   1
_chemical_formula_structural   K3ClO
_chemical_formula_sum   'K12 Cl4 O4'
_cell_volume   573.75614682
_cell_formula_units_Z   4
loop_
 _symmetry_equiv_pos_site_id
 _symmetry_equiv_pos_as_xyz
  1  'x, y, z'
loop_
 _atom_site_type_symbol
 _atom_site_label
 _atom_site_symmetry_multiplicity
 _atom_site_fract_x
 _atom_site_fract_y
 _atom_site_fract_z
 _atom_site_occupancy
  K  K0  1  0.50000000  0.79375800  0.00000000  1
  K  K1  1  0.20585300  0.00809900  0.00000000  1
  K  K2  1  0.79414700  0.00809900  0.00000000  1
  K  K3  1  0.75122500  0.77378600  0.50000000  1
  K  K4  1  0.24877500  0.77378600  0.50000000  1
  K  K5  1  0.50000000  0.20568000  0.00000000  1
  K  K6  1  0.00000000  0.29375800  0.00000000  1
  K  K7  1  0.70585300  0.50809900  0.00000000  1
  K  K8  1  0.29414700  0.50809900  0.00000000  1
  K  K9  1  0.25122500  0.27378600  0.50000000  1
  K  K10  1  0.74877500  0.27378600  0.50000000  1
  K  K11  1  0.00000000  0.70568000  0.00000000  1
  Cl  Cl12  1  0.50000000  0.49904600  0.50000000  1
  Cl  Cl13  1  0.50000000  0.99693300  0.50000000  1
  Cl  Cl14  1  0.00000000  0.99904600  0.50000000  1
  Cl  Cl15  1  0.00000000  0.49693300  0.50000000  1
  O  O16  1  0.24899150  0.75655650  0.00000000  1
  O  O17  1  0.75100850  0.75655650  0.00000000  1
  O  O18  1  0.74899150  0.25655650  0.00000000  1
  O  O19  1  0.25100850  0.25655650  0.00000000  1
