# generated using pymatgen
data_Ca2H2S2O7
_symmetry_space_group_name_H-M   'P 1'
_cell_length_a   6.91110400
_cell_length_b   9.51951000
_cell_length_c   10.72102000
_cell_angle_alpha   90.00000000
_cell_angle_beta   90.00000000
_cell_angle_gamma   90.00000000
_symmetry_Int_Tables_number   1
_chemical_formula_structural   Ca2H2S2O7
_chemical_formula_sum   'Ca8 H8 S8 O28'
_cell_volume   705.33937554
_cell_formula_units_Z   4
loop_
 _symmetry_equiv_pos_site_id
 _symmetry_equiv_pos_as_xyz
  1  'x, y, z'
loop_
 _atom_site_type_symbol
 _atom_site_label
 _atom_site_symmetry_multiplicity
 _atom_site_fract_x
 _atom_site_fract_y
 _atom_site_fract_z
 _atom_site_occupancy
  Ca  Ca0  1  0.49741300  0.63459900  0.14654300  1
  Ca  Ca1  1  0.00258700  0.13459900  0.35345700  1
  Ca  Ca2  1  0.00258700  0.36540100  0.64654300  1
  Ca  Ca3  1  0.49741300  0.86540100  0.85345700  1
  Ca  Ca4  1  0.50258700  0.36540100  0.85345700  1
  Ca  Ca5  1  0.99741300  0.86540100  0.64654300  1
  Ca  Ca6  1  0.99741300  0.63459900  0.35345700  1
  Ca  Ca7  1  0.50258700  0.13459900  0.14654300  1
  H  H8  1  0.63906700  0.77371200  0.56821400  1
  H  H9  1  0.86093300  0.27371200  0.93178600  1
  H  H10  1  0.86093300  0.22628800  0.06821400  1
  H  H11  1  0.63906700  0.72628800  0.43178600  1
  H  H12  1  0.36093300  0.22628800  0.43178600  1
  H  H13  1  0.13906700  0.72628800  0.06821400  1
  H  H14  1  0.13906700  0.77371200  0.93178600  1
  H  H15  1  0.36093300  0.27371200  0.56821400  1
  S  S16  1  0.81851100  0.88740600  0.11693800  1
  S  S17  1  0.68148900  0.38740600  0.38306200  1
  S  S18  1  0.68148900  0.11259400  0.61693800  1
  S  S19  1  0.81851100  0.61259400  0.88306200  1
  S  S20  1  0.18148900  0.11259400  0.88306200  1
  S  S21  1  0.31851100  0.61259400  0.61693800  1
  S  S22  1  0.31851100  0.88740600  0.38306200  1
  S  S23  1  0.18148900  0.38740600  0.11693800  1
  O  O24  1  0.61011300  0.89294800  0.06150200  1
  O  O25  1  0.88988700  0.39294800  0.43849800  1
  O  O26  1  0.88988700  0.10705200  0.56150200  1
  O  O27  1  0.61011300  0.60705200  0.93849800  1
  O  O28  1  0.38988700  0.10705200  0.93849800  1
  O  O29  1  0.11011300  0.60705200  0.56150200  1
  O  O30  1  0.11011300  0.89294800  0.43849800  1
  O  O31  1  0.38988700  0.39294800  0.06150200  1
  O  O32  1  0.80551700  0.76131300  0.20673400  1
  O  O33  1  0.69448300  0.26131300  0.29326600  1
  O  O34  1  0.69448300  0.23868700  0.70673400  1
  O  O35  1  0.80551700  0.73868700  0.79326600  1
  O  O36  1  0.19448300  0.23868700  0.79326600  1
  O  O37  1  0.30551700  0.73868700  0.70673400  1
  O  O38  1  0.30551700  0.76131300  0.29326600  1
  O  O39  1  0.19448300  0.26131300  0.20673400  1
  O  O40  1  0.82114500  0.02077800  0.19832800  1
  O  O41  1  0.67885500  0.52077800  0.30167200  1
  O  O42  1  0.67885500  0.97922200  0.69832800  1
  O  O43  1  0.82114500  0.47922200  0.80167200  1
  O  O44  1  0.17885500  0.97922200  0.80167200  1
  O  O45  1  0.32114500  0.47922200  0.69832800  1
  O  O46  1  0.32114500  0.02077800  0.30167200  1
  O  O47  1  0.17885500  0.52077800  0.19832800  1
  O  O48  1  0.72711800  0.75000000  0.50000000  1
  O  O49  1  0.77288200  0.25000000  0.00000000  1
  O  O50  1  0.27288200  0.25000000  0.50000000  1
  O  O51  1  0.22711800  0.75000000  0.00000000  1
