# generated using pymatgen
data_PH3O4
_symmetry_space_group_name_H-M   'P 1'
_cell_length_a   5.89602000
_cell_length_b   4.95982100
_cell_length_c   11.10336888
_cell_angle_alpha   90.00000000
_cell_angle_beta   96.64239228
_cell_angle_gamma   90.00000000
_symmetry_Int_Tables_number   1
_chemical_formula_structural   PH3O4
_chemical_formula_sum   'P4 H12 O16'
_cell_volume   322.51852820
_cell_formula_units_Z   4
loop_
 _symmetry_equiv_pos_site_id
 _symmetry_equiv_pos_as_xyz
  1  'x, y, z'
loop_
 _atom_site_type_symbol
 _atom_site_label
 _atom_site_symmetry_multiplicity
 _atom_site_fract_x
 _atom_site_fract_y
 _atom_site_fract_z
 _atom_site_occupancy
  P  P0  1  0.79635400  0.71420900  0.85942700  1
  P  P1  1  0.20364600  0.21420900  0.64057300  1
  P  P2  1  0.20364600  0.28579100  0.14057300  1
  P  P3  1  0.79635400  0.78579100  0.35942700  1
  H  H4  1  0.76272000  0.04516000  0.98971900  1
  H  H5  1  0.23728000  0.54516000  0.51028100  1
  H  H6  1  0.23728000  0.95484000  0.01028100  1
  H  H7  1  0.76272000  0.45484000  0.48971900  1
  H  H8  1  0.14168500  0.55548300  0.82657300  1
  H  H9  1  0.85831500  0.05548300  0.67342700  1
  H  H10  1  0.85831500  0.44451700  0.17342700  1
  H  H11  1  0.14168500  0.94451700  0.32657300  1
  H  H12  1  0.53374300  0.39704500  0.81808800  1
  H  H13  1  0.46625700  0.89704500  0.68191200  1
  H  H14  1  0.46625700  0.60295500  0.18191200  1
  H  H15  1  0.53374300  0.10295500  0.31808800  1
  O  O16  1  0.72885200  0.85195000  0.97797600  1
  O  O17  1  0.27114800  0.35195000  0.52202400  1
  O  O18  1  0.27114800  0.14805000  0.02202400  1
  O  O19  1  0.72885200  0.64805000  0.47797600  1
  O  O20  1  0.06220200  0.68653700  0.88032800  1
  O  O21  1  0.93779800  0.18653700  0.61967200  1
  O  O22  1  0.93779800  0.31346300  0.11967200  1
  O  O23  1  0.06220200  0.81346300  0.38032800  1
  O  O24  1  0.71291400  0.86699700  0.74438000  1
  O  O25  1  0.28708600  0.36699700  0.75562000  1
  O  O26  1  0.28708600  0.13300300  0.25562000  1
  O  O27  1  0.71291400  0.63300300  0.24438000  1
  O  O28  1  0.69374300  0.42467400  0.86342400  1
  O  O29  1  0.30625700  0.92467400  0.63657600  1
  O  O30  1  0.30625700  0.57532600  0.13657600  1
  O  O31  1  0.69374300  0.07532600  0.36342400  1
