# generated using pymatgen
data_Ba4La2Ti3Nb2O18
_symmetry_space_group_name_H-M   'P 1'
_cell_length_a   5.72696448
_cell_length_b   5.72696448
_cell_length_c   42.20106544
_cell_angle_alpha   90.00000000
_cell_angle_beta   90.00000000
_cell_angle_gamma   120.00000000
_symmetry_Int_Tables_number   1
_chemical_formula_structural   Ba4La2Ti3Nb2O18
_chemical_formula_sum   'Ba12 La6 Ti9 Nb6 O54'
_cell_volume   1198.67935559
_cell_formula_units_Z   3
loop_
 _symmetry_equiv_pos_site_id
 _symmetry_equiv_pos_as_xyz
  1  'x, y, z'
loop_
 _atom_site_type_symbol
 _atom_site_label
 _atom_site_symmetry_multiplicity
 _atom_site_fract_x
 _atom_site_fract_y
 _atom_site_fract_z
 _atom_site_occupancy
  Ba  Ba0  1  0.66666667  0.33333333  0.19359133  1
  Ba  Ba1  1  0.66666667  0.33333333  0.02146533  1
  Ba  Ba2  1  0.00000000  0.00000000  0.31186800  1
  Ba  Ba3  1  0.00000000  0.00000000  0.13974200  1
  Ba  Ba4  1  0.33333333  0.66666667  0.52692467  1
  Ba  Ba5  1  0.33333333  0.66666667  0.35479867  1
  Ba  Ba6  1  0.66666667  0.33333333  0.64520133  1
  Ba  Ba7  1  0.66666667  0.33333333  0.47307533  1
  Ba  Ba8  1  0.00000000  0.00000000  0.86025800  1
  Ba  Ba9  1  0.00000000  0.00000000  0.68813200  1
  Ba  Ba10  1  0.33333333  0.66666667  0.97853467  1
  Ba  Ba11  1  0.33333333  0.66666667  0.80640867  1
  La  La12  1  0.33333333  0.66666667  0.25199767  1
  La  La13  1  0.33333333  0.66666667  0.08133567  1
  La  La14  1  0.00000000  0.00000000  0.58533100  1
  La  La15  1  0.00000000  0.00000000  0.41466900  1
  La  La16  1  0.66666667  0.33333333  0.91866433  1
  La  La17  1  0.66666667  0.33333333  0.74800233  1
  Ti  Ti18  1  0.66666667  0.33333333  0.11172133  1
  Ti  Ti19  1  0.33333333  0.66666667  0.16666667  1
  Ti  Ti20  1  0.00000000  0.00000000  0.22161200  1
  Ti  Ti21  1  0.33333333  0.66666667  0.44505467  1
  Ti  Ti22  1  1.00000000  1.00000000  0.50000000  1
  Ti  Ti23  1  0.66666667  0.33333333  0.55494533  1
  Ti  Ti24  1  0.00000000  0.00000000  0.77838800  1
  Ti  Ti25  1  0.66666667  0.33333333  0.83333333  1
  Ti  Ti26  1  0.33333333  0.66666667  0.88827867  1
  Nb  Nb27  1  0.66666667  0.33333333  0.27939733  1
  Nb  Nb28  1  0.00000000  0.00000000  0.05393600  1
  Nb  Nb29  1  0.33333333  0.66666667  0.61273067  1
  Nb  Nb30  1  0.66666667  0.33333333  0.38726933  1
  Nb  Nb31  1  0.00000000  0.00000000  0.94606400  1
  Nb  Nb32  1  0.33333333  0.66666667  0.72060267  1
  O  O33  1  0.33764467  0.16882233  0.08622333  1
  O  O34  1  0.83117767  0.66235533  0.08622333  1
  O  O35  1  0.83117767  0.16882233  0.08622333  1
  O  O36  1  0.49474233  0.98948467  0.29944767  1
  O  O37  1  0.01051533  0.50525767  0.29944767  1
  O  O38  1  0.49474233  0.50525767  0.29944767  1
  O  O39  1  0.17005500  0.82994500  0.19470600  1
  O  O40  1  0.17005500  0.34011000  0.19470600  1
  O  O41  1  0.65989000  0.82994500  0.19470600  1
  O  O42  1  0.49661167  0.99322333  0.13862733  1
  O  O43  1  0.00677667  0.50338833  0.13862733  1
  O  O44  1  0.49661167  0.50338833  0.13862733  1
  O  O45  1  0.17192433  0.82807567  0.03388567  1
  O  O46  1  0.17192433  0.34384867  0.03388567  1
  O  O47  1  0.65615133  0.82807567  0.03388567  1
  O  O48  1  0.83548900  0.16451100  0.24711000  1
  O  O49  1  0.32902200  0.16451100  0.24711000  1
  O  O50  1  0.83548900  0.67097800  0.24711000  1
  O  O51  1  0.00431133  0.50215567  0.41955667  1
  O  O52  1  0.49784433  0.99568867  0.41955667  1
  O  O53  1  0.49784433  0.50215567  0.41955667  1
  O  O54  1  0.16140900  0.32281800  0.63278100  1
  O  O55  1  0.67718200  0.83859100  0.63278100  1
  O  O56  1  0.16140900  0.83859100  0.63278100  1
  O  O57  1  0.83672167  0.16327833  0.52803933  1
  O  O58  1  0.83672167  0.67344333  0.52803933  1
  O  O59  1  0.32655667  0.16327833  0.52803933  1
  O  O60  1  0.16327833  0.32655667  0.47196067  1
  O  O61  1  0.67344333  0.83672167  0.47196067  1
  O  O62  1  0.16327833  0.83672167  0.47196067  1
  O  O63  1  0.83859100  0.16140900  0.36721900  1
  O  O64  1  0.83859100  0.67718200  0.36721900  1
  O  O65  1  0.32281800  0.16140900  0.36721900  1
  O  O66  1  0.50215567  0.49784433  0.58044333  1
  O  O67  1  0.99568867  0.49784433  0.58044333  1
  O  O68  1  0.50215567  0.00431133  0.58044333  1
  O  O69  1  0.67097800  0.83548900  0.75289000  1
  O  O70  1  0.16451100  0.32902200  0.75289000  1
  O  O71  1  0.16451100  0.83548900  0.75289000  1
  O  O72  1  0.82807567  0.65615133  0.96611433  1
  O  O73  1  0.34384867  0.17192433  0.96611433  1
  O  O74  1  0.82807567  0.17192433  0.96611433  1
  O  O75  1  0.50338833  0.49661167  0.86137267  1
  O  O76  1  0.50338833  0.00677667  0.86137267  1
  O  O77  1  0.99322333  0.49661167  0.86137267  1
  O  O78  1  0.82994500  0.65989000  0.80529400  1
  O  O79  1  0.34011000  0.17005500  0.80529400  1
  O  O80  1  0.82994500  0.17005500  0.80529400  1
  O  O81  1  0.50525767  0.49474233  0.70055233  1
  O  O82  1  0.50525767  0.01051533  0.70055233  1
  O  O83  1  0.98948467  0.49474233  0.70055233  1
  O  O84  1  0.16882233  0.83117767  0.91377667  1
  O  O85  1  0.66235533  0.83117767  0.91377667  1
  O  O86  1  0.16882233  0.33764467  0.91377667  1
