# generated using pymatgen
data_Er2S3
_symmetry_space_group_name_H-M   'P 1'
_cell_length_a   8.24976800
_cell_length_b   8.24976800
_cell_length_c   24.69123200
_cell_angle_alpha   90.00000000
_cell_angle_beta   90.00000000
_cell_angle_gamma   90.00000000
_symmetry_Int_Tables_number   1
_chemical_formula_structural   Er2S3
_chemical_formula_sum   'Er32 S48'
_cell_volume   1680.45246129
_cell_formula_units_Z   16
loop_
 _symmetry_equiv_pos_site_id
 _symmetry_equiv_pos_as_xyz
  1  'x, y, z'
loop_
 _atom_site_type_symbol
 _atom_site_label
 _atom_site_symmetry_multiplicity
 _atom_site_fract_x
 _atom_site_fract_y
 _atom_site_fract_z
 _atom_site_occupancy
  Er  Er0  1  0.24105150  0.36206250  0.03924050  1
  Er  Er1  1  0.50000000  0.00000000  0.08317600  1
  Er  Er2  1  0.88193900  0.25000000  0.12500000  1
  Er  Er3  1  0.50000000  0.50000000  0.16682400  1
  Er  Er4  1  0.75894850  0.86206250  0.21075950  1
  Er  Er5  1  0.24105150  0.13793750  0.21075950  1
  Er  Er6  1  0.11806100  0.75000000  0.12500000  1
  Er  Er7  1  0.36206250  0.74105150  0.28924050  1
  Er  Er8  1  0.25000000  0.38193900  0.37500000  1
  Er  Er9  1  0.00000000  0.00000000  0.33317600  1
  Er  Er10  1  0.63793750  0.25894850  0.28924050  1
  Er  Er11  1  0.75000000  0.61806100  0.37500000  1
  Er  Er12  1  0.50000000  0.00000000  0.41682400  1
  Er  Er13  1  0.86206250  0.25894850  0.46075950  1
  Er  Er14  1  0.13793750  0.74105150  0.46075950  1
  Er  Er15  1  0.75894850  0.63793750  0.03924050  1
  Er  Er16  1  0.74105150  0.86206250  0.53924050  1
  Er  Er17  1  0.00000000  0.50000000  0.58317600  1
  Er  Er18  1  0.38193900  0.75000000  0.62500000  1
  Er  Er19  1  0.00000000  0.00000000  0.66682400  1
  Er  Er20  1  0.25894850  0.36206250  0.71075950  1
  Er  Er21  1  0.74105150  0.63793750  0.71075950  1
  Er  Er22  1  0.61806100  0.25000000  0.62500000  1
  Er  Er23  1  0.86206250  0.24105150  0.78924050  1
  Er  Er24  1  0.75000000  0.88193900  0.87500000  1
  Er  Er25  1  0.50000000  0.50000000  0.83317600  1
  Er  Er26  1  0.13793750  0.75894850  0.78924050  1
  Er  Er27  1  0.25000000  0.11806100  0.87500000  1
  Er  Er28  1  0.00000000  0.50000000  0.91682400  1
  Er  Er29  1  0.36206250  0.75894850  0.96075950  1
  Er  Er30  1  0.63793750  0.24105150  0.96075950  1
  Er  Er31  1  0.25894850  0.13793750  0.53924050  1
  S  S32  1  0.43372650  0.67984850  0.06552750  1
  S  S33  1  0.18403500  0.06964300  0.10538100  1
  S  S34  1  0.56627350  0.32015150  0.06552750  1
  S  S35  1  0.56627350  0.17984850  0.18447250  1
  S  S36  1  0.43372650  0.82015150  0.18447250  1
  S  S37  1  0.81596500  0.93035700  0.10538100  1
  S  S38  1  0.92101850  0.17345050  0.23244650  1
  S  S39  1  0.81596500  0.56964300  0.14461900  1
  S  S40  1  0.67345050  0.57898150  0.26755350  1
  S  S41  1  0.07898150  0.82654950  0.23244650  1
  S  S42  1  0.18403500  0.43035700  0.14461900  1
  S  S43  1  0.06964300  0.68403500  0.35538100  1
  S  S44  1  0.93035700  0.31596500  0.35538100  1
  S  S45  1  0.32654950  0.42101850  0.26755350  1
  S  S46  1  0.43035700  0.68403500  0.39461900  1
  S  S47  1  0.32015150  0.06627350  0.31552750  1
  S  S48  1  0.17984850  0.06627350  0.43447250  1
  S  S49  1  0.56964300  0.31596500  0.39461900  1
  S  S50  1  0.67984850  0.93372650  0.31552750  1
  S  S51  1  0.07898150  0.67345050  0.01755350  1
  S  S52  1  0.92101850  0.32654950  0.01755350  1
  S  S53  1  0.82015150  0.93372650  0.43447250  1
  S  S54  1  0.82654950  0.57898150  0.48244650  1
  S  S55  1  0.17345050  0.42101850  0.48244650  1
  S  S56  1  0.93372650  0.17984850  0.56552750  1
  S  S57  1  0.68403500  0.56964300  0.60538100  1
  S  S58  1  0.06627350  0.82015150  0.56552750  1
  S  S59  1  0.06627350  0.67984850  0.68447250  1
  S  S60  1  0.93372650  0.32015150  0.68447250  1
  S  S61  1  0.31596500  0.43035700  0.60538100  1
  S  S62  1  0.42101850  0.67345050  0.73244650  1
  S  S63  1  0.31596500  0.06964300  0.64461900  1
  S  S64  1  0.17345050  0.07898150  0.76755350  1
  S  S65  1  0.57898150  0.32654950  0.73244650  1
  S  S66  1  0.68403500  0.93035700  0.64461900  1
  S  S67  1  0.56964300  0.18403500  0.85538100  1
  S  S68  1  0.43035700  0.81596500  0.85538100  1
  S  S69  1  0.82654950  0.92101850  0.76755350  1
  S  S70  1  0.93035700  0.18403500  0.89461900  1
  S  S71  1  0.82015150  0.56627350  0.81552750  1
  S  S72  1  0.67984850  0.56627350  0.93447250  1
  S  S73  1  0.06964300  0.81596500  0.89461900  1
  S  S74  1  0.17984850  0.43372650  0.81552750  1
  S  S75  1  0.57898150  0.17345050  0.51755350  1
  S  S76  1  0.42101850  0.82654950  0.51755350  1
  S  S77  1  0.32015150  0.43372650  0.93447250  1
  S  S78  1  0.32654950  0.07898150  0.98244650  1
  S  S79  1  0.67345050  0.92101850  0.98244650  1
