# generated using pymatgen
data_Na2Si4O9
_symmetry_space_group_name_H-M   'P 1'
_cell_length_a   10.99478300
_cell_length_b   9.43720300
_cell_length_c   22.27715324
_cell_angle_alpha   90.00000000
_cell_angle_beta   119.33631509
_cell_angle_gamma   90.00000000
_symmetry_Int_Tables_number   1
_chemical_formula_structural   Na2Si4O9
_chemical_formula_sum   'Na24 Si48 O108'
_cell_volume   2015.05103707
_cell_formula_units_Z   12
loop_
 _symmetry_equiv_pos_site_id
 _symmetry_equiv_pos_as_xyz
  1  'x, y, z'
loop_
 _atom_site_type_symbol
 _atom_site_label
 _atom_site_symmetry_multiplicity
 _atom_site_fract_x
 _atom_site_fract_y
 _atom_site_fract_z
 _atom_site_occupancy
  Na  Na0  1  0.90043600  0.53655800  0.38406100  1
  Na  Na1  1  0.35735400  0.55135300  0.79559300  1
  Na  Na2  1  0.25776000  0.45812600  0.92745800  1
  Na  Na3  1  0.09956400  0.46344200  0.61593900  1
  Na  Na4  1  0.25776000  0.04187400  0.42745800  1
  Na  Na5  1  0.05030300  0.04467500  0.61391800  1
  Na  Na6  1  0.34482000  0.97662400  0.77223400  1
  Na  Na7  1  0.74224000  0.54187400  0.07254200  1
  Na  Na8  1  0.31763900  0.47380700  0.42271700  1
  Na  Na9  1  0.35735400  0.94864700  0.29559300  1
  Na  Na10  1  0.90043600  0.96344200  0.88406100  1
  Na  Na11  1  0.31763900  0.02619300  0.92271700  1
  Na  Na12  1  0.94969700  0.95532500  0.38608200  1
  Na  Na13  1  0.65518000  0.02337600  0.22776600  1
  Na  Na14  1  0.09956400  0.03655800  0.11593900  1
  Na  Na15  1  0.64264600  0.44864700  0.20440700  1
  Na  Na16  1  0.05030300  0.45532500  0.11391800  1
  Na  Na17  1  0.68236100  0.52619300  0.57728300  1
  Na  Na18  1  0.94969700  0.54467500  0.88608200  1
  Na  Na19  1  0.34482000  0.52337600  0.27223400  1
  Na  Na20  1  0.64264600  0.05135300  0.70440700  1
  Na  Na21  1  0.68236100  0.97380700  0.07728300  1
  Na  Na22  1  0.74224000  0.95812600  0.57254200  1
  Na  Na23  1  0.65518000  0.47662400  0.72776600  1
  Si  Si24  1  0.96934300  0.99734400  0.24156900  1
  Si  Si25  1  0.41570400  0.23540000  0.19672100  1
  Si  Si26  1  0.28453900  0.75667600  0.16055000  1
  Si  Si27  1  0.63873300  0.99937800  0.92097100  1
  Si  Si28  1  0.30588900  0.49477100  0.08701800  1
  Si  Si29  1  0.18354800  0.74075800  0.84678800  1
  Si  Si30  1  0.51620100  0.72780800  0.95654700  1
  Si  Si31  1  0.51620100  0.77219200  0.45654700  1
  Si  Si32  1  0.82398400  0.26129000  0.51736100  1
  Si  Si33  1  0.80417000  0.72455000  0.24555300  1
  Si  Si34  1  0.41570400  0.26460000  0.69672100  1
  Si  Si35  1  0.89385500  0.73922000  0.49029100  1
  Si  Si36  1  0.28453900  0.74332400  0.66055000  1
  Si  Si37  1  0.19583000  0.22455000  0.25444700  1
  Si  Si38  1  0.36126700  0.49937800  0.57902900  1
  Si  Si39  1  0.18354800  0.75924200  0.34678800  1
  Si  Si40  1  0.10614500  0.26078000  0.50970900  1
  Si  Si41  1  0.99535100  0.24187400  0.84460000  1
  Si  Si42  1  0.10614500  0.23922000  0.00970900  1
  Si  Si43  1  0.53931400  0.77479000  0.60669000  1
  Si  Si44  1  0.58429600  0.76460000  0.80327900  1
  Si  Si45  1  0.03065700  0.49734400  0.25843100  1
  Si  Si46  1  0.81645200  0.24075800  0.65321200  1
  Si  Si47  1  0.00464900  0.75812600  0.15540000  1
  Si  Si48  1  0.53931400  0.72521000  0.10669000  1
  Si  Si49  1  0.58429600  0.73540000  0.30327900  1
  Si  Si50  1  0.00464900  0.74187400  0.65540000  1
  Si  Si51  1  0.17601600  0.73871000  0.48263900  1
  Si  Si52  1  0.71546100  0.25667600  0.33945000  1
  Si  Si53  1  0.46068600  0.27479000  0.89331000  1
  Si  Si54  1  0.82398400  0.23871000  0.01736100  1
  Si  Si55  1  0.99535100  0.25812600  0.34460000  1
  Si  Si56  1  0.30588900  0.00522900  0.58701800  1
  Si  Si57  1  0.71546100  0.24332400  0.83945000  1
  Si  Si58  1  0.48379900  0.22780800  0.54345300  1
  Si  Si59  1  0.89385500  0.76078000  0.99029100  1
  Si  Si60  1  0.48379900  0.27219200  0.04345300  1
  Si  Si61  1  0.81645200  0.25924200  0.15321200  1
  Si  Si62  1  0.69411100  0.99477100  0.41298200  1
  Si  Si63  1  0.96934300  0.50265600  0.74156900  1
  Si  Si64  1  0.03065700  0.00265600  0.75843100  1
  Si  Si65  1  0.36126700  0.00062200  0.07902900  1
  Si  Si66  1  0.63873300  0.50062200  0.42097100  1
  Si  Si67  1  0.17601600  0.76129000  0.98263900  1
  Si  Si68  1  0.19583000  0.27545000  0.75444700  1
  Si  Si69  1  0.69411100  0.50522900  0.91298200  1
  Si  Si70  1  0.46068600  0.22521000  0.39331000  1
  Si  Si71  1  0.80417000  0.77545000  0.74555300  1
  O  O72  1  0.45398200  0.89017900  0.62427500  1
  O  O73  1  0.92499900  0.60661400  0.27958100  1
  O  O74  1  0.07640700  0.38959300  0.33302100  1
  O  O75  1  0.53208500  0.80899800  0.53275200  1
  O  O76  1  0.88165500  0.11000400  0.70588800  1
  O  O77  1  0.60967400  0.60633900  0.83391800  1
  O  O78  1  0.20746100  0.10548700  0.04251700  1
  O  O79  1  0.52082100  0.89186600  0.11869900  1
  O  O80  1  0.99253800  0.89735200  0.68317100  1
  O  O81  1  0.77130600  0.39739600  0.87400900  1
  O  O82  1  0.70619600  0.68735700  0.16275900  1
  O  O83  1  0.77130600  0.10260400  0.37400900  1
  O  O84  1  0.29597200  0.19049200  0.21853400  1
  O  O85  1  0.16787500  0.80885500  0.18379200  1
  O  O86  1  0.07640700  0.11040700  0.83302100  1
  O  O87  1  0.22869400  0.89739600  0.62599100  1
  O  O88  1  0.44351600  0.39379100  0.54137500  1
  O  O89  1  0.47917900  0.39186600  0.38130100  1
  O  O90  1  0.29380400  0.18735700  0.33724100  1
  O  O91  1  0.81683300  0.10618800  0.18693300  1
  O  O92  1  0.53208500  0.69100200  0.03275200  1
  O  O93  1  0.43603200  0.10754400  0.15450400  1
  O  O94  1  0.55648400  0.60620900  0.45862500  1
  O  O95  1  0.64782000  0.19379000  0.60433900  1
  O  O96  1  0.03672400  0.68974900  0.48756900  1
  O  O97  1  0.61887600  0.61389100  0.95134300  1
  O  O98  1  0.07500100  0.39338600  0.72041900  1
  O  O99  1  0.99253800  0.60264800  0.18317100  1
  O  O100  1  0.28400500  0.61227100  0.61484400  1
  O  O101  1  0.00746200  0.10264800  0.31682900  1
  O  O102  1  0.18316700  0.60618800  0.31306700  1
  O  O103  1  0.35218000  0.80621000  0.39566100  1
  O  O104  1  0.22639200  0.89883800  0.50974800  1
  O  O105  1  0.11834500  0.88999600  0.29411200  1
  O  O106  1  0.92899900  0.76806300  0.57064200  1
  O  O107  1  0.03672400  0.81025100  0.98756900  1
  O  O108  1  0.07500100  0.10661400  0.22041900  1
  O  O109  1  0.88165500  0.38999600  0.20588800  1
  O  O110  1  0.07100100  0.23193700  0.42935800  1
  O  O111  1  0.07100100  0.26806300  0.92935800  1
  O  O112  1  0.14514600  0.11129100  0.73797700  1
  O  O113  1  0.42784100  0.74630400  0.23481400  1
  O  O114  1  0.11834500  0.61000400  0.79411200  1
  O  O115  1  0.71009200  0.11186100  0.99582800  1
  O  O116  1  0.15487800  0.38527100  0.05312400  1
  O  O117  1  0.54601800  0.10982100  0.37572500  1
  O  O118  1  0.43603200  0.39245600  0.65450400  1
  O  O119  1  0.92359300  0.61040700  0.66697900  1
  O  O120  1  0.46791500  0.19100200  0.46724800  1
  O  O121  1  0.70402800  0.69049200  0.28146600  1
  O  O122  1  0.52082100  0.60813400  0.61869900  1
  O  O123  1  0.20746100  0.39451300  0.54251700  1
  O  O124  1  0.14514600  0.38870900  0.23797700  1
  O  O125  1  0.88621800  0.25835600  0.10216300  1
  O  O126  1  0.92499900  0.89338600  0.77958100  1
  O  O127  1  0.29380400  0.31264300  0.83724100  1
  O  O128  1  0.55648400  0.89379100  0.95862500  1
  O  O129  1  0.15487800  0.11472900  0.55312400  1
  O  O130  1  0.54601800  0.39017900  0.87572500  1
  O  O131  1  0.85485400  0.88870900  0.26202300  1
  O  O132  1  0.71599500  0.38772900  0.38515600  1
  O  O133  1  0.70619600  0.81264300  0.66275900  1
  O  O134  1  0.11378200  0.75835600  0.39783700  1
  O  O135  1  0.77360800  0.39883800  0.99025200  1
  O  O136  1  0.16787500  0.69114500  0.68379200  1
  O  O137  1  0.84512200  0.88527100  0.44687600  1
  O  O138  1  0.28990800  0.61186100  0.50417200  1
  O  O139  1  0.96327600  0.31025100  0.51243100  1
  O  O140  1  0.28400500  0.88772900  0.11484400  1
  O  O141  1  0.79253900  0.60548700  0.45748300  1
  O  O142  1  0.22639200  0.60116200  0.00974800  1
  O  O143  1  0.56396800  0.60754400  0.34549600  1
  O  O144  1  0.60967400  0.89366100  0.33391800  1
  O  O145  1  0.84512200  0.61472900  0.94687600  1
  O  O146  1  0.42784100  0.75369600  0.73481400  1
  O  O147  1  0.29597200  0.30950800  0.71853400  1
  O  O148  1  0.92359300  0.88959300  0.16697900  1
  O  O149  1  0.35218000  0.69379000  0.89566100  1
  O  O150  1  0.39032600  0.39366100  0.16608200  1
  O  O151  1  0.71599500  0.11227100  0.88515600  1
  O  O152  1  0.64782000  0.30621000  0.10433900  1
  O  O153  1  0.47917900  0.10813400  0.88130100  1
  O  O154  1  0.81683300  0.39381200  0.68693300  1
  O  O155  1  0.83212500  0.19114500  0.81620800  1
  O  O156  1  0.92899900  0.73193700  0.07064200  1
  O  O157  1  0.00746200  0.39735200  0.81682900  1
  O  O158  1  0.57215900  0.25369600  0.76518600  1
  O  O159  1  0.39032600  0.10633900  0.66608200  1
  O  O160  1  0.71009200  0.38813900  0.49582800  1
  O  O161  1  0.38112400  0.38610900  0.04865700  1
  O  O162  1  0.28990800  0.88813900  0.00417200  1
  O  O163  1  0.22869400  0.60260400  0.12599100  1
  O  O164  1  0.44351600  0.10620900  0.04137500  1
  O  O165  1  0.45398200  0.60982100  0.12427500  1
  O  O166  1  0.61887600  0.88610900  0.45134300  1
  O  O167  1  0.79253900  0.89451300  0.95748300  1
  O  O168  1  0.70402800  0.80950800  0.78146600  1
  O  O169  1  0.83212500  0.30885500  0.31620800  1
  O  O170  1  0.38112400  0.11389100  0.54865700  1
  O  O171  1  0.85485400  0.61129100  0.76202300  1
  O  O172  1  0.96327600  0.18974900  0.01243100  1
  O  O173  1  0.46791500  0.30899800  0.96724800  1
  O  O174  1  0.77360800  0.10116200  0.49025200  1
  O  O175  1  0.56396800  0.89245600  0.84549600  1
  O  O176  1  0.11378200  0.74164400  0.89783700  1
  O  O177  1  0.57215900  0.24630400  0.26518600  1
  O  O178  1  0.88621800  0.24164400  0.60216300  1
  O  O179  1  0.18316700  0.89381200  0.81306700  1
