# generated using pymatgen
data_Cs2Tb6Te7N2
_symmetry_space_group_name_H-M   'P 1'
_cell_length_a   24.28781600
_cell_length_b   4.22321400
_cell_length_c   11.53593221
_cell_angle_alpha   90.00000000
_cell_angle_beta   103.70685144
_cell_angle_gamma   90.00000000
_symmetry_Int_Tables_number   1
_chemical_formula_structural   Cs2Tb6Te7N2
_chemical_formula_sum   'Cs4 Tb12 Te14 N4'
_cell_volume   1149.57245150
_cell_formula_units_Z   2
loop_
 _symmetry_equiv_pos_site_id
 _symmetry_equiv_pos_as_xyz
  1  'x, y, z'
loop_
 _atom_site_type_symbol
 _atom_site_label
 _atom_site_symmetry_multiplicity
 _atom_site_fract_x
 _atom_site_fract_y
 _atom_site_fract_z
 _atom_site_occupancy
  Cs  Cs0  1  0.93202200  0.00000000  0.30049900  1
  Cs  Cs1  1  0.56400300  0.50000000  0.69600200  1
  Cs  Cs2  1  0.43202200  0.50000000  0.30049900  1
  Cs  Cs3  1  0.06400300  0.00000000  0.69600200  1
  Tb  Tb4  1  0.83469400  0.00000000  0.61110300  1
  Tb  Tb5  1  0.66431500  0.50000000  0.38895300  1
  Tb  Tb6  1  0.90807400  0.50000000  0.86405500  1
  Tb  Tb7  1  0.59053800  0.00000000  0.13802200  1
  Tb  Tb8  1  0.71433000  0.50000000  0.12998800  1
  Tb  Tb9  1  0.78377600  0.00000000  0.86843900  1
  Tb  Tb10  1  0.33469400  0.50000000  0.61110300  1
  Tb  Tb11  1  0.16431500  0.00000000  0.38895300  1
  Tb  Tb12  1  0.40807400  0.00000000  0.86405500  1
  Tb  Tb13  1  0.09053800  0.50000000  0.13802200  1
  Tb  Tb14  1  0.21433000  0.00000000  0.12998800  1
  Tb  Tb15  1  0.28377600  0.50000000  0.86843900  1
  Te  Te16  1  0.83509600  0.50000000  0.05676500  1
  Te  Te17  1  0.66356100  0.00000000  0.94247500  1
  Te  Te18  1  0.99879400  0.00000000  0.00307100  1
  Te  Te19  1  0.73937100  0.50000000  0.66105600  1
  Te  Te20  1  0.92384100  0.50000000  0.59686500  1
  Te  Te21  1  0.57514400  0.00000000  0.40421500  1
  Te  Te22  1  0.75816900  0.00000000  0.33875800  1
  Te  Te23  1  0.33509600  0.00000000  0.05676500  1
  Te  Te24  1  0.16356100  0.50000000  0.94247500  1
  Te  Te25  1  0.49879400  0.50000000  0.00307100  1
  Te  Te26  1  0.23937100  0.00000000  0.66105600  1
  Te  Te27  1  0.42384100  0.00000000  0.59686500  1
  Te  Te28  1  0.07514400  0.50000000  0.40421500  1
  Te  Te29  1  0.25816900  0.50000000  0.33875800  1
  N  N30  1  0.86172900  0.00000000  0.80517800  1
  N  N31  1  0.63681800  0.50000000  0.19458200  1
  N  N32  1  0.36172900  0.50000000  0.80517800  1
  N  N33  1  0.13681800  0.00000000  0.19458200  1
