# generated using pymatgen
data_K3Ga13
_symmetry_space_group_name_H-M   'P 1'
_cell_length_a   6.52532800
_cell_length_b   16.37536000
_cell_length_c   28.90405500
_cell_angle_alpha   90.00000000
_cell_angle_beta   90.00000000
_cell_angle_gamma   90.00000000
_symmetry_Int_Tables_number   1
_chemical_formula_structural   K3Ga13
_chemical_formula_sum   'K24 Ga104'
_cell_volume   3088.53109430
_cell_formula_units_Z   8
loop_
 _symmetry_equiv_pos_site_id
 _symmetry_equiv_pos_as_xyz
  1  'x, y, z'
loop_
 _atom_site_type_symbol
 _atom_site_label
 _atom_site_symmetry_multiplicity
 _atom_site_fract_x
 _atom_site_fract_y
 _atom_site_fract_z
 _atom_site_occupancy
  K  K0  1  0.00000000  0.21336000  0.58673100  1
  K  K1  1  0.50000000  0.48844600  0.63840800  1
  K  K2  1  0.00000000  0.36170500  0.68059000  1
  K  K3  1  0.50000000  0.48844600  0.86159200  1
  K  K4  1  0.00000000  0.21336000  0.91326900  1
  K  K5  1  0.00000000  0.01155400  0.13840800  1
  K  K6  1  0.00000000  0.36170500  0.81941000  1
  K  K7  1  0.00000000  0.01155400  0.36159200  1
  K  K8  1  0.50000000  0.13829500  0.18059000  1
  K  K9  1  0.50000000  0.13829500  0.31941000  1
  K  K10  1  0.50000000  0.28664000  0.08673100  1
  K  K11  1  0.50000000  0.28664000  0.41326900  1
  K  K12  1  0.50000000  0.71336000  0.58673100  1
  K  K13  1  0.00000000  0.98844600  0.63840800  1
  K  K14  1  0.50000000  0.86170500  0.68059000  1
  K  K15  1  0.00000000  0.98844600  0.86159200  1
  K  K16  1  0.50000000  0.71336000  0.91326900  1
  K  K17  1  0.50000000  0.51155400  0.13840800  1
  K  K18  1  0.50000000  0.86170500  0.81941000  1
  K  K19  1  0.50000000  0.51155400  0.36159200  1
  K  K20  1  0.00000000  0.63829500  0.18059000  1
  K  K21  1  0.00000000  0.63829500  0.31941000  1
  K  K22  1  0.00000000  0.78664000  0.08673100  1
  K  K23  1  0.00000000  0.78664000  0.41326900  1
  Ga  Ga24  1  0.19380500  0.05059100  0.53494400  1
  Ga  Ga25  1  0.69380500  0.44940900  0.03494400  1
  Ga  Ga26  1  0.19380500  0.05059100  0.96505600  1
  Ga  Ga27  1  0.69380500  0.44940900  0.46505600  1
  Ga  Ga28  1  0.20048450  0.16975550  0.79664600  1
  Ga  Ga29  1  0.20048450  0.16975550  0.70335400  1
  Ga  Ga30  1  0.70048450  0.33024450  0.20335400  1
  Ga  Ga31  1  0.70048450  0.33024450  0.29664600  1
  Ga  Ga32  1  0.28744550  0.02914150  0.75000000  1
  Ga  Ga33  1  0.78744550  0.47085850  0.25000000  1
  Ga  Ga34  1  0.79632950  0.39087450  0.54752600  1
  Ga  Ga35  1  0.79632950  0.39087450  0.95247400  1
  Ga  Ga36  1  0.29632950  0.10912550  0.04752600  1
  Ga  Ga37  1  0.29632950  0.10912550  0.45247400  1
  Ga  Ga38  1  0.50000000  0.07194200  0.67163100  1
  Ga  Ga39  1  0.50000000  0.15847500  0.53109500  1
  Ga  Ga40  1  0.50000000  0.29871600  0.57215700  1
  Ga  Ga41  1  0.50000000  0.01741800  0.58935400  1
  Ga  Ga42  1  0.00000000  0.34152500  0.03109500  1
  Ga  Ga43  1  0.50000000  0.24066700  0.65612900  1
  Ga  Ga44  1  0.50000000  0.15847500  0.96890500  1
  Ga  Ga45  1  0.50000000  0.24066700  0.84387100  1
  Ga  Ga46  1  0.50000000  0.01741800  0.91064600  1
  Ga  Ga47  1  0.00000000  0.42805800  0.17163100  1
  Ga  Ga48  1  0.50000000  0.29871600  0.92784300  1
  Ga  Ga49  1  0.00000000  0.48258200  0.08935400  1
  Ga  Ga50  1  0.50000000  0.42117800  0.75000000  1
  Ga  Ga51  1  0.00000000  0.20128400  0.07215700  1
  Ga  Ga52  1  0.00000000  0.25933300  0.15612900  1
  Ga  Ga53  1  0.00000000  0.07882200  0.25000000  1
  Ga  Ga54  1  0.50000000  0.07194200  0.82836900  1
  Ga  Ga55  1  0.00000000  0.23211700  0.25000000  1
  Ga  Ga56  1  0.00000000  0.42805800  0.32836900  1
  Ga  Ga57  1  0.00000000  0.25933300  0.34387100  1
  Ga  Ga58  1  0.50000000  0.26788300  0.75000000  1
  Ga  Ga59  1  0.00000000  0.20128400  0.42784300  1
  Ga  Ga60  1  0.00000000  0.34152500  0.46890500  1
  Ga  Ga61  1  0.00000000  0.48258200  0.41064600  1
  Ga  Ga62  1  0.20367050  0.39087450  0.54752600  1
  Ga  Ga63  1  0.70367050  0.10912550  0.04752600  1
  Ga  Ga64  1  0.20367050  0.39087450  0.95247400  1
  Ga  Ga65  1  0.70367050  0.10912550  0.45247400  1
  Ga  Ga66  1  0.71255450  0.02914150  0.75000000  1
  Ga  Ga67  1  0.21255450  0.47085850  0.25000000  1
  Ga  Ga68  1  0.79951550  0.16975550  0.70335400  1
  Ga  Ga69  1  0.79951550  0.16975550  0.79664600  1
  Ga  Ga70  1  0.29951550  0.33024450  0.29664600  1
  Ga  Ga71  1  0.29951550  0.33024450  0.20335400  1
  Ga  Ga72  1  0.80619500  0.05059100  0.53494400  1
  Ga  Ga73  1  0.30619500  0.44940900  0.03494400  1
  Ga  Ga74  1  0.80619500  0.05059100  0.96505600  1
  Ga  Ga75  1  0.30619500  0.44940900  0.46505600  1
  Ga  Ga76  1  0.69380500  0.55059100  0.53494400  1
  Ga  Ga77  1  0.19380500  0.94940900  0.03494400  1
  Ga  Ga78  1  0.69380500  0.55059100  0.96505600  1
  Ga  Ga79  1  0.19380500  0.94940900  0.46505600  1
  Ga  Ga80  1  0.70048450  0.66975550  0.79664600  1
  Ga  Ga81  1  0.70048450  0.66975550  0.70335400  1
  Ga  Ga82  1  0.20048450  0.83024450  0.20335400  1
  Ga  Ga83  1  0.20048450  0.83024450  0.29664600  1
  Ga  Ga84  1  0.78744550  0.52914150  0.75000000  1
  Ga  Ga85  1  0.28744550  0.97085850  0.25000000  1
  Ga  Ga86  1  0.29632950  0.89087450  0.54752600  1
  Ga  Ga87  1  0.29632950  0.89087450  0.95247400  1
  Ga  Ga88  1  0.79632950  0.60912550  0.04752600  1
  Ga  Ga89  1  0.79632950  0.60912550  0.45247400  1
  Ga  Ga90  1  0.00000000  0.57194200  0.67163100  1
  Ga  Ga91  1  0.00000000  0.65847500  0.53109500  1
  Ga  Ga92  1  0.00000000  0.79871600  0.57215700  1
  Ga  Ga93  1  0.00000000  0.51741800  0.58935400  1
  Ga  Ga94  1  0.50000000  0.84152500  0.03109500  1
  Ga  Ga95  1  0.00000000  0.74066700  0.65612900  1
  Ga  Ga96  1  0.00000000  0.65847500  0.96890500  1
  Ga  Ga97  1  0.00000000  0.74066700  0.84387100  1
  Ga  Ga98  1  0.00000000  0.51741800  0.91064600  1
  Ga  Ga99  1  0.50000000  0.92805800  0.17163100  1
  Ga  Ga100  1  0.00000000  0.79871600  0.92784300  1
  Ga  Ga101  1  0.50000000  0.98258200  0.08935400  1
  Ga  Ga102  1  0.00000000  0.92117800  0.75000000  1
  Ga  Ga103  1  0.50000000  0.70128400  0.07215700  1
  Ga  Ga104  1  0.50000000  0.75933300  0.15612900  1
  Ga  Ga105  1  0.50000000  0.57882200  0.25000000  1
  Ga  Ga106  1  0.00000000  0.57194200  0.82836900  1
  Ga  Ga107  1  0.50000000  0.73211700  0.25000000  1
  Ga  Ga108  1  0.50000000  0.92805800  0.32836900  1
  Ga  Ga109  1  0.50000000  0.75933300  0.34387100  1
  Ga  Ga110  1  0.00000000  0.76788300  0.75000000  1
  Ga  Ga111  1  0.50000000  0.70128400  0.42784300  1
  Ga  Ga112  1  0.50000000  0.84152500  0.46890500  1
  Ga  Ga113  1  0.50000000  0.98258200  0.41064600  1
  Ga  Ga114  1  0.70367050  0.89087450  0.54752600  1
  Ga  Ga115  1  0.20367050  0.60912550  0.04752600  1
  Ga  Ga116  1  0.70367050  0.89087450  0.95247400  1
  Ga  Ga117  1  0.20367050  0.60912550  0.45247400  1
  Ga  Ga118  1  0.21255450  0.52914150  0.75000000  1
  Ga  Ga119  1  0.71255450  0.97085850  0.25000000  1
  Ga  Ga120  1  0.29951550  0.66975550  0.70335400  1
  Ga  Ga121  1  0.29951550  0.66975550  0.79664600  1
  Ga  Ga122  1  0.79951550  0.83024450  0.29664600  1
  Ga  Ga123  1  0.79951550  0.83024450  0.20335400  1
  Ga  Ga124  1  0.30619500  0.55059100  0.53494400  1
  Ga  Ga125  1  0.80619500  0.94940900  0.03494400  1
  Ga  Ga126  1  0.30619500  0.55059100  0.96505600  1
  Ga  Ga127  1  0.80619500  0.94940900  0.46505600  1
