# generated using pymatgen
data_La3U2O10
_symmetry_space_group_name_H-M   'P 1'
_cell_length_a   12.12659200
_cell_length_b   5.55630200
_cell_length_c   8.60624754
_cell_angle_alpha   90.00000000
_cell_angle_beta   132.29474998
_cell_angle_gamma   90.00000000
_symmetry_Int_Tables_number   1
_chemical_formula_structural   La3U2O10
_chemical_formula_sum   'La6 U4 O20'
_cell_volume   428.93334604
_cell_formula_units_Z   2
loop_
 _symmetry_equiv_pos_site_id
 _symmetry_equiv_pos_as_xyz
  1  'x, y, z'
loop_
 _atom_site_type_symbol
 _atom_site_label
 _atom_site_symmetry_multiplicity
 _atom_site_fract_x
 _atom_site_fract_y
 _atom_site_fract_z
 _atom_site_occupancy
  La  La0  1  0.59973300  0.00000000  0.90225000  1
  La  La1  1  0.50000000  0.50000000  0.50000000  1
  La  La2  1  0.40026700  0.00000000  0.09775000  1
  La  La3  1  0.09973300  0.50000000  0.90225000  1
  La  La4  1  0.00000000  0.00000000  0.50000000  1
  La  La5  1  0.90026700  0.50000000  0.09775000  1
  U  U6  1  0.80986300  0.00000000  0.71035400  1
  U  U7  1  0.19013700  0.00000000  0.28964600  1
  U  U8  1  0.30986300  0.50000000  0.71035400  1
  U  U9  1  0.69013700  0.50000000  0.28964600  1
  O  O10  1  0.00000000  0.77673900  0.00000000  1
  O  O11  1  0.39215650  0.74275350  0.61296400  1
  O  O12  1  0.00000000  0.22326100  0.00000000  1
  O  O13  1  0.29007950  0.23501750  0.21565700  1
  O  O14  1  0.70992050  0.23501750  0.78434300  1
  O  O15  1  0.39215650  0.25724650  0.61296400  1
  O  O16  1  0.60784350  0.74275350  0.38703600  1
  O  O17  1  0.29007950  0.76498250  0.21565700  1
  O  O18  1  0.70992050  0.76498250  0.78434300  1
  O  O19  1  0.60784350  0.25724650  0.38703600  1
  O  O20  1  0.50000000  0.27673900  0.00000000  1
  O  O21  1  0.89215650  0.24275350  0.61296400  1
  O  O22  1  0.50000000  0.72326100  0.00000000  1
  O  O23  1  0.79007950  0.73501750  0.21565700  1
  O  O24  1  0.20992050  0.73501750  0.78434300  1
  O  O25  1  0.89215650  0.75724650  0.61296400  1
  O  O26  1  0.10784350  0.24275350  0.38703600  1
  O  O27  1  0.79007950  0.26498250  0.21565700  1
  O  O28  1  0.20992050  0.26498250  0.78434300  1
  O  O29  1  0.10784350  0.75724650  0.38703600  1
