# generated using pymatgen
data_Yb2Te4O11
_symmetry_space_group_name_H-M   'P 1'
_cell_length_a   12.30987400
_cell_length_b   5.31718200
_cell_length_c   17.27554160
_cell_angle_alpha   90.00000000
_cell_angle_beta   99.41546947
_cell_angle_gamma   90.00000000
_symmetry_Int_Tables_number   1
_chemical_formula_structural   Yb2Te4O11
_chemical_formula_sum   'Yb8 Te16 O44'
_cell_volume   1115.51710483
_cell_formula_units_Z   4
loop_
 _symmetry_equiv_pos_site_id
 _symmetry_equiv_pos_as_xyz
  1  'x, y, z'
loop_
 _atom_site_type_symbol
 _atom_site_label
 _atom_site_symmetry_multiplicity
 _atom_site_fract_x
 _atom_site_fract_y
 _atom_site_fract_z
 _atom_site_occupancy
  Yb  Yb0  1  0.61722150  0.27708750  0.03360800  1
  Yb  Yb1  1  0.61722150  0.72291250  0.53360800  1
  Yb  Yb2  1  0.88277850  0.22291250  0.96639200  1
  Yb  Yb3  1  0.88277850  0.77708750  0.46639200  1
  Yb  Yb4  1  0.11722150  0.77708750  0.03360800  1
  Yb  Yb5  1  0.11722150  0.22291250  0.53360800  1
  Yb  Yb6  1  0.38277850  0.72291250  0.96639200  1
  Yb  Yb7  1  0.38277850  0.27708750  0.46639200  1
  Te  Te8  1  0.88316550  0.71636450  0.82338400  1
  Te  Te9  1  0.61683450  0.21636450  0.67661600  1
  Te  Te10  1  0.87501150  0.67669650  0.11789200  1
  Te  Te11  1  0.87501150  0.32330350  0.61789200  1
  Te  Te12  1  0.88316550  0.28363550  0.32338400  1
  Te  Te13  1  0.62498850  0.17669650  0.38210800  1
  Te  Te14  1  0.62498850  0.82330350  0.88210800  1
  Te  Te15  1  0.61683450  0.78363550  0.17661600  1
  Te  Te16  1  0.38316550  0.21636450  0.82338400  1
  Te  Te17  1  0.11683450  0.71636450  0.67661600  1
  Te  Te18  1  0.37501150  0.17669650  0.11789200  1
  Te  Te19  1  0.37501150  0.82330350  0.61789200  1
  Te  Te20  1  0.38316550  0.78363550  0.32338400  1
  Te  Te21  1  0.12498850  0.67669650  0.38210800  1
  Te  Te22  1  0.12498850  0.32330350  0.88210800  1
  Te  Te23  1  0.11683450  0.28363550  0.17661600  1
  O  O24  1  0.63866900  0.55235300  0.66324700  1
  O  O25  1  0.93140950  0.10052750  0.55116400  1
  O  O26  1  0.97826600  0.42873800  0.40922300  1
  O  O27  1  0.70871100  0.96611800  0.45455900  1
  O  O28  1  0.63866900  0.44764700  0.16324700  1
  O  O29  1  0.86133100  0.94764700  0.33675300  1
  O  O30  1  0.75598200  0.42453700  0.36471400  1
  O  O31  1  0.52173400  0.07126200  0.59077700  1
  O  O32  1  0.79128900  0.46611800  0.04544100  1
  O  O33  1  0.86133100  0.05235300  0.83675300  1
  O  O34  1  0.00000000  0.68885200  0.75000000  1
  O  O35  1  0.56859050  0.39947250  0.44883600  1
  O  O36  1  0.74401800  0.07546300  0.63528600  1
  O  O37  1  0.97826600  0.57126200  0.90922300  1
  O  O38  1  0.79128900  0.53388200  0.54544100  1
  O  O39  1  0.74401800  0.92453700  0.13528600  1
  O  O40  1  0.70871100  0.03388200  0.95455900  1
  O  O41  1  0.00000000  0.31114800  0.25000000  1
  O  O42  1  0.93140950  0.89947250  0.05116400  1
  O  O43  1  0.75598200  0.57546300  0.86471400  1
  O  O44  1  0.52173400  0.92873800  0.09077700  1
  O  O45  1  0.56859050  0.60052750  0.94883600  1
  O  O46  1  0.13866900  0.05235300  0.66324700  1
  O  O47  1  0.43140950  0.60052750  0.55116400  1
  O  O48  1  0.47826600  0.92873800  0.40922300  1
  O  O49  1  0.20871100  0.46611800  0.45455900  1
  O  O50  1  0.13866900  0.94764700  0.16324700  1
  O  O51  1  0.36133100  0.44764700  0.33675300  1
  O  O52  1  0.25598200  0.92453700  0.36471400  1
  O  O53  1  0.02173400  0.57126200  0.59077700  1
  O  O54  1  0.29128900  0.96611800  0.04544100  1
  O  O55  1  0.36133100  0.55235300  0.83675300  1
  O  O56  1  0.50000000  0.18885200  0.75000000  1
  O  O57  1  0.06859050  0.89947250  0.44883600  1
  O  O58  1  0.24401800  0.57546300  0.63528600  1
  O  O59  1  0.47826600  0.07126200  0.90922300  1
  O  O60  1  0.29128900  0.03388200  0.54544100  1
  O  O61  1  0.24401800  0.42453700  0.13528600  1
  O  O62  1  0.20871100  0.53388200  0.95455900  1
  O  O63  1  0.50000000  0.81114800  0.25000000  1
  O  O64  1  0.43140950  0.39947250  0.05116400  1
  O  O65  1  0.25598200  0.07546300  0.86471400  1
  O  O66  1  0.02173400  0.42873800  0.09077700  1
  O  O67  1  0.06859050  0.10052750  0.94883600  1
