# generated using pymatgen
data_K3AsO4
_symmetry_space_group_name_H-M   'P 1'
_cell_length_a   10.98910800
_cell_length_b   12.07185800
_cell_length_c   18.22160200
_cell_angle_alpha   90.00000000
_cell_angle_beta   90.00000000
_cell_angle_gamma   90.00000000
_symmetry_Int_Tables_number   1
_chemical_formula_structural   K3AsO4
_chemical_formula_sum   'K48 As16 O64'
_cell_volume   2417.25861274
_cell_formula_units_Z   16
loop_
 _symmetry_equiv_pos_site_id
 _symmetry_equiv_pos_as_xyz
  1  'x, y, z'
loop_
 _atom_site_type_symbol
 _atom_site_label
 _atom_site_symmetry_multiplicity
 _atom_site_fract_x
 _atom_site_fract_y
 _atom_site_fract_z
 _atom_site_occupancy
  K  K0  1  0.00000000  0.00000000  0.10099400  1
  K  K1  1  0.25000000  0.25000000  0.34592900  1
  K  K2  1  0.00000000  0.00000000  0.89900600  1
  K  K3  1  0.25000000  0.75000000  0.39173700  1
  K  K4  1  0.44441750  0.74885750  0.00000000  1
  K  K5  1  0.25000000  0.75000000  0.84592900  1
  K  K6  1  0.20371200  0.00000000  0.25000000  1
  K  K7  1  0.79628800  0.00000000  0.25000000  1
  K  K8  1  0.25000000  0.25000000  0.65407100  1
  K  K9  1  0.55558250  0.74885750  0.50000000  1
  K  K10  1  0.25000000  0.75000000  0.60826300  1
  K  K11  1  0.50000000  0.00000000  0.86352800  1
  K  K12  1  0.25000000  0.25000000  0.89173700  1
  K  K13  1  0.50000000  0.00000000  0.63647200  1
  K  K14  1  0.25000000  0.75000000  0.15407100  1
  K  K15  1  0.00000000  0.00000000  0.39900600  1
  K  K16  1  0.20371200  0.00000000  0.75000000  1
  K  K17  1  0.25000000  0.25000000  0.10826300  1
  K  K18  1  0.50000000  0.00000000  0.36352800  1
  K  K19  1  0.79628800  0.00000000  0.75000000  1
  K  K20  1  0.55558250  0.25114250  0.00000000  1
  K  K21  1  0.50000000  0.00000000  0.13647200  1
  K  K22  1  0.00000000  0.00000000  0.60099400  1
  K  K23  1  0.44441750  0.25114250  0.50000000  1
  K  K24  1  0.50000000  0.50000000  0.10099400  1
  K  K25  1  0.75000000  0.75000000  0.34592900  1
  K  K26  1  0.50000000  0.50000000  0.89900600  1
  K  K27  1  0.75000000  0.25000000  0.39173700  1
  K  K28  1  0.94441750  0.24885750  0.00000000  1
  K  K29  1  0.75000000  0.25000000  0.84592900  1
  K  K30  1  0.70371200  0.50000000  0.25000000  1
  K  K31  1  0.29628800  0.50000000  0.25000000  1
  K  K32  1  0.75000000  0.75000000  0.65407100  1
  K  K33  1  0.05558250  0.24885750  0.50000000  1
  K  K34  1  0.75000000  0.25000000  0.60826300  1
  K  K35  1  0.00000000  0.50000000  0.86352800  1
  K  K36  1  0.75000000  0.75000000  0.89173700  1
  K  K37  1  0.00000000  0.50000000  0.63647200  1
  K  K38  1  0.75000000  0.25000000  0.15407100  1
  K  K39  1  0.50000000  0.50000000  0.39900600  1
  K  K40  1  0.70371200  0.50000000  0.75000000  1
  K  K41  1  0.75000000  0.75000000  0.10826300  1
  K  K42  1  0.00000000  0.50000000  0.36352800  1
  K  K43  1  0.29628800  0.50000000  0.75000000  1
  K  K44  1  0.05558250  0.75114250  0.00000000  1
  K  K45  1  0.00000000  0.50000000  0.13647200  1
  K  K46  1  0.50000000  0.50000000  0.60099400  1
  K  K47  1  0.94441750  0.75114250  0.50000000  1
  As  As48  1  0.26750250  0.01242550  0.00000000  1
  As  As49  1  0.73249750  0.98757450  0.00000000  1
  As  As50  1  0.50000000  0.23736000  0.75000000  1
  As  As51  1  0.50000000  0.23736000  0.25000000  1
  As  As52  1  0.50000000  0.76264000  0.25000000  1
  As  As53  1  0.50000000  0.76264000  0.75000000  1
  As  As54  1  0.73249750  0.01242550  0.50000000  1
  As  As55  1  0.26750250  0.98757450  0.50000000  1
  As  As56  1  0.76750250  0.51242550  0.00000000  1
  As  As57  1  0.23249750  0.48757450  0.00000000  1
  As  As58  1  0.00000000  0.73736000  0.75000000  1
  As  As59  1  0.00000000  0.73736000  0.25000000  1
  As  As60  1  0.00000000  0.26264000  0.25000000  1
  As  As61  1  0.00000000  0.26264000  0.75000000  1
  As  As62  1  0.23249750  0.51242550  0.50000000  1
  As  As63  1  0.76750250  0.48757450  0.50000000  1
  O  O64  1  0.37465300  0.15350200  0.76452800  1
  O  O65  1  0.48172750  0.67783950  0.17404100  1
  O  O66  1  0.26902600  0.07130400  0.57711200  1
  O  O67  1  0.37465300  0.84649800  0.73547200  1
  O  O68  1  0.38782800  0.89595600  0.50000000  1
  O  O69  1  0.48172750  0.32216050  0.67404100  1
  O  O70  1  0.51827250  0.32216050  0.82595900  1
  O  O71  1  0.51827250  0.32216050  0.17404100  1
  O  O72  1  0.62534700  0.84649800  0.23547200  1
  O  O73  1  0.13629450  0.09306650  0.00000000  1
  O  O74  1  0.61217200  0.10404400  0.50000000  1
  O  O75  1  0.51827250  0.67783950  0.67404100  1
  O  O76  1  0.61217200  0.89595600  0.00000000  1
  O  O77  1  0.73097400  0.92869600  0.42288800  1
  O  O78  1  0.86370550  0.90693350  0.00000000  1
  O  O79  1  0.73097400  0.07130400  0.07711200  1
  O  O80  1  0.26902600  0.92869600  0.92288800  1
  O  O81  1  0.51827250  0.67783950  0.32595900  1
  O  O82  1  0.26902600  0.07130400  0.42288800  1
  O  O83  1  0.38782800  0.10404400  0.00000000  1
  O  O84  1  0.37465300  0.15350200  0.23547200  1
  O  O85  1  0.26902600  0.92869600  0.07711200  1
  O  O86  1  0.37465300  0.84649800  0.26452800  1
  O  O87  1  0.73097400  0.92869600  0.57711200  1
  O  O88  1  0.86370550  0.09306650  0.50000000  1
  O  O89  1  0.62534700  0.84649800  0.76452800  1
  O  O90  1  0.48172750  0.32216050  0.32595900  1
  O  O91  1  0.62534700  0.15350200  0.73547200  1
  O  O92  1  0.13629450  0.90693350  0.50000000  1
  O  O93  1  0.48172750  0.67783950  0.82595900  1
  O  O94  1  0.62534700  0.15350200  0.26452800  1
  O  O95  1  0.73097400  0.07130400  0.92288800  1
  O  O96  1  0.87465300  0.65350200  0.76452800  1
  O  O97  1  0.98172750  0.17783950  0.17404100  1
  O  O98  1  0.76902600  0.57130400  0.57711200  1
  O  O99  1  0.87465300  0.34649800  0.73547200  1
  O  O100  1  0.88782800  0.39595600  0.50000000  1
  O  O101  1  0.98172750  0.82216050  0.67404100  1
  O  O102  1  0.01827250  0.82216050  0.82595900  1
  O  O103  1  0.01827250  0.82216050  0.17404100  1
  O  O104  1  0.12534700  0.34649800  0.23547200  1
  O  O105  1  0.63629450  0.59306650  0.00000000  1
  O  O106  1  0.11217200  0.60404400  0.50000000  1
  O  O107  1  0.01827250  0.17783950  0.67404100  1
  O  O108  1  0.11217200  0.39595600  0.00000000  1
  O  O109  1  0.23097400  0.42869600  0.42288800  1
  O  O110  1  0.36370550  0.40693350  0.00000000  1
  O  O111  1  0.23097400  0.57130400  0.07711200  1
  O  O112  1  0.76902600  0.42869600  0.92288800  1
  O  O113  1  0.01827250  0.17783950  0.32595900  1
  O  O114  1  0.76902600  0.57130400  0.42288800  1
  O  O115  1  0.88782800  0.60404400  0.00000000  1
  O  O116  1  0.87465300  0.65350200  0.23547200  1
  O  O117  1  0.76902600  0.42869600  0.07711200  1
  O  O118  1  0.87465300  0.34649800  0.26452800  1
  O  O119  1  0.23097400  0.42869600  0.57711200  1
  O  O120  1  0.36370550  0.59306650  0.50000000  1
  O  O121  1  0.12534700  0.34649800  0.76452800  1
  O  O122  1  0.98172750  0.82216050  0.32595900  1
  O  O123  1  0.12534700  0.65350200  0.73547200  1
  O  O124  1  0.63629450  0.40693350  0.50000000  1
  O  O125  1  0.98172750  0.17783950  0.82595900  1
  O  O126  1  0.12534700  0.65350200  0.26452800  1
  O  O127  1  0.23097400  0.57130400  0.92288800  1
