# generated using pymatgen
data_NdPb4F11
_symmetry_space_group_name_H-M   'P 1'
_cell_length_a   7.11645400
_cell_length_b   4.22473800
_cell_length_c   17.64880758
_cell_angle_alpha   90.00000000
_cell_angle_beta   97.51087574
_cell_angle_gamma   90.00000000
_symmetry_Int_Tables_number   1
_chemical_formula_structural   NdPb4F11
_chemical_formula_sum   'Nd2 Pb8 F22'
_cell_volume   526.06147811
_cell_formula_units_Z   2
loop_
 _symmetry_equiv_pos_site_id
 _symmetry_equiv_pos_as_xyz
  1  'x, y, z'
loop_
 _atom_site_type_symbol
 _atom_site_label
 _atom_site_symmetry_multiplicity
 _atom_site_fract_x
 _atom_site_fract_y
 _atom_site_fract_z
 _atom_site_occupancy
  Nd  Nd0  1  0.39441700  0.00000000  0.19004100  1
  Nd  Nd1  1  0.89441700  0.50000000  0.19004100  1
  Pb  Pb2  1  0.95404100  0.00000000  0.99955600  1
  Pb  Pb3  1  0.56129900  0.00000000  0.79935600  1
  Pb  Pb4  1  0.18156900  0.00000000  0.59768600  1
  Pb  Pb5  1  0.79166200  0.00000000  0.39389300  1
  Pb  Pb6  1  0.45404100  0.50000000  0.99955600  1
  Pb  Pb7  1  0.06129900  0.50000000  0.79935600  1
  Pb  Pb8  1  0.68156900  0.50000000  0.59768600  1
  Pb  Pb9  1  0.29166200  0.50000000  0.39389300  1
  F  F10  1  0.60773400  0.00000000  0.94476800  1
  F  F11  1  0.91298500  0.00000000  0.85403500  1
  F  F12  1  0.83101200  0.00000000  0.54795600  1
  F  F13  1  0.21106400  0.00000000  0.74847300  1
  F  F14  1  0.53021900  0.00000000  0.64963000  1
  F  F15  1  0.43726300  0.00000000  0.33233800  1
  F  F16  1  0.14381100  0.00000000  0.44445200  1
  F  F17  1  0.05183600  0.00000000  0.18682400  1
  F  F18  1  0.74614100  0.00000000  0.25730200  1
  F  F19  1  0.67682600  0.00000000  0.11835100  1
  F  F20  1  0.31612000  0.00000000  0.05133900  1
  F  F21  1  0.10773400  0.50000000  0.94476800  1
  F  F22  1  0.41298500  0.50000000  0.85403500  1
  F  F23  1  0.33101200  0.50000000  0.54795600  1
  F  F24  1  0.71106400  0.50000000  0.74847300  1
  F  F25  1  0.03021900  0.50000000  0.64963000  1
  F  F26  1  0.93726300  0.50000000  0.33233800  1
  F  F27  1  0.64381100  0.50000000  0.44445200  1
  F  F28  1  0.55183600  0.50000000  0.18682400  1
  F  F29  1  0.24614100  0.50000000  0.25730200  1
  F  F30  1  0.17682600  0.50000000  0.11835100  1
  F  F31  1  0.81612000  0.50000000  0.05133900  1
