# generated using pymatgen
data_Rb3Tm(SO4)3
_symmetry_space_group_name_H-M   'P 1'
_cell_length_a   11.17976000
_cell_length_b   15.49683400
_cell_length_c   9.51471648
_cell_angle_alpha   90.00000000
_cell_angle_beta   125.77328024
_cell_angle_gamma   90.00000000
_symmetry_Int_Tables_number   1
_chemical_formula_structural   Rb3Tm(SO4)3
_chemical_formula_sum   'Rb12 Tm4 S12 O48'
_cell_volume   1337.43394120
_cell_formula_units_Z   4
loop_
 _symmetry_equiv_pos_site_id
 _symmetry_equiv_pos_as_xyz
  1  'x, y, z'
loop_
 _atom_site_type_symbol
 _atom_site_label
 _atom_site_symmetry_multiplicity
 _atom_site_fract_x
 _atom_site_fract_y
 _atom_site_fract_z
 _atom_site_occupancy
  Rb  Rb0  1  0.69159050  0.49361750  0.14841000  1
  Rb  Rb1  1  0.30866500  0.23654300  0.87785500  1
  Rb  Rb2  1  0.97636600  0.30609600  0.95796900  1
  Rb  Rb3  1  0.80866500  0.26345700  0.37785500  1
  Rb  Rb4  1  0.19159050  0.00638250  0.64841000  1
  Rb  Rb5  1  0.47636600  0.19390400  0.45796900  1
  Rb  Rb6  1  0.19159050  0.99361750  0.14841000  1
  Rb  Rb7  1  0.80866500  0.73654300  0.87785500  1
  Rb  Rb8  1  0.47636600  0.80609600  0.95796900  1
  Rb  Rb9  1  0.30866500  0.76345700  0.37785500  1
  Rb  Rb10  1  0.69159050  0.50638250  0.64841000  1
  Rb  Rb11  1  0.97636600  0.69390400  0.45796900  1
  Tm  Tm12  1  0.74011500  0.09125800  0.99687700  1
  Tm  Tm13  1  0.24011500  0.40874200  0.49687700  1
  Tm  Tm14  1  0.24011500  0.59125800  0.99687700  1
  Tm  Tm15  1  0.74011500  0.90874200  0.49687700  1
  S  S16  1  0.80642800  0.10298000  0.69906300  1
  S  S17  1  0.30642800  0.39702000  0.19906300  1
  S  S18  1  0.06480350  0.44168250  0.64599600  1
  S  S19  1  0.59009200  0.30726100  0.85422500  1
  S  S20  1  0.09009200  0.19273900  0.35422500  1
  S  S21  1  0.56480350  0.05831750  0.14599600  1
  S  S22  1  0.30642800  0.60298000  0.69906300  1
  S  S23  1  0.80642800  0.89702000  0.19906300  1
  S  S24  1  0.56480350  0.94168250  0.64599600  1
  S  S25  1  0.09009200  0.80726100  0.85422500  1
  S  S26  1  0.59009200  0.69273900  0.35422500  1
  S  S27  1  0.06480350  0.55831750  0.14599600  1
  O  O28  1  0.13078000  0.28613900  0.34909900  1
  O  O29  1  0.14945950  0.10339850  0.89356800  1
  O  O30  1  0.63078000  0.21386100  0.84909900  1
  O  O31  1  0.58831550  0.31889550  0.00638200  1
  O  O32  1  0.96842700  0.38797100  0.66705200  1
  O  O33  1  0.08831550  0.18110450  0.50638200  1
  O  O34  1  0.35562800  0.46776100  0.13031300  1
  O  O35  1  0.35257600  0.31071100  0.17615900  1
  O  O36  1  0.21162400  0.39826700  0.72012700  1
  O  O37  1  0.50644250  0.04358150  0.95982600  1
  O  O38  1  0.93698500  0.17989200  0.18984200  1
  O  O39  1  0.71162400  0.10173300  0.22012700  1
  O  O40  1  0.88219100  0.08717100  0.89285400  1
  O  O41  1  0.69543400  0.36547500  0.85641000  1
  O  O42  1  0.46842700  0.11202900  0.16705200  1
  O  O43  1  0.19543400  0.13452500  0.35641000  1
  O  O44  1  0.00644250  0.45641850  0.45982600  1
  O  O45  1  0.43698500  0.32010800  0.68984200  1
  O  O46  1  0.85562800  0.03223900  0.63031300  1
  O  O47  1  0.08847700  0.47298000  0.23277600  1
  O  O48  1  0.38219100  0.41282900  0.39285400  1
  O  O49  1  0.58847700  0.02702000  0.73277600  1
  O  O50  1  0.85257600  0.18928900  0.67615900  1
  O  O51  1  0.64945950  0.39660150  0.39356800  1
  O  O52  1  0.63078000  0.78613900  0.34909900  1
  O  O53  1  0.64945950  0.60339850  0.89356800  1
  O  O54  1  0.13078000  0.71386100  0.84909900  1
  O  O55  1  0.08831550  0.81889550  0.00638200  1
  O  O56  1  0.46842700  0.88797100  0.66705200  1
  O  O57  1  0.58831550  0.68110450  0.50638200  1
  O  O58  1  0.85562800  0.96776100  0.13031300  1
  O  O59  1  0.85257600  0.81071100  0.17615900  1
  O  O60  1  0.71162400  0.89826700  0.72012700  1
  O  O61  1  0.00644250  0.54358150  0.95982600  1
  O  O62  1  0.43698500  0.67989200  0.18984200  1
  O  O63  1  0.21162400  0.60173300  0.22012700  1
  O  O64  1  0.38219100  0.58717100  0.89285400  1
  O  O65  1  0.19543400  0.86547500  0.85641000  1
  O  O66  1  0.96842700  0.61202900  0.16705200  1
  O  O67  1  0.69543400  0.63452500  0.35641000  1
  O  O68  1  0.50644250  0.95641850  0.45982600  1
  O  O69  1  0.93698500  0.82010800  0.68984200  1
  O  O70  1  0.35562800  0.53223900  0.63031300  1
  O  O71  1  0.58847700  0.97298000  0.23277600  1
  O  O72  1  0.88219100  0.91282900  0.39285400  1
  O  O73  1  0.08847700  0.52702000  0.73277600  1
  O  O74  1  0.35257600  0.68928900  0.67615900  1
  O  O75  1  0.14945950  0.89660150  0.39356800  1
