# generated using pymatgen
data_Mn(InTe2)2
_symmetry_space_group_name_H-M   'P 1'
_cell_length_a   4.47841400
_cell_length_b   7.20878800
_cell_length_c   28.71231100
_cell_angle_alpha   90.00000000
_cell_angle_beta   90.00000000
_cell_angle_gamma   90.00000000
_symmetry_Int_Tables_number   1
_chemical_formula_structural   Mn(InTe2)2
_chemical_formula_sum   'Mn4 In8 Te16'
_cell_volume   926.94644238
_cell_formula_units_Z   4
loop_
 _symmetry_equiv_pos_site_id
 _symmetry_equiv_pos_as_xyz
  1  'x, y, z'
loop_
 _atom_site_type_symbol
 _atom_site_label
 _atom_site_symmetry_multiplicity
 _atom_site_fract_x
 _atom_site_fract_y
 _atom_site_fract_z
 _atom_site_occupancy
  Mn  Mn0  1  0.75000000  0.86214800  0.19607500  1
  Mn  Mn1  1  0.25000000  0.36214800  0.30392500  1
  Mn  Mn2  1  0.75000000  0.63785200  0.69607500  1
  Mn  Mn3  1  0.25000000  0.13785200  0.80392500  1
  In  In4  1  0.25000000  0.02936900  0.65393400  1
  In  In5  1  0.75000000  0.57056700  0.45020300  1
  In  In6  1  0.25000000  0.42943300  0.54979700  1
  In  In7  1  0.75000000  0.92943300  0.95020300  1
  In  In8  1  0.75000000  0.97063100  0.34606600  1
  In  In9  1  0.25000000  0.47063100  0.15393400  1
  In  In10  1  0.75000000  0.52936900  0.84606600  1
  In  In11  1  0.25000000  0.07056700  0.04979700  1
  Te  Te12  1  0.75000000  0.85673300  0.61025500  1
  Te  Te13  1  0.75000000  0.23947700  0.50716700  1
  Te  Te14  1  0.25000000  0.07648000  0.14845300  1
  Te  Te15  1  0.75000000  0.32961100  0.76106600  1
  Te  Te16  1  0.75000000  0.26052300  0.00716700  1
  Te  Te17  1  0.75000000  0.17038900  0.26106600  1
  Te  Te18  1  0.25000000  0.35673300  0.88974500  1
  Te  Te19  1  0.25000000  0.42352000  0.64845300  1
  Te  Te20  1  0.25000000  0.14326700  0.38974500  1
  Te  Te21  1  0.25000000  0.67038900  0.23893400  1
  Te  Te22  1  0.25000000  0.73947700  0.99283300  1
  Te  Te23  1  0.75000000  0.57648000  0.35154700  1
  Te  Te24  1  0.25000000  0.82961100  0.73893400  1
  Te  Te25  1  0.75000000  0.64326700  0.11025500  1
  Te  Te26  1  0.25000000  0.76052300  0.49283300  1
  Te  Te27  1  0.75000000  0.92352000  0.85154700  1
