# generated using pymatgen
data_Cs2NaGaF6
_symmetry_space_group_name_H-M   'P 1'
_cell_length_a   6.34527815
_cell_length_b   6.34527815
_cell_length_c   30.83923461
_cell_angle_alpha   90.00000000
_cell_angle_beta   90.00000000
_cell_angle_gamma   120.00000000
_symmetry_Int_Tables_number   1
_chemical_formula_structural   Cs2NaGaF6
_chemical_formula_sum   'Cs12 Na6 Ga6 F36'
_cell_volume   1075.31462191
_cell_formula_units_Z   6
loop_
 _symmetry_equiv_pos_site_id
 _symmetry_equiv_pos_as_xyz
  1  'x, y, z'
loop_
 _atom_site_type_symbol
 _atom_site_label
 _atom_site_symmetry_multiplicity
 _atom_site_fract_x
 _atom_site_fract_y
 _atom_site_fract_z
 _atom_site_occupancy
  Cs  Cs0  1  0.00000000  0.00000000  0.28152500  1
  Cs  Cs1  1  0.66666667  0.33333333  0.05180833  1
  Cs  Cs2  1  0.00000000  0.00000000  0.12801900  1
  Cs  Cs3  1  0.66666667  0.33333333  0.20531433  1
  Cs  Cs4  1  0.66666667  0.33333333  0.61485833  1
  Cs  Cs5  1  0.33333333  0.66666667  0.38514167  1
  Cs  Cs6  1  0.66666667  0.33333333  0.46135233  1
  Cs  Cs7  1  0.33333333  0.66666667  0.53864767  1
  Cs  Cs8  1  0.33333333  0.66666667  0.94819167  1
  Cs  Cs9  1  0.00000000  0.00000000  0.71847500  1
  Cs  Cs10  1  0.33333333  0.66666667  0.79468567  1
  Cs  Cs11  1  0.00000000  0.00000000  0.87198100  1
  Na  Na12  1  0.33333333  0.66666667  0.26365167  1
  Na  Na13  1  0.33333333  0.66666667  0.06968167  1
  Na  Na14  1  0.00000000  0.00000000  0.59698500  1
  Na  Na15  1  0.00000000  0.00000000  0.40301500  1
  Na  Na16  1  0.66666667  0.33333333  0.93031833  1
  Na  Na17  1  0.66666667  0.33333333  0.73634833  1
  Ga  Ga18  1  0.00000000  0.00000000  0.00000000  1
  Ga  Ga19  1  0.33333333  0.66666667  0.16666667  1
  Ga  Ga20  1  0.66666667  0.33333333  0.33333333  1
  Ga  Ga21  1  1.00000000  1.00000000  0.50000000  1
  Ga  Ga22  1  0.33333333  0.66666667  0.66666667  1
  Ga  Ga23  1  0.66666667  0.33333333  0.83333333  1
  F  F24  1  0.95772067  0.47886033  0.29740033  1
  F  F25  1  0.52113967  0.04227933  0.29740033  1
  F  F26  1  0.52113967  0.47886033  0.29740033  1
  F  F27  1  0.14552700  0.85447300  0.03593300  1
  F  F28  1  0.70894600  0.85447300  0.03593300  1
  F  F29  1  0.14552700  0.29105400  0.03593300  1
  F  F30  1  0.05116467  0.52558233  0.12897133  1
  F  F31  1  0.47441767  0.94883533  0.12897133  1
  F  F32  1  0.19224900  0.38449800  0.20436200  1
  F  F33  1  0.61550200  0.80775100  0.20436200  1
  F  F34  1  0.19224900  0.80775100  0.20436200  1
  F  F35  1  0.47441767  0.52558233  0.12897133  1
  F  F36  1  0.62438733  0.81219367  0.63073367  1
  F  F37  1  0.18780633  0.37561267  0.63073367  1
  F  F38  1  0.18780633  0.81219367  0.63073367  1
  F  F39  1  0.81219367  0.18780633  0.36926633  1
  F  F40  1  0.37561267  0.18780633  0.36926633  1
  F  F41  1  0.81219367  0.62438733  0.36926633  1
  F  F42  1  0.71783133  0.85891567  0.46230467  1
  F  F43  1  0.14108433  0.28216867  0.46230467  1
  F  F44  1  0.85891567  0.71783133  0.53769533  1
  F  F45  1  0.28216867  0.14108433  0.53769533  1
  F  F46  1  0.85891567  0.14108433  0.53769533  1
  F  F47  1  0.14108433  0.85891567  0.46230467  1
  F  F48  1  0.29105400  0.14552700  0.96406700  1
  F  F49  1  0.85447300  0.70894600  0.96406700  1
  F  F50  1  0.85447300  0.14552700  0.96406700  1
  F  F51  1  0.47886033  0.52113967  0.70259967  1
  F  F52  1  0.04227933  0.52113967  0.70259967  1
  F  F53  1  0.47886033  0.95772067  0.70259967  1
  F  F54  1  0.38449800  0.19224900  0.79563800  1
  F  F55  1  0.80775100  0.61550200  0.79563800  1
  F  F56  1  0.52558233  0.05116467  0.87102867  1
  F  F57  1  0.94883533  0.47441767  0.87102867  1
  F  F58  1  0.52558233  0.47441767  0.87102867  1
  F  F59  1  0.80775100  0.19224900  0.79563800  1
