# generated using pymatgen
data_NaAlH2CO5
_symmetry_space_group_name_H-M   'P 1'
_cell_length_a   5.64113000
_cell_length_b   6.78329400
_cell_length_c   10.51598000
_cell_angle_alpha   90.00000000
_cell_angle_beta   90.00000000
_cell_angle_gamma   90.00000000
_symmetry_Int_Tables_number   1
_chemical_formula_structural   NaAlH2CO5
_chemical_formula_sum   'Na4 Al4 H8 C4 O20'
_cell_volume   402.39863625
_cell_formula_units_Z   4
loop_
 _symmetry_equiv_pos_site_id
 _symmetry_equiv_pos_as_xyz
  1  'x, y, z'
loop_
 _atom_site_type_symbol
 _atom_site_label
 _atom_site_symmetry_multiplicity
 _atom_site_fract_x
 _atom_site_fract_y
 _atom_site_fract_z
 _atom_site_occupancy
  Na  Na0  1  0.75000000  0.25259500  0.74586100  1
  Na  Na1  1  0.75000000  0.75259500  0.75413900  1
  Na  Na2  1  0.25000000  0.75259500  0.24586100  1
  Na  Na3  1  0.25000000  0.25259500  0.25413900  1
  Al  Al4  1  0.50000000  0.00963600  0.00000000  1
  Al  Al5  1  0.00000000  0.00963600  0.00000000  1
  Al  Al6  1  0.00000000  0.50963600  0.50000000  1
  Al  Al7  1  0.50000000  0.50963600  0.50000000  1
  H  H8  1  0.25000000  0.80975950  0.53351550  1
  H  H9  1  0.25000000  0.30975950  0.96648450  1
  H  H10  1  0.25000000  0.71023350  0.96552050  1
  H  H11  1  0.25000000  0.21023350  0.53447950  1
  H  H12  1  0.75000000  0.30975950  0.03351550  1
  H  H13  1  0.75000000  0.80975950  0.46648450  1
  H  H14  1  0.75000000  0.21023350  0.46552050  1
  H  H15  1  0.75000000  0.71023350  0.03447950  1
  C  C16  1  0.25000000  0.00954200  0.75352400  1
  C  C17  1  0.25000000  0.50954200  0.74647600  1
  C  C18  1  0.75000000  0.50954200  0.25352400  1
  C  C19  1  0.75000000  0.00954200  0.24647600  1
  O  O20  1  0.25000000  0.51194800  0.86736700  1
  O  O21  1  0.25000000  0.01194800  0.63263300  1
  O  O22  1  0.04812550  0.00836050  0.81598650  1
  O  O23  1  0.45187450  0.50836050  0.68401350  1
  O  O24  1  0.04812550  0.50836050  0.68401350  1
  O  O25  1  0.45187450  0.00836050  0.81598650  1
  O  O26  1  0.75000000  0.82642500  0.97643600  1
  O  O27  1  0.75000000  0.32642500  0.52356400  1
  O  O28  1  0.75000000  0.69313900  0.52363300  1
  O  O29  1  0.75000000  0.19313900  0.97636700  1
  O  O30  1  0.75000000  0.01194800  0.36736700  1
  O  O31  1  0.75000000  0.51194800  0.13263300  1
  O  O32  1  0.54812550  0.50836050  0.31598650  1
  O  O33  1  0.95187450  0.00836050  0.18401350  1
  O  O34  1  0.54812550  0.00836050  0.18401350  1
  O  O35  1  0.95187450  0.50836050  0.31598650  1
  O  O36  1  0.25000000  0.32642500  0.47643600  1
  O  O37  1  0.25000000  0.82642500  0.02356400  1
  O  O38  1  0.25000000  0.19313900  0.02363300  1
  O  O39  1  0.25000000  0.69313900  0.47636700  1
