# generated using pymatgen
data_NaNb(CuS2)2
_symmetry_space_group_name_H-M   'P 1'
_cell_length_a   5.59511600
_cell_length_b   18.51395200
_cell_length_c   7.67298600
_cell_angle_alpha   90.00000000
_cell_angle_beta   90.00000000
_cell_angle_gamma   90.00000000
_symmetry_Int_Tables_number   1
_chemical_formula_structural   NaNb(CuS2)2
_chemical_formula_sum   'Na4 Nb4 Cu8 S16'
_cell_volume   794.82704138
_cell_formula_units_Z   4
loop_
 _symmetry_equiv_pos_site_id
 _symmetry_equiv_pos_as_xyz
  1  'x, y, z'
loop_
 _atom_site_type_symbol
 _atom_site_label
 _atom_site_symmetry_multiplicity
 _atom_site_fract_x
 _atom_site_fract_y
 _atom_site_fract_z
 _atom_site_occupancy
  Na  Na0  1  0.33286700  0.66972500  0.75000000  1
  Na  Na1  1  0.83286700  0.83027500  0.25000000  1
  Na  Na2  1  0.83286700  0.16972500  0.75000000  1
  Na  Na3  1  0.33286700  0.33027500  0.25000000  1
  Nb  Nb4  1  0.77725250  0.89001850  0.75000000  1
  Nb  Nb5  1  0.27725250  0.60998150  0.25000000  1
  Nb  Nb6  1  0.27725250  0.39001850  0.75000000  1
  Nb  Nb7  1  0.77725250  0.10998150  0.25000000  1
  Cu  Cu8  1  0.76126400  0.00000000  0.00000000  1
  Cu  Cu9  1  0.76126400  0.00000000  0.50000000  1
  Cu  Cu10  1  0.27496200  0.89592700  0.75000000  1
  Cu  Cu11  1  0.77496200  0.60407300  0.25000000  1
  Cu  Cu12  1  0.26126400  0.50000000  0.00000000  1
  Cu  Cu13  1  0.26126400  0.50000000  0.50000000  1
  Cu  Cu14  1  0.77496200  0.39592700  0.75000000  1
  Cu  Cu15  1  0.27496200  0.10407300  0.25000000  1
  S  S16  1  0.03336300  0.79389800  0.75000000  1
  S  S17  1  0.53336300  0.70610200  0.25000000  1
  S  S18  1  0.52888850  0.89595350  0.99259200  1
  S  S19  1  0.02888850  0.60404650  0.00740800  1
  S  S20  1  0.50861250  0.50410350  0.25000000  1
  S  S21  1  0.00861250  0.99589650  0.75000000  1
  S  S22  1  0.02888850  0.60404650  0.49259200  1
  S  S23  1  0.52888850  0.89595350  0.50740800  1
  S  S24  1  0.53336300  0.29389800  0.75000000  1
  S  S25  1  0.03336300  0.20610200  0.25000000  1
  S  S26  1  0.02888850  0.39595350  0.99259200  1
  S  S27  1  0.52888850  0.10404650  0.00740800  1
  S  S28  1  0.00861250  0.00410350  0.25000000  1
  S  S29  1  0.50861250  0.49589650  0.75000000  1
  S  S30  1  0.52888850  0.10404650  0.49259200  1
  S  S31  1  0.02888850  0.39595350  0.50740800  1
