# generated using pymatgen
data_FeBiO3
_symmetry_space_group_name_H-M   'P 1'
_cell_length_a   5.48223400
_cell_length_b   5.72990500
_cell_length_c   7.86436800
_cell_angle_alpha   90.00000000
_cell_angle_beta   90.00000000
_cell_angle_gamma   90.00000000
_symmetry_Int_Tables_number   1
_chemical_formula_structural   FeBiO3
_chemical_formula_sum   'Fe4 Bi4 O12'
_cell_volume   247.04087545
_cell_formula_units_Z   4
loop_
 _symmetry_equiv_pos_site_id
 _symmetry_equiv_pos_as_xyz
  1  'x, y, z'
loop_
 _atom_site_type_symbol
 _atom_site_label
 _atom_site_symmetry_multiplicity
 _atom_site_fract_x
 _atom_site_fract_y
 _atom_site_fract_z
 _atom_site_occupancy
  Fe  Fe0  1  0.00000000  0.50000000  0.00000000  1
  Fe  Fe1  1  0.50000000  0.00000000  0.50000000  1
  Fe  Fe2  1  0.00000000  0.50000000  0.50000000  1
  Fe  Fe3  1  0.50000000  0.00000000  0.00000000  1
  Bi  Bi4  1  0.98926350  0.94712350  0.75000000  1
  Bi  Bi5  1  0.48926350  0.55287650  0.25000000  1
  Bi  Bi6  1  0.01073650  0.05287650  0.25000000  1
  Bi  Bi7  1  0.51073650  0.44712350  0.75000000  1
  O  O8  1  0.90269950  0.47045750  0.25000000  1
  O  O9  1  0.09730050  0.52954250  0.75000000  1
  O  O10  1  0.40269950  0.02954250  0.75000000  1
  O  O11  1  0.59730050  0.97045750  0.25000000  1
  O  O12  1  0.80515850  0.19920150  0.54730400  1
  O  O13  1  0.69484150  0.69920150  0.95269600  1
  O  O14  1  0.19484150  0.80079850  0.04730400  1
  O  O15  1  0.30515850  0.30079850  0.45269600  1
  O  O16  1  0.80515850  0.19920150  0.95269600  1
  O  O17  1  0.19484150  0.80079850  0.45269600  1
  O  O18  1  0.69484150  0.69920150  0.54730400  1
  O  O19  1  0.30515850  0.30079850  0.04730400  1
