# generated using pymatgen
data_Cs3CdI5
_symmetry_space_group_name_H-M   'P 1'
_cell_length_a   10.33017500
_cell_length_b   12.10000600
_cell_length_c   15.32671800
_cell_angle_alpha   90.00000000
_cell_angle_beta   90.00000000
_cell_angle_gamma   90.00000000
_symmetry_Int_Tables_number   1
_chemical_formula_structural   Cs3CdI5
_chemical_formula_sum   'Cs12 Cd4 I20'
_cell_volume   1915.76586727
_cell_formula_units_Z   4
loop_
 _symmetry_equiv_pos_site_id
 _symmetry_equiv_pos_as_xyz
  1  'x, y, z'
loop_
 _atom_site_type_symbol
 _atom_site_label
 _atom_site_symmetry_multiplicity
 _atom_site_fract_x
 _atom_site_fract_y
 _atom_site_fract_z
 _atom_site_occupancy
  Cs  Cs0  1  0.57882900  0.98150500  0.32919100  1
  Cs  Cs1  1  0.92117100  0.48150500  0.82919100  1
  Cs  Cs2  1  0.57903700  0.75000000  0.05024300  1
  Cs  Cs3  1  0.92117100  0.01849500  0.82919100  1
  Cs  Cs4  1  0.42117100  0.01849500  0.67080900  1
  Cs  Cs5  1  0.07882900  0.98150500  0.17080900  1
  Cs  Cs6  1  0.07903700  0.75000000  0.44975700  1
  Cs  Cs7  1  0.57882900  0.51849500  0.32919100  1
  Cs  Cs8  1  0.07882900  0.51849500  0.17080900  1
  Cs  Cs9  1  0.42096300  0.25000000  0.94975700  1
  Cs  Cs10  1  0.92096300  0.25000000  0.55024300  1
  Cs  Cs11  1  0.42117100  0.48150500  0.67080900  1
  Cd  Cd12  1  0.68927100  0.75000000  0.60907900  1
  Cd  Cd13  1  0.18927100  0.75000000  0.89092100  1
  Cd  Cd14  1  0.31072900  0.25000000  0.39092100  1
  Cd  Cd15  1  0.81072900  0.25000000  0.10907900  1
  I  I16  1  0.95669600  0.75000000  0.99125700  1
  I  I17  1  0.04330400  0.25000000  0.00874300  1
  I  I18  1  0.45669600  0.75000000  0.50874300  1
  I  I19  1  0.63001300  0.75000000  0.78855800  1
  I  I20  1  0.54330400  0.25000000  0.49125700  1
  I  I21  1  0.67539100  0.25000000  0.76430700  1
  I  I22  1  0.13001300  0.75000000  0.71144200  1
  I  I23  1  0.82460900  0.75000000  0.26430700  1
  I  I24  1  0.31339700  0.55164700  0.93774400  1
  I  I25  1  0.17539100  0.25000000  0.73569300  1
  I  I26  1  0.81339700  0.94835300  0.56225600  1
  I  I27  1  0.81339700  0.55164700  0.56225600  1
  I  I28  1  0.31339700  0.94835300  0.93774400  1
  I  I29  1  0.32460900  0.75000000  0.23569300  1
  I  I30  1  0.68660300  0.44835300  0.06225600  1
  I  I31  1  0.18660300  0.05164700  0.43774400  1
  I  I32  1  0.18660300  0.44835300  0.43774400  1
  I  I33  1  0.86998700  0.25000000  0.28855800  1
  I  I34  1  0.36998700  0.25000000  0.21144200  1
  I  I35  1  0.68660300  0.05164700  0.06225600  1
