# generated using pymatgen
data_In2Sn3S7
_symmetry_space_group_name_H-M   'P 1'
_cell_length_a   11.49926900
_cell_length_b   3.84717600
_cell_length_c   13.08105731
_cell_angle_alpha   90.00000000
_cell_angle_beta   105.83980918
_cell_angle_gamma   90.00000000
_symmetry_Int_Tables_number   1
_chemical_formula_structural   In2Sn3S7
_chemical_formula_sum   'In4 Sn6 S14'
_cell_volume   556.72806035
_cell_formula_units_Z   2
loop_
 _symmetry_equiv_pos_site_id
 _symmetry_equiv_pos_as_xyz
  1  'x, y, z'
loop_
 _atom_site_type_symbol
 _atom_site_label
 _atom_site_symmetry_multiplicity
 _atom_site_fract_x
 _atom_site_fract_y
 _atom_site_fract_z
 _atom_site_occupancy
  In  In0  1  0.47713400  0.75000000  0.61558000  1
  In  In1  1  0.52286600  0.25000000  0.38442000  1
  In  In2  1  0.48696600  0.25000000  0.87698300  1
  In  In3  1  0.51303400  0.75000000  0.12301700  1
  Sn  Sn4  1  0.88793400  0.75000000  0.38717500  1
  Sn  Sn5  1  0.17402100  0.25000000  0.99165400  1
  Sn  Sn6  1  0.11206600  0.25000000  0.61282500  1
  Sn  Sn7  1  0.16855700  0.25000000  0.27973900  1
  Sn  Sn8  1  0.83144300  0.75000000  0.72026100  1
  Sn  Sn9  1  0.82597900  0.75000000  0.00834600  1
  S  S10  1  0.88189400  0.25000000  0.52865400  1
  S  S11  1  0.64080600  0.25000000  0.06423500  1
  S  S12  1  0.91130600  0.25000000  0.26303300  1
  S  S13  1  0.38857100  0.25000000  0.18115200  1
  S  S14  1  0.08869400  0.75000000  0.73696700  1
  S  S15  1  0.34571800  0.25000000  0.67212100  1
  S  S16  1  0.37930100  0.75000000  0.41282400  1
  S  S17  1  0.61142900  0.75000000  0.81884800  1
  S  S18  1  0.65428200  0.75000000  0.32787900  1
  S  S19  1  0.62069900  0.25000000  0.58717600  1
  S  S20  1  0.35919400  0.75000000  0.93576500  1
  S  S21  1  0.09789900  0.75000000  0.11722200  1
  S  S22  1  0.90210100  0.25000000  0.88277800  1
  S  S23  1  0.11810600  0.75000000  0.47134600  1
