# generated using pymatgen
data_U2(P2O7)3
_symmetry_space_group_name_H-M   'P 1'
_cell_length_a   8.58887400
_cell_length_b   11.14801000
_cell_length_c   20.90949172
_cell_angle_alpha   90.00000000
_cell_angle_beta   101.42953273
_cell_angle_gamma   90.00000000
_symmetry_Int_Tables_number   1
_chemical_formula_structural   U2(P2O7)3
_chemical_formula_sum   'U8 P24 O84'
_cell_volume   1962.35733160
_cell_formula_units_Z   4
loop_
 _symmetry_equiv_pos_site_id
 _symmetry_equiv_pos_as_xyz
  1  'x, y, z'
loop_
 _atom_site_type_symbol
 _atom_site_label
 _atom_site_symmetry_multiplicity
 _atom_site_fract_x
 _atom_site_fract_y
 _atom_site_fract_z
 _atom_site_occupancy
  U  U0  1  0.56728100  0.31310500  0.52370900  1
  U  U1  1  0.56728100  0.68689500  0.02370900  1
  U  U2  1  0.64737150  0.95451950  0.73979500  1
  U  U3  1  0.64737150  0.04548050  0.23979500  1
  U  U4  1  0.06728100  0.81310500  0.52370900  1
  U  U5  1  0.06728100  0.18689500  0.02370900  1
  U  U6  1  0.14737150  0.45451950  0.73979500  1
  U  U7  1  0.14737150  0.54548050  0.23979500  1
  P  P8  1  0.40811900  0.39138000  0.02839700  1
  P  P9  1  0.24961700  0.02093200  0.29153000  1
  P  P10  1  0.40811900  0.60862000  0.52839700  1
  P  P11  1  0.52175550  0.28321250  0.79086500  1
  P  P12  1  0.65813100  0.31953300  0.36818500  1
  P  P13  1  0.52175550  0.71678750  0.29086500  1
  P  P14  1  0.51260500  0.34567200  0.26248400  1
  P  P15  1  0.65813100  0.68046700  0.86818500  1
  P  P16  1  0.39462250  0.98152250  0.00003600  1
  P  P17  1  0.24961700  0.97906800  0.79153000  1
  P  P18  1  0.51260500  0.65432800  0.76248400  1
  P  P19  1  0.39462250  0.01847750  0.50003600  1
  P  P20  1  0.90811900  0.89138000  0.02839700  1
  P  P21  1  0.74961700  0.52093200  0.29153000  1
  P  P22  1  0.90811900  0.10862000  0.52839700  1
  P  P23  1  0.02175550  0.78321250  0.79086500  1
  P  P24  1  0.15813100  0.81953300  0.36818500  1
  P  P25  1  0.02175550  0.21678750  0.29086500  1
  P  P26  1  0.01260500  0.84567200  0.26248400  1
  P  P27  1  0.15813100  0.18046700  0.86818500  1
  P  P28  1  0.89462250  0.48152250  0.00003600  1
  P  P29  1  0.74961700  0.47906800  0.79153000  1
  P  P30  1  0.01260500  0.15432800  0.76248400  1
  P  P31  1  0.89462250  0.51847750  0.50003600  1
  O  O32  1  0.49638200  0.66189300  0.48086100  1
  O  O33  1  0.25756850  0.95405450  0.52015400  1
  O  O34  1  0.72350800  0.06216400  0.32610900  1
  O  O35  1  0.55458600  0.34992500  0.62159900  1
  O  O36  1  0.53233700  0.66217900  0.91069800  1
  O  O37  1  0.13034150  0.95094450  0.23832700  1
  O  O38  1  0.52479300  0.81973100  0.33409800  1
  O  O39  1  0.39308450  0.33547650  0.74136600  1
  O  O40  1  0.67683850  0.73549550  0.11920000  1
  O  O41  1  0.55223150  0.93505350  0.16185700  1
  O  O42  1  0.55458600  0.65007500  0.12159900  1
  O  O43  1  0.54660750  0.05958150  0.14210400  1
  O  O44  1  0.18840150  0.84034250  0.79176800  1
  O  O45  1  0.90830950  0.04201350  0.01265300  1
  O  O46  1  0.51540950  0.95535050  0.47257200  1
  O  O47  1  0.40872250  0.96968450  0.77487800  1
  O  O48  1  0.84582850  0.10330550  0.74819500  1
  O  O49  1  0.51540950  0.04464950  0.97257200  1
  O  O50  1  0.84582850  0.89669450  0.24819500  1
  O  O51  1  0.40872250  0.03031550  0.27487800  1
  O  O52  1  0.49638200  0.33810700  0.98086100  1
  O  O53  1  0.13034150  0.04905550  0.73832700  1
  O  O54  1  0.18840150  0.15965750  0.29176800  1
  O  O55  1  0.23177050  0.97429350  0.35908200  1
  O  O56  1  0.52479300  0.18026900  0.83409800  1
  O  O57  1  0.54506950  0.76690250  0.72631800  1
  O  O58  1  0.44893850  0.38441650  0.10099200  1
  O  O59  1  0.72453100  0.82323700  0.00894000  1
  O  O60  1  0.72350800  0.93783600  0.82610900  1
  O  O61  1  0.53233700  0.33782100  0.41069800  1
  O  O62  1  0.90830950  0.95798650  0.51265300  1
  O  O63  1  0.25756850  0.04594550  0.02015400  1
  O  O64  1  0.67683850  0.26450450  0.61920000  1
  O  O65  1  0.55223150  0.06494650  0.66185700  1
  O  O66  1  0.38944000  0.15298100  0.50822900  1
  O  O67  1  0.23177050  0.02570650  0.85908200  1
  O  O68  1  0.38944000  0.84701900  0.00822900  1
  O  O69  1  0.54506950  0.23309750  0.22631800  1
  O  O70  1  0.54660750  0.94041850  0.64210400  1
  O  O71  1  0.44893850  0.61558350  0.60099200  1
  O  O72  1  0.72453100  0.17676300  0.50894000  1
  O  O73  1  0.39308450  0.66452350  0.24136600  1
  O  O74  1  0.99638200  0.16189300  0.48086100  1
  O  O75  1  0.75756850  0.45405450  0.52015400  1
  O  O76  1  0.22350800  0.56216400  0.32610900  1
  O  O77  1  0.05458600  0.84992500  0.62159900  1
  O  O78  1  0.03233700  0.16217900  0.91069800  1
  O  O79  1  0.63034150  0.45094450  0.23832700  1
  O  O80  1  0.02479300  0.31973100  0.33409800  1
  O  O81  1  0.89308450  0.83547650  0.74136600  1
  O  O82  1  0.17683850  0.23549550  0.11920000  1
  O  O83  1  0.05223150  0.43505350  0.16185700  1
  O  O84  1  0.05458600  0.15007500  0.12159900  1
  O  O85  1  0.04660750  0.55958150  0.14210400  1
  O  O86  1  0.68840150  0.34034250  0.79176800  1
  O  O87  1  0.40830950  0.54201350  0.01265300  1
  O  O88  1  0.01540950  0.45535050  0.47257200  1
  O  O89  1  0.90872250  0.46968450  0.77487800  1
  O  O90  1  0.34582850  0.60330550  0.74819500  1
  O  O91  1  0.01540950  0.54464950  0.97257200  1
  O  O92  1  0.34582850  0.39669450  0.24819500  1
  O  O93  1  0.90872250  0.53031550  0.27487800  1
  O  O94  1  0.99638200  0.83810700  0.98086100  1
  O  O95  1  0.63034150  0.54905550  0.73832700  1
  O  O96  1  0.68840150  0.65965750  0.29176800  1
  O  O97  1  0.73177050  0.47429350  0.35908200  1
  O  O98  1  0.02479300  0.68026900  0.83409800  1
  O  O99  1  0.04506950  0.26690250  0.72631800  1
  O  O100  1  0.94893850  0.88441650  0.10099200  1
  O  O101  1  0.22453100  0.32323700  0.00894000  1
  O  O102  1  0.22350800  0.43783600  0.82610900  1
  O  O103  1  0.03233700  0.83782100  0.41069800  1
  O  O104  1  0.40830950  0.45798650  0.51265300  1
  O  O105  1  0.75756850  0.54594550  0.02015400  1
  O  O106  1  0.17683850  0.76450450  0.61920000  1
  O  O107  1  0.05223150  0.56494650  0.66185700  1
  O  O108  1  0.88944000  0.65298100  0.50822900  1
  O  O109  1  0.73177050  0.52570650  0.85908200  1
  O  O110  1  0.88944000  0.34701900  0.00822900  1
  O  O111  1  0.04506950  0.73309750  0.22631800  1
  O  O112  1  0.04660750  0.44041850  0.64210400  1
  O  O113  1  0.94893850  0.11558350  0.60099200  1
  O  O114  1  0.22453100  0.67676300  0.50894000  1
  O  O115  1  0.89308450  0.16452350  0.24136600  1
