# generated using pymatgen
data_Ce3Dy2O9
_symmetry_space_group_name_H-M   'P 1'
_cell_length_a   3.85616000
_cell_length_b   3.85616000
_cell_length_c   27.23046600
_cell_angle_alpha   90.00000000
_cell_angle_beta   90.00000000
_cell_angle_gamma   90.00000000
_symmetry_Int_Tables_number   1
_chemical_formula_structural   Ce3Dy2O9
_chemical_formula_sum   'Ce6 Dy4 O18'
_cell_volume   404.91621102
_cell_formula_units_Z   2
loop_
 _symmetry_equiv_pos_site_id
 _symmetry_equiv_pos_as_xyz
  1  'x, y, z'
loop_
 _atom_site_type_symbol
 _atom_site_label
 _atom_site_symmetry_multiplicity
 _atom_site_fract_x
 _atom_site_fract_y
 _atom_site_fract_z
 _atom_site_occupancy
  Ce  Ce0  1  0.50000000  0.00000000  0.14917000  1
  Ce  Ce1  1  0.50000000  0.00000000  0.35083000  1
  Ce  Ce2  1  0.00000000  0.50000000  0.25000000  1
  Ce  Ce3  1  0.00000000  0.50000000  0.64917000  1
  Ce  Ce4  1  0.00000000  0.50000000  0.85083000  1
  Ce  Ce5  1  0.50000000  0.00000000  0.75000000  1
  Dy  Dy6  1  0.00000000  0.50000000  0.44451800  1
  Dy  Dy7  1  0.00000000  0.50000000  0.05548200  1
  Dy  Dy8  1  0.50000000  0.00000000  0.94451800  1
  Dy  Dy9  1  0.50000000  0.00000000  0.55548200  1
  O  O10  1  0.50000000  0.50000000  0.10471300  1
  O  O11  1  0.00000000  0.00000000  0.19534300  1
  O  O12  1  0.50000000  0.50000000  0.30465700  1
  O  O13  1  0.00000000  0.00000000  0.39528700  1
  O  O14  1  0.50000000  0.50000000  0.40845500  1
  O  O15  1  0.50000000  0.50000000  0.00000000  1
  O  O16  1  0.00000000  0.00000000  0.09154500  1
  O  O17  1  0.50000000  0.50000000  0.20354000  1
  O  O18  1  0.00000000  0.00000000  0.29646000  1
  O  O19  1  0.00000000  0.00000000  0.60471300  1
  O  O20  1  0.50000000  0.50000000  0.69534300  1
  O  O21  1  0.00000000  0.00000000  0.80465700  1
  O  O22  1  0.50000000  0.50000000  0.89528700  1
  O  O23  1  0.00000000  0.00000000  0.90845500  1
  O  O24  1  0.00000000  0.00000000  0.50000000  1
  O  O25  1  0.50000000  0.50000000  0.59154500  1
  O  O26  1  0.00000000  0.00000000  0.70354000  1
  O  O27  1  0.50000000  0.50000000  0.79646000  1
