# generated using pymatgen
data_Ru(SCl3)4
_symmetry_space_group_name_H-M   'P 1'
_cell_length_a   11.30298300
_cell_length_b   12.56163800
_cell_length_c   16.51777472
_cell_angle_alpha   90.00000000
_cell_angle_beta   108.43400548
_cell_angle_gamma   90.00000000
_symmetry_Int_Tables_number   1
_chemical_formula_structural   Ru(SCl3)4
_chemical_formula_sum   'Ru4 S16 Cl48'
_cell_volume   2224.92064103
_cell_formula_units_Z   4
loop_
 _symmetry_equiv_pos_site_id
 _symmetry_equiv_pos_as_xyz
  1  'x, y, z'
loop_
 _atom_site_type_symbol
 _atom_site_label
 _atom_site_symmetry_multiplicity
 _atom_site_fract_x
 _atom_site_fract_y
 _atom_site_fract_z
 _atom_site_occupancy
  Ru  Ru0  1  0.29890000  0.72310500  0.20321500  1
  Ru  Ru1  1  0.70110000  0.22310500  0.29678500  1
  Ru  Ru2  1  0.29890000  0.77689500  0.70321500  1
  Ru  Ru3  1  0.70110000  0.27689500  0.79678500  1
  S  S4  1  0.49740500  0.22391500  0.78091200  1
  S  S5  1  0.98119900  0.41880300  0.98010000  1
  S  S6  1  0.50259500  0.72391500  0.71908800  1
  S  S7  1  0.98119900  0.08119700  0.48010000  1
  S  S8  1  0.01880100  0.58119700  0.01990000  1
  S  S9  1  0.01880100  0.91880300  0.51990000  1
  S  S10  1  0.34595400  0.93331800  0.77208800  1
  S  S11  1  0.34595400  0.56668200  0.27208800  1
  S  S12  1  0.50259500  0.77608500  0.21908800  1
  S  S13  1  0.29776900  0.69087800  0.82121700  1
  S  S14  1  0.70223100  0.19087800  0.67878300  1
  S  S15  1  0.49740500  0.27608500  0.28091200  1
  S  S16  1  0.65404600  0.43331800  0.72791200  1
  S  S17  1  0.65404600  0.06668200  0.22791200  1
  S  S18  1  0.70223100  0.30912200  0.17878300  1
  S  S19  1  0.29776900  0.80912200  0.32121700  1
  Cl  Cl20  1  0.36778800  0.17557000  0.19831300  1
  Cl  Cl21  1  0.28936500  0.89787400  0.58705600  1
  Cl  Cl22  1  0.45562900  0.90496900  0.37184100  1
  Cl  Cl23  1  0.45364400  0.24449700  0.38954300  1
  Cl  Cl24  1  0.54635600  0.74449700  0.11045700  1
  Cl  Cl25  1  0.92146700  0.29347200  0.84148900  1
  Cl  Cl26  1  0.00079900  0.93695600  0.92215000  1
  Cl  Cl27  1  0.84008100  0.88073900  0.50639900  1
  Cl  Cl28  1  0.28936500  0.60212600  0.08705600  1
  Cl  Cl29  1  0.83859600  0.42797800  0.20425000  1
  Cl  Cl30  1  0.96968200  0.29365000  0.62102100  1
  Cl  Cl31  1  0.29145300  0.61784500  0.62072000  1
  Cl  Cl32  1  0.63221200  0.82443000  0.80168700  1
  Cl  Cl33  1  0.70854700  0.11784500  0.87928000  1
  Cl  Cl34  1  0.54437100  0.09503100  0.62815900  1
  Cl  Cl35  1  0.19208400  0.03548500  0.75502300  1
  Cl  Cl36  1  0.15991900  0.38073900  0.99360100  1
  Cl  Cl37  1  0.45562900  0.59503100  0.87184100  1
  Cl  Cl38  1  0.70854700  0.38215500  0.37928000  1
  Cl  Cl39  1  0.16140400  0.92797800  0.29575000  1
  Cl  Cl40  1  0.54635600  0.75550300  0.61045700  1
  Cl  Cl41  1  0.92146700  0.20652800  0.34148900  1
  Cl  Cl42  1  0.96968200  0.20635000  0.12102100  1
  Cl  Cl43  1  0.15991900  0.11926100  0.49360100  1
  Cl  Cl44  1  0.16140400  0.57202200  0.79575000  1
  Cl  Cl45  1  0.84008100  0.61926100  0.00639900  1
  Cl  Cl46  1  0.07853300  0.70652800  0.15851100  1
  Cl  Cl47  1  0.60370000  0.41754400  0.59628000  1
  Cl  Cl48  1  0.80791600  0.53548500  0.74497700  1
  Cl  Cl49  1  0.19208400  0.46451500  0.25502300  1
  Cl  Cl50  1  0.36778800  0.32443000  0.69831300  1
  Cl  Cl51  1  0.99920100  0.06304400  0.07785000  1
  Cl  Cl52  1  0.54437100  0.40496900  0.12815900  1
  Cl  Cl53  1  0.80791600  0.96451500  0.24497700  1
  Cl  Cl54  1  0.03031800  0.79365000  0.87897900  1
  Cl  Cl55  1  0.63221200  0.67557000  0.30168700  1
  Cl  Cl56  1  0.07853300  0.79347200  0.65851100  1
  Cl  Cl57  1  0.39630000  0.58245600  0.40372000  1
  Cl  Cl58  1  0.45364400  0.25550300  0.88954300  1
  Cl  Cl59  1  0.71063500  0.10212600  0.41294400  1
  Cl  Cl60  1  0.99920100  0.43695600  0.57785000  1
  Cl  Cl61  1  0.71063500  0.39787400  0.91294400  1
  Cl  Cl62  1  0.60370000  0.08245600  0.09628000  1
  Cl  Cl63  1  0.03031800  0.70635000  0.37897900  1
  Cl  Cl64  1  0.83859600  0.07202200  0.70425000  1
  Cl  Cl65  1  0.00079900  0.56304400  0.42215000  1
  Cl  Cl66  1  0.39630000  0.91754400  0.90372000  1
  Cl  Cl67  1  0.29145300  0.88215500  0.12072000  1
