# generated using pymatgen
data_ZnH4SeO6
_symmetry_space_group_name_H-M   'P 1'
_cell_length_a   9.09416000
_cell_length_b   10.33076100
_cell_length_c   10.53141700
_cell_angle_alpha   90.00000000
_cell_angle_beta   90.00000000
_cell_angle_gamma   90.00000000
_symmetry_Int_Tables_number   1
_chemical_formula_structural   ZnH4SeO6
_chemical_formula_sum   'Zn8 H32 Se8 O48'
_cell_volume   989.42234566
_cell_formula_units_Z   8
loop_
 _symmetry_equiv_pos_site_id
 _symmetry_equiv_pos_as_xyz
  1  'x, y, z'
loop_
 _atom_site_type_symbol
 _atom_site_label
 _atom_site_symmetry_multiplicity
 _atom_site_fract_x
 _atom_site_fract_y
 _atom_site_fract_z
 _atom_site_occupancy
  Zn  Zn0  1  0.83569900  0.87204800  0.33110700  1
  Zn  Zn1  1  0.66430100  0.87204800  0.83110700  1
  Zn  Zn2  1  0.16430100  0.62795200  0.83110700  1
  Zn  Zn3  1  0.33569900  0.62795200  0.33110700  1
  Zn  Zn4  1  0.16430100  0.12795200  0.66889300  1
  Zn  Zn5  1  0.66430100  0.37204800  0.66889300  1
  Zn  Zn6  1  0.83569900  0.37204800  0.16889300  1
  Zn  Zn7  1  0.33569900  0.12795200  0.16889300  1
  H  H8  1  0.33107200  0.82453200  0.91249700  1
  H  H9  1  0.85229900  0.43882400  0.48343900  1
  H  H10  1  0.38182600  0.46101400  0.90477500  1
  H  H11  1  0.30812000  0.87040300  0.32608200  1
  H  H12  1  0.66892800  0.17546800  0.08750300  1
  H  H13  1  0.83107200  0.67546800  0.91249700  1
  H  H14  1  0.16892800  0.82453200  0.41249700  1
  H  H15  1  0.35229900  0.06117600  0.48343900  1
  H  H16  1  0.64770100  0.93882400  0.51656100  1
  H  H17  1  0.33107200  0.32453200  0.58750300  1
  H  H18  1  0.80812000  0.12959700  0.17391800  1
  H  H19  1  0.19188000  0.87040300  0.82608200  1
  H  H20  1  0.88182600  0.53898600  0.59522500  1
  H  H21  1  0.83107200  0.17546800  0.58750300  1
  H  H22  1  0.14770100  0.56117600  0.51656100  1
  H  H23  1  0.38182600  0.96101400  0.59522500  1
  H  H24  1  0.30812000  0.37040300  0.17391800  1
  H  H25  1  0.66892800  0.67546800  0.41249700  1
  H  H26  1  0.64770100  0.43882400  0.98343900  1
  H  H27  1  0.80812000  0.62959700  0.32608200  1
  H  H28  1  0.19188000  0.37040300  0.67391800  1
  H  H29  1  0.61817400  0.03898600  0.40477500  1
  H  H30  1  0.69188000  0.12959700  0.67391800  1
  H  H31  1  0.69188000  0.62959700  0.82608200  1
  H  H32  1  0.14770100  0.06117600  0.98343900  1
  H  H33  1  0.16892800  0.32453200  0.08750300  1
  H  H34  1  0.35229900  0.56117600  0.01656100  1
  H  H35  1  0.11817400  0.46101400  0.40477500  1
  H  H36  1  0.85229900  0.93882400  0.01656100  1
  H  H37  1  0.11817400  0.96101400  0.09522500  1
  H  H38  1  0.88182600  0.03898600  0.90477500  1
  H  H39  1  0.61817400  0.53898600  0.09522500  1
  Se  Se40  1  0.96839600  0.34578500  0.86477500  1
  Se  Se41  1  0.46839600  0.15421500  0.86477500  1
  Se  Se42  1  0.03160400  0.65421500  0.13522500  1
  Se  Se43  1  0.53160400  0.34578500  0.36477500  1
  Se  Se44  1  0.03160400  0.15421500  0.36477500  1
  Se  Se45  1  0.46839600  0.65421500  0.63522500  1
  Se  Se46  1  0.53160400  0.84578500  0.13522500  1
  Se  Se47  1  0.96839600  0.84578500  0.63522500  1
  O  O48  1  0.85536300  0.44875300  0.57595100  1
  O  O49  1  0.35536300  0.05124700  0.57595100  1
  O  O50  1  0.50303400  0.69513300  0.18896900  1
  O  O51  1  0.91131100  0.55575900  0.21064100  1
  O  O52  1  0.08868900  0.44424100  0.78935900  1
  O  O53  1  0.99696600  0.69513300  0.68896900  1
  O  O54  1  0.14463700  0.05124700  0.07595100  1
  O  O55  1  0.77373700  0.19200500  0.10854700  1
  O  O56  1  0.49959000  0.35564100  0.52190000  1
  O  O57  1  0.41131100  0.94424100  0.21064100  1
  O  O58  1  0.27373700  0.30799500  0.10854700  1
  O  O59  1  0.85536300  0.94875300  0.92404900  1
  O  O60  1  0.79422200  0.39124900  0.84002700  1
  O  O61  1  0.58868900  0.05575900  0.78935900  1
  O  O62  1  0.41131100  0.44424100  0.28935900  1
  O  O63  1  0.72626300  0.19200500  0.60854700  1
  O  O64  1  0.00303400  0.80486700  0.18896900  1
  O  O65  1  0.29422200  0.60875100  0.65997300  1
  O  O66  1  0.77373700  0.69200500  0.39145300  1
  O  O67  1  0.35536300  0.55124700  0.92404900  1
  O  O68  1  0.20577800  0.60875100  0.15997300  1
  O  O69  1  0.20577800  0.10875100  0.34002700  1
  O  O70  1  0.50041000  0.64435900  0.47810000  1
  O  O71  1  0.29422200  0.10875100  0.84002700  1
  O  O72  1  0.49959000  0.85564100  0.97810000  1
  O  O73  1  0.91131100  0.05575900  0.28935900  1
  O  O74  1  0.49696600  0.30486700  0.81103100  1
  O  O75  1  0.70577800  0.89124900  0.15997300  1
  O  O76  1  0.64463700  0.44875300  0.07595100  1
  O  O77  1  0.22626300  0.30799500  0.60854700  1
  O  O78  1  0.72626300  0.69200500  0.89145300  1
  O  O79  1  0.50303400  0.19513300  0.31103100  1
  O  O80  1  0.00041000  0.85564100  0.47810000  1
  O  O81  1  0.00303400  0.30486700  0.31103100  1
  O  O82  1  0.64463700  0.94875300  0.42404900  1
  O  O83  1  0.50041000  0.14435900  0.02190000  1
  O  O84  1  0.70577800  0.39124900  0.34002700  1
  O  O85  1  0.27373700  0.80799500  0.39145300  1
  O  O86  1  0.08868900  0.94424100  0.71064100  1
  O  O87  1  0.22626300  0.80799500  0.89145300  1
  O  O88  1  0.79422200  0.89124900  0.65997300  1
  O  O89  1  0.49696600  0.80486700  0.68896900  1
  O  O90  1  0.14463700  0.55124700  0.42404900  1
  O  O91  1  0.99959000  0.14435900  0.52190000  1
  O  O92  1  0.99696600  0.19513300  0.81103100  1
  O  O93  1  0.00041000  0.35564100  0.02190000  1
  O  O94  1  0.58868900  0.55575900  0.71064100  1
  O  O95  1  0.99959000  0.64435900  0.97810000  1
