# generated using pymatgen
data_La3SiAgSe7
_symmetry_space_group_name_H-M   'P 1'
_cell_length_a   10.91615159
_cell_length_b   10.91615159
_cell_length_c   6.12578400
_cell_angle_alpha   90.00000000
_cell_angle_beta   90.00000000
_cell_angle_gamma   120.00000000
_symmetry_Int_Tables_number   1
_chemical_formula_structural   La3SiAgSe7
_chemical_formula_sum   'La6 Si2 Ag2 Se14'
_cell_volume   632.16642595
_cell_formula_units_Z   2
loop_
 _symmetry_equiv_pos_site_id
 _symmetry_equiv_pos_as_xyz
  1  'x, y, z'
loop_
 _atom_site_type_symbol
 _atom_site_label
 _atom_site_symmetry_multiplicity
 _atom_site_fract_x
 _atom_site_fract_y
 _atom_site_fract_z
 _atom_site_occupancy
  La  La0  1  0.35723500  0.23257500  0.24018300  1
  La  La1  1  0.12466000  0.35723500  0.74018300  1
  La  La2  1  0.23257500  0.87534000  0.74018300  1
  La  La3  1  0.76742500  0.12466000  0.24018300  1
  La  La4  1  0.87534000  0.64276500  0.24018300  1
  La  La5  1  0.64276500  0.76742500  0.74018300  1
  Si  Si6  1  0.66666667  0.33333333  0.82993300  1
  Si  Si7  1  0.33333333  0.66666667  0.32993300  1
  Ag  Ag8  1  0.00000000  0.00000000  0.69381700  1
  Ag  Ag9  1  0.00000000  0.00000000  0.19381700  1
  Se  Se10  1  0.11127400  0.58813200  0.47739200  1
  Se  Se11  1  0.88872600  0.41186800  0.97739200  1
  Se  Se12  1  0.58813200  0.47685800  0.97739200  1
  Se  Se13  1  0.47685800  0.88872600  0.47739200  1
  Se  Se14  1  0.26777300  0.17525800  0.72615400  1
  Se  Se15  1  0.09251500  0.26777300  0.22615400  1
  Se  Se16  1  0.52314200  0.11127400  0.97739200  1
  Se  Se17  1  0.41186800  0.52314200  0.47739200  1
  Se  Se18  1  0.66666667  0.33333333  0.45891100  1
  Se  Se19  1  0.33333333  0.66666667  0.95891100  1
  Se  Se20  1  0.73222700  0.82474200  0.22615400  1
  Se  Se21  1  0.90748500  0.73222700  0.72615400  1
  Se  Se22  1  0.82474200  0.09251500  0.72615400  1
  Se  Se23  1  0.17525800  0.90748500  0.22615400  1
