# generated using pymatgen
data_MgIn2O4
_symmetry_space_group_name_H-M   'P 1'
_cell_length_a   10.98164200
_cell_length_b   6.43048200
_cell_length_c   26.20333953
_cell_angle_alpha   90.00000000
_cell_angle_beta   98.11359908
_cell_angle_gamma   90.00000000
_symmetry_Int_Tables_number   1
_chemical_formula_structural   MgIn2O4
_chemical_formula_sum   'Mg20 In40 O80'
_cell_volume   1831.88557392
_cell_formula_units_Z   20
loop_
 _symmetry_equiv_pos_site_id
 _symmetry_equiv_pos_as_xyz
  1  'x, y, z'
loop_
 _atom_site_type_symbol
 _atom_site_label
 _atom_site_symmetry_multiplicity
 _atom_site_fract_x
 _atom_site_fract_y
 _atom_site_fract_z
 _atom_site_occupancy
  Mg  Mg0  1  0.99805900  0.00000000  0.00023300  1
  Mg  Mg1  1  0.62219300  0.50000000  0.87439300  1
  Mg  Mg2  1  0.72494300  0.00000000  0.67492500  1
  Mg  Mg3  1  0.92500500  0.00000000  0.77461300  1
  Mg  Mg4  1  0.82495900  0.50000000  0.47493000  1
  Mg  Mg5  1  0.02498800  0.50000000  0.57491000  1
  Mg  Mg6  1  0.92497000  0.00000000  0.27492100  1
  Mg  Mg7  1  0.62496000  0.50000000  0.37488900  1
  Mg  Mg8  1  0.52509200  0.00000000  0.07546000  1
  Mg  Mg9  1  0.72500900  0.00000000  0.17503500  1
  Mg  Mg10  1  0.49805900  0.50000000  0.00023300  1
  Mg  Mg11  1  0.12219300  0.00000000  0.87439300  1
  Mg  Mg12  1  0.22494300  0.50000000  0.67492500  1
  Mg  Mg13  1  0.42500500  0.50000000  0.77461300  1
  Mg  Mg14  1  0.32495900  0.00000000  0.47493000  1
  Mg  Mg15  1  0.52498800  0.00000000  0.57491000  1
  Mg  Mg16  1  0.42497000  0.50000000  0.27492100  1
  Mg  Mg17  1  0.12496000  0.00000000  0.37488900  1
  Mg  Mg18  1  0.02509200  0.50000000  0.07546000  1
  Mg  Mg19  1  0.22500900  0.50000000  0.17503500  1
  In  In20  1  0.15355700  0.50000000  0.95059900  1
  In  In21  1  0.82610300  0.50000000  0.97699700  1
  In  In22  1  0.87668600  0.75455200  0.87442600  1
  In  In23  1  0.75303200  0.50000000  0.74926800  1
  In  In24  1  0.87668600  0.24544800  0.87442600  1
  In  In25  1  0.47502350  0.74991650  0.67488300  1
  In  In26  1  0.79702900  0.00000000  0.40082300  1
  In  In27  1  0.85283800  0.00000000  0.54900100  1
  In  In28  1  0.97502350  0.75008350  0.67488300  1
  In  In29  1  0.45280800  0.00000000  0.34900800  1
  In  In30  1  0.09675800  0.50000000  0.80049600  1
  In  In31  1  0.07497350  0.74996050  0.47490500  1
  In  In32  1  0.57497350  0.75003950  0.47490500  1
  In  In33  1  0.69708400  0.50000000  0.60077800  1
  In  In34  1  0.67497500  0.74990200  0.27488600  1
  In  In35  1  0.55271400  0.50000000  0.14868600  1
  In  In36  1  0.67497500  0.25009800  0.27488600  1
  In  In37  1  0.27509400  0.74986000  0.07551800  1
  In  In38  1  0.77509400  0.75014000  0.07551800  1
  In  In39  1  0.39718500  0.00000000  0.20096500  1
  In  In40  1  0.65355700  0.00000000  0.95059900  1
  In  In41  1  0.32610300  0.00000000  0.97699700  1
  In  In42  1  0.37668600  0.25455200  0.87442600  1
  In  In43  1  0.25303200  0.00000000  0.74926800  1
  In  In44  1  0.37668600  0.74544800  0.87442600  1
  In  In45  1  0.97502350  0.24991650  0.67488300  1
  In  In46  1  0.29702900  0.50000000  0.40082300  1
  In  In47  1  0.35283800  0.50000000  0.54900100  1
  In  In48  1  0.47502350  0.25008350  0.67488300  1
  In  In49  1  0.95280800  0.50000000  0.34900800  1
  In  In50  1  0.59675800  0.00000000  0.80049600  1
  In  In51  1  0.57497350  0.24996050  0.47490500  1
  In  In52  1  0.07497350  0.25003950  0.47490500  1
  In  In53  1  0.19708400  0.00000000  0.60077800  1
  In  In54  1  0.17497500  0.24990200  0.27488600  1
  In  In55  1  0.05271400  0.00000000  0.14868600  1
  In  In56  1  0.17497500  0.75009800  0.27488600  1
  In  In57  1  0.77509400  0.24986000  0.07551800  1
  In  In58  1  0.27509400  0.25014000  0.07551800  1
  In  In59  1  0.89718500  0.50000000  0.20096500  1
  O  O60  1  0.72713400  0.72923900  0.92199400  1
  O  O61  1  0.77388600  0.50000000  0.83093600  1
  O  O62  1  0.22713400  0.77076100  0.92199400  1
  O  O63  1  0.96387000  0.50000000  0.92290400  1
  O  O64  1  0.28758500  0.50000000  0.82469700  1
  O  O65  1  0.82930850  0.22616050  0.72368300  1
  O  O66  1  0.97624300  0.00000000  0.92059400  1
  O  O67  1  0.02145500  0.22627100  0.82600800  1
  O  O68  1  0.87293500  0.00000000  0.63043700  1
  O  O69  1  0.82930850  0.77383950  0.72368300  1
  O  O70  1  0.56168700  0.50000000  0.72481600  1
  O  O71  1  0.02145500  0.77372900  0.82600800  1
  O  O72  1  0.88844600  0.50000000  0.62531400  1
  O  O73  1  0.92924850  0.72618750  0.52366600  1
  O  O74  1  0.07701100  0.50000000  0.71951700  1
  O  O75  1  0.12088000  0.72626500  0.62646800  1
  O  O76  1  0.47293000  0.00000000  0.43044100  1
  O  O77  1  0.42924850  0.77381250  0.52366600  1
  O  O78  1  0.66154500  0.00000000  0.52479500  1
  O  O79  1  0.62088000  0.77373500  0.62646800  1
  O  O80  1  0.98842700  0.00000000  0.42532100  1
  O  O81  1  0.52925200  0.72618400  0.32365300  1
  O  O82  1  0.67707000  0.50000000  0.51962200  1
  O  O83  1  0.72082600  0.72621300  0.42647200  1
  O  O84  1  0.57289900  0.50000000  0.23030300  1
  O  O85  1  0.02925200  0.77381600  0.32365300  1
  O  O86  1  0.76150400  0.50000000  0.32478500  1
  O  O87  1  0.72082600  0.27378700  0.42647200  1
  O  O88  1  0.58847700  0.00000000  0.22536500  1
  O  O89  1  0.62940000  0.22553800  0.12381700  1
  O  O90  1  0.77703900  0.00000000  0.31965900  1
  O  O91  1  0.32086050  0.72622650  0.22648400  1
  O  O92  1  0.67256800  0.00000000  0.03046200  1
  O  O93  1  0.62940000  0.77446200  0.12381700  1
  O  O94  1  0.86126300  0.00000000  0.12497200  1
  O  O95  1  0.82086050  0.77377350  0.22648400  1
  O  O96  1  0.18173800  0.00000000  0.02634600  1
  O  O97  1  0.37726700  0.00000000  0.11991700  1
  O  O98  1  0.42304750  0.23531650  0.02707200  1
  O  O99  1  0.42304750  0.76468350  0.02707200  1
  O  O100  1  0.22713400  0.22923900  0.92199400  1
  O  O101  1  0.27388600  0.00000000  0.83093600  1
  O  O102  1  0.72713400  0.27076100  0.92199400  1
  O  O103  1  0.46387000  0.00000000  0.92290400  1
  O  O104  1  0.78758500  0.00000000  0.82469700  1
  O  O105  1  0.32930850  0.72616050  0.72368300  1
  O  O106  1  0.47624300  0.50000000  0.92059400  1
  O  O107  1  0.52145500  0.72627100  0.82600800  1
  O  O108  1  0.37293500  0.50000000  0.63043700  1
  O  O109  1  0.32930850  0.27383950  0.72368300  1
  O  O110  1  0.06168700  0.00000000  0.72481600  1
  O  O111  1  0.52145500  0.27372900  0.82600800  1
  O  O112  1  0.38844600  0.00000000  0.62531400  1
  O  O113  1  0.42924850  0.22618750  0.52366600  1
  O  O114  1  0.57701100  0.00000000  0.71951700  1
  O  O115  1  0.62088000  0.22626500  0.62646800  1
  O  O116  1  0.97293000  0.50000000  0.43044100  1
  O  O117  1  0.92924850  0.27381250  0.52366600  1
  O  O118  1  0.16154500  0.50000000  0.52479500  1
  O  O119  1  0.12088000  0.27373500  0.62646800  1
  O  O120  1  0.48842700  0.50000000  0.42532100  1
  O  O121  1  0.02925200  0.22618400  0.32365300  1
  O  O122  1  0.17707000  0.00000000  0.51962200  1
  O  O123  1  0.22082600  0.22621300  0.42647200  1
  O  O124  1  0.07289900  0.00000000  0.23030300  1
  O  O125  1  0.52925200  0.27381600  0.32365300  1
  O  O126  1  0.26150400  0.00000000  0.32478500  1
  O  O127  1  0.22082600  0.77378700  0.42647200  1
  O  O128  1  0.08847700  0.50000000  0.22536500  1
  O  O129  1  0.12940000  0.72553800  0.12381700  1
  O  O130  1  0.27703900  0.50000000  0.31965900  1
  O  O131  1  0.82086050  0.22622650  0.22648400  1
  O  O132  1  0.17256800  0.50000000  0.03046200  1
  O  O133  1  0.12940000  0.27446200  0.12381700  1
  O  O134  1  0.36126300  0.50000000  0.12497200  1
  O  O135  1  0.32086050  0.27377350  0.22648400  1
  O  O136  1  0.68173800  0.50000000  0.02634600  1
  O  O137  1  0.87726700  0.50000000  0.11991700  1
  O  O138  1  0.92304750  0.73531650  0.02707200  1
  O  O139  1  0.92304750  0.26468350  0.02707200  1
