# generated using pymatgen
data_K3ZnH5
_symmetry_space_group_name_H-M   'P 1'
_cell_length_a   7.58009000
_cell_length_b   7.58009000
_cell_length_c   11.21246800
_cell_angle_alpha   90.00000000
_cell_angle_beta   90.00000000
_cell_angle_gamma   90.00000000
_symmetry_Int_Tables_number   1
_chemical_formula_structural   K3ZnH5
_chemical_formula_sum   'K12 Zn4 H20'
_cell_volume   644.24334478
_cell_formula_units_Z   4
loop_
 _symmetry_equiv_pos_site_id
 _symmetry_equiv_pos_as_xyz
  1  'x, y, z'
loop_
 _atom_site_type_symbol
 _atom_site_label
 _atom_site_symmetry_multiplicity
 _atom_site_fract_x
 _atom_site_fract_y
 _atom_site_fract_z
 _atom_site_occupancy
  K  K0  1  0.68210200  0.18210200  0.00000000  1
  K  K1  1  0.31789800  0.81789800  0.00000000  1
  K  K2  1  0.81789800  0.68210200  0.00000000  1
  K  K3  1  0.18210200  0.31789800  0.00000000  1
  K  K4  1  0.00000000  0.00000000  0.25000000  1
  K  K5  1  0.50000000  0.50000000  0.25000000  1
  K  K6  1  0.18210200  0.68210200  0.50000000  1
  K  K7  1  0.81789800  0.31789800  0.50000000  1
  K  K8  1  0.31789800  0.18210200  0.50000000  1
  K  K9  1  0.68210200  0.81789800  0.50000000  1
  K  K10  1  0.50000000  0.50000000  0.75000000  1
  K  K11  1  0.00000000  0.00000000  0.75000000  1
  Zn  Zn12  1  0.50000000  0.00000000  0.25000000  1
  Zn  Zn13  1  0.00000000  0.50000000  0.25000000  1
  Zn  Zn14  1  0.00000000  0.50000000  0.75000000  1
  Zn  Zn15  1  0.50000000  0.00000000  0.75000000  1
  H  H16  1  0.62474950  0.12474950  0.33855450  1
  H  H17  1  0.37525050  0.87525050  0.33855450  1
  H  H18  1  0.87525050  0.62474950  0.33855450  1
  H  H19  1  0.12474950  0.37525050  0.33855450  1
  H  H20  1  0.87525050  0.37525050  0.16144550  1
  H  H21  1  0.12474950  0.62474950  0.16144550  1
  H  H22  1  0.62474950  0.87525050  0.16144550  1
  H  H23  1  0.37525050  0.12474950  0.16144550  1
  H  H24  1  0.50000000  0.50000000  0.00000000  1
  H  H25  1  0.00000000  0.00000000  0.00000000  1
  H  H26  1  0.12474950  0.62474950  0.83855450  1
  H  H27  1  0.87525050  0.37525050  0.83855450  1
  H  H28  1  0.37525050  0.12474950  0.83855450  1
  H  H29  1  0.62474950  0.87525050  0.83855450  1
  H  H30  1  0.37525050  0.87525050  0.66144550  1
  H  H31  1  0.62474950  0.12474950  0.66144550  1
  H  H32  1  0.12474950  0.37525050  0.66144550  1
  H  H33  1  0.87525050  0.62474950  0.66144550  1
  H  H34  1  0.00000000  0.00000000  0.50000000  1
  H  H35  1  0.50000000  0.50000000  0.50000000  1
