# generated using pymatgen
data_Al3Bi5Br12
_symmetry_space_group_name_H-M   'P 1'
_cell_length_a   12.58450616
_cell_length_b   12.58450616
_cell_length_c   31.86918791
_cell_angle_alpha   90.00000000
_cell_angle_beta   90.00000000
_cell_angle_gamma   120.00000000
_symmetry_Int_Tables_number   1
_chemical_formula_structural   Al3Bi5Br12
_chemical_formula_sum   'Al18 Bi30 Br72'
_cell_volume   4370.93133248
_cell_formula_units_Z   6
loop_
 _symmetry_equiv_pos_site_id
 _symmetry_equiv_pos_as_xyz
  1  'x, y, z'
loop_
 _atom_site_type_symbol
 _atom_site_label
 _atom_site_symmetry_multiplicity
 _atom_site_fract_x
 _atom_site_fract_y
 _atom_site_fract_z
 _atom_site_occupancy
  Al  Al0  1  0.00000000  0.48585000  0.25000000  1
  Al  Al1  1  0.51415000  0.51415000  0.25000000  1
  Al  Al2  1  0.66666667  0.84748333  0.08333333  1
  Al  Al3  1  0.18081667  0.33333333  0.08333333  1
  Al  Al4  1  0.48585000  0.00000000  0.25000000  1
  Al  Al5  1  0.15251667  0.81918333  0.08333333  1
  Al  Al6  1  0.66666667  0.81918333  0.58333333  1
  Al  Al7  1  0.18081667  0.84748333  0.58333333  1
  Al  Al8  1  0.33333333  0.18081667  0.41666667  1
  Al  Al9  1  0.84748333  0.66666667  0.41666667  1
  Al  Al10  1  0.15251667  0.33333333  0.58333333  1
  Al  Al11  1  0.81918333  0.15251667  0.41666667  1
  Al  Al12  1  0.33333333  0.15251667  0.91666667  1
  Al  Al13  1  0.84748333  0.18081667  0.91666667  1
  Al  Al14  1  0.00000000  0.51415000  0.75000000  1
  Al  Al15  1  0.51415000  0.00000000  0.75000000  1
  Al  Al16  1  0.81918333  0.66666667  0.91666667  1
  Al  Al17  1  0.48585000  0.48585000  0.75000000  1
  Bi  Bi18  1  0.00000000  0.00000000  0.32706900  1
  Bi  Bi19  1  0.66666667  0.33333333  0.16040233  1
  Bi  Bi20  1  0.66666667  0.33333333  0.00626433  1
  Bi  Bi21  1  0.66666667  0.48215033  0.08333333  1
  Bi  Bi22  1  0.81548367  0.33333333  0.08333333  1
  Bi  Bi23  1  0.51784967  0.18451633  0.08333333  1
  Bi  Bi24  1  0.00000000  0.85118300  0.25000000  1
  Bi  Bi25  1  0.00000000  0.00000000  0.17293100  1
  Bi  Bi26  1  0.85118300  0.00000000  0.25000000  1
  Bi  Bi27  1  0.14881700  0.14881700  0.25000000  1
  Bi  Bi28  1  0.66666667  0.33333333  0.66040233  1
  Bi  Bi29  1  0.33333333  0.66666667  0.49373567  1
  Bi  Bi30  1  0.33333333  0.66666667  0.33959767  1
  Bi  Bi31  1  0.33333333  0.81548367  0.41666667  1
  Bi  Bi32  1  0.48215033  0.66666667  0.41666667  1
  Bi  Bi33  1  0.18451633  0.51784967  0.41666667  1
  Bi  Bi34  1  0.66666667  0.18451633  0.58333333  1
  Bi  Bi35  1  0.66666667  0.33333333  0.50626433  1
  Bi  Bi36  1  0.51784967  0.33333333  0.58333333  1
  Bi  Bi37  1  0.81548367  0.48215033  0.58333333  1
  Bi  Bi38  1  0.33333333  0.66666667  0.99373567  1
  Bi  Bi39  1  0.00000000  0.00000000  0.82706900  1
  Bi  Bi40  1  0.00000000  0.00000000  0.67293100  1
  Bi  Bi41  1  0.00000000  0.14881700  0.75000000  1
  Bi  Bi42  1  0.14881700  0.00000000  0.75000000  1
  Bi  Bi43  1  0.85118300  0.85118300  0.75000000  1
  Bi  Bi44  1  0.33333333  0.51784967  0.91666667  1
  Bi  Bi45  1  0.33333333  0.66666667  0.83959767  1
  Bi  Bi46  1  0.18451633  0.66666667  0.91666667  1
  Bi  Bi47  1  0.48215033  0.81548367  0.91666667  1
  Br  Br48  1  0.41268200  0.40221100  0.30906600  1
  Br  Br49  1  0.54202833  0.71087767  0.26032367  1
  Br  Br50  1  0.67713767  0.74601533  0.02426733  1
  Br  Br51  1  0.83115067  0.28912233  0.23967633  1
  Br  Br52  1  0.06887767  0.32286233  0.02426733  1
  Br  Br53  1  0.45797167  0.16884933  0.23967633  1
  Br  Br54  1  0.20869500  0.16448400  0.09365700  1
  Br  Br55  1  0.26445567  0.92065133  0.14239933  1
  Br  Br56  1  0.59778900  0.01047100  0.30906600  1
  Br  Br57  1  0.95578900  0.79130500  0.09365700  1
  Br  Br58  1  0.07934867  0.34380433  0.14239933  1
  Br  Br59  1  0.01047100  0.59778900  0.19093400  1
  Br  Br60  1  0.37754433  0.50218267  0.07300967  1
  Br  Br61  1  0.16884933  0.45797167  0.26032367  1
  Br  Br62  1  0.58731800  0.98952900  0.19093400  1
  Br  Br63  1  0.12463833  0.62245567  0.07300967  1
  Br  Br64  1  0.83551600  0.04421100  0.09365700  1
  Br  Br65  1  0.40221100  0.41268200  0.19093400  1
  Br  Br66  1  0.28912233  0.83115067  0.26032367  1
  Br  Br67  1  0.49781733  0.87536167  0.07300967  1
  Br  Br68  1  0.25398467  0.93112233  0.02426733  1
  Br  Br69  1  0.98952900  0.58731800  0.30906600  1
  Br  Br70  1  0.71087767  0.54202833  0.23967633  1
  Br  Br71  1  0.65619567  0.73554433  0.14239933  1
  Br  Br72  1  0.07934867  0.73554433  0.64239933  1
  Br  Br73  1  0.20869500  0.04421100  0.59365700  1
  Br  Br74  1  0.34380433  0.07934867  0.35760067  1
  Br  Br75  1  0.49781733  0.62245567  0.57300967  1
  Br  Br76  1  0.73554433  0.65619567  0.35760067  1
  Br  Br77  1  0.12463833  0.50218267  0.57300967  1
  Br  Br78  1  0.87536167  0.49781733  0.42699033  1
  Br  Br79  1  0.93112233  0.25398467  0.47573267  1
  Br  Br80  1  0.26445567  0.34380433  0.64239933  1
  Br  Br81  1  0.62245567  0.12463833  0.42699033  1
  Br  Br82  1  0.74601533  0.67713767  0.47573267  1
  Br  Br83  1  0.67713767  0.93112233  0.52426733  1
  Br  Br84  1  0.04421100  0.83551600  0.40634300  1
  Br  Br85  1  0.83551600  0.79130500  0.59365700  1
  Br  Br86  1  0.25398467  0.32286233  0.52426733  1
  Br  Br87  1  0.79130500  0.95578900  0.40634300  1
  Br  Br88  1  0.50218267  0.37754433  0.42699033  1
  Br  Br89  1  0.06887767  0.74601533  0.52426733  1
  Br  Br90  1  0.95578900  0.16448400  0.59365700  1
  Br  Br91  1  0.16448400  0.20869500  0.40634300  1
  Br  Br92  1  0.92065133  0.26445567  0.35760067  1
  Br  Br93  1  0.65619567  0.92065133  0.64239933  1
  Br  Br94  1  0.37754433  0.87536167  0.57300967  1
  Br  Br95  1  0.32286233  0.06887767  0.47573267  1
  Br  Br96  1  0.74601533  0.06887767  0.97573267  1
  Br  Br97  1  0.87536167  0.37754433  0.92699033  1
  Br  Br98  1  0.01047100  0.41268200  0.69093400  1
  Br  Br99  1  0.16448400  0.95578900  0.90634300  1
  Br  Br100  1  0.40221100  0.98952900  0.69093400  1
  Br  Br101  1  0.79130500  0.83551600  0.90634300  1
  Br  Br102  1  0.54202833  0.83115067  0.76032367  1
  Br  Br103  1  0.59778900  0.58731800  0.80906600  1
  Br  Br104  1  0.93112233  0.67713767  0.97573267  1
  Br  Br105  1  0.28912233  0.45797167  0.76032367  1
  Br  Br106  1  0.41268200  0.01047100  0.80906600  1
  Br  Br107  1  0.34380433  0.26445567  0.85760067  1
  Br  Br108  1  0.71087767  0.16884933  0.73967633  1
  Br  Br109  1  0.50218267  0.12463833  0.92699033  1
  Br  Br110  1  0.92065133  0.65619567  0.85760067  1
  Br  Br111  1  0.45797167  0.28912233  0.73967633  1
  Br  Br112  1  0.16884933  0.71087767  0.76032367  1
  Br  Br113  1  0.73554433  0.07934867  0.85760067  1
  Br  Br114  1  0.62245567  0.49781733  0.92699033  1
  Br  Br115  1  0.83115067  0.54202833  0.73967633  1
  Br  Br116  1  0.58731800  0.59778900  0.69093400  1
  Br  Br117  1  0.32286233  0.25398467  0.97573267  1
  Br  Br118  1  0.04421100  0.20869500  0.90634300  1
  Br  Br119  1  0.98952900  0.40221100  0.80906600  1
