# generated using pymatgen
data_LiFeP2O7
_symmetry_space_group_name_H-M   'P 1'
_cell_length_a   9.64586200
_cell_length_b   8.16402000
_cell_length_c   13.41586990
_cell_angle_alpha   90.00000000
_cell_angle_beta   111.01694621
_cell_angle_gamma   90.00000000
_symmetry_Int_Tables_number   1
_chemical_formula_structural   LiFeP2O7
_chemical_formula_sum   'Li8 Fe8 P16 O56'
_cell_volume   986.20307168
_cell_formula_units_Z   8
loop_
 _symmetry_equiv_pos_site_id
 _symmetry_equiv_pos_as_xyz
  1  'x, y, z'
loop_
 _atom_site_type_symbol
 _atom_site_label
 _atom_site_symmetry_multiplicity
 _atom_site_fract_x
 _atom_site_fract_y
 _atom_site_fract_z
 _atom_site_occupancy
  Li  Li0  1  0.61167100  0.62295500  0.88122800  1
  Li  Li1  1  0.10480650  0.87380650  0.37840000  1
  Li  Li2  1  0.89519350  0.87380650  0.62160000  1
  Li  Li3  1  0.38832900  0.62295500  0.11877200  1
  Li  Li4  1  0.11167100  0.12295500  0.88122800  1
  Li  Li5  1  0.60480650  0.37380650  0.37840000  1
  Li  Li6  1  0.39519350  0.37380650  0.62160000  1
  Li  Li7  1  0.88832900  0.12295500  0.11877200  1
  Fe  Fe8  1  0.63761400  0.76266700  0.39187100  1
  Fe  Fe9  1  0.86238600  0.26266700  0.60812900  1
  Fe  Fe10  1  0.36059750  0.23611950  0.10664300  1
  Fe  Fe11  1  0.13940250  0.73611950  0.89335700  1
  Fe  Fe12  1  0.13761400  0.26266700  0.39187100  1
  Fe  Fe13  1  0.36238600  0.76266700  0.60812900  1
  Fe  Fe14  1  0.86059750  0.73611950  0.10664300  1
  Fe  Fe15  1  0.63940250  0.23611950  0.89335700  1
  P  P16  1  0.82895250  0.92403250  0.88451600  1
  P  P17  1  0.12270400  0.54355800  0.67512600  1
  P  P18  1  0.37729600  0.04355800  0.32487400  1
  P  P19  1  0.82744200  0.07530000  0.38594800  1
  P  P20  1  0.87497650  0.45621450  0.82257200  1
  P  P21  1  0.17104750  0.92403250  0.11548400  1
  P  P22  1  0.67255800  0.57530000  0.61405200  1
  P  P23  1  0.62502350  0.95621450  0.17742800  1
  P  P24  1  0.32895250  0.42403250  0.88451600  1
  P  P25  1  0.62270400  0.04355800  0.67512600  1
  P  P26  1  0.87729600  0.54355800  0.32487400  1
  P  P27  1  0.32744200  0.57530000  0.38594800  1
  P  P28  1  0.37497650  0.95621450  0.82257200  1
  P  P29  1  0.67104750  0.42403250  0.11548400  1
  P  P30  1  0.17255800  0.07530000  0.61405200  1
  P  P31  1  0.12502350  0.45621450  0.17742800  1
  O  O32  1  0.51322850  0.95304650  0.39458500  1
  O  O33  1  0.29202400  0.72057400  0.44510800  1
  O  O34  1  0.73894850  0.07175950  0.62359700  1
  O  O35  1  0.79952800  0.58841900  0.72806600  1
  O  O36  1  0.08304600  0.69733900  0.72558500  1
  O  O37  1  0.58396100  0.79966900  0.22615900  1
  O  O38  1  0.17906300  0.09093900  0.06236400  1
  O  O39  1  0.91695400  0.69733900  0.27441500  1
  O  O40  1  0.48490350  0.04570550  0.10424000  1
  O  O41  1  0.70503050  0.27802450  0.05359700  1
  O  O42  1  0.97699300  0.90883000  0.86581900  1
  O  O43  1  0.76105150  0.57175950  0.37640300  1
  O  O44  1  0.70047200  0.08841900  0.27193400  1
  O  O45  1  0.73832000  0.92747100  0.12407400  1
  O  O46  1  0.98677150  0.45304650  0.60541500  1
  O  O47  1  0.69927500  0.91178100  0.76993100  1
  O  O48  1  0.30072500  0.91178100  0.23006900  1
  O  O49  1  0.01509650  0.54570550  0.89576000  1
  O  O50  1  0.70797600  0.72057400  0.55489200  1
  O  O51  1  0.47587800  0.58933600  0.36725200  1
  O  O52  1  0.76168000  0.42747100  0.87592600  1
  O  O53  1  0.81919850  0.90773850  0.43545100  1
  O  O54  1  0.52412200  0.58933600  0.63274800  1
  O  O55  1  0.79496950  0.77802450  0.94640300  1
  O  O56  1  0.02300700  0.90883000  0.13418100  1
  O  O57  1  0.91603900  0.29966900  0.77384100  1
  O  O58  1  0.68080150  0.40773850  0.56454900  1
  O  O59  1  0.32093700  0.59093900  0.93763600  1
  O  O60  1  0.01322850  0.45304650  0.39458500  1
  O  O61  1  0.79202400  0.22057400  0.44510800  1
  O  O62  1  0.23894850  0.57175950  0.62359700  1
  O  O63  1  0.29952800  0.08841900  0.72806600  1
  O  O64  1  0.58304600  0.19733900  0.72558500  1
  O  O65  1  0.08396100  0.29966900  0.22615900  1
  O  O66  1  0.67906300  0.59093900  0.06236400  1
  O  O67  1  0.41695400  0.19733900  0.27441500  1
  O  O68  1  0.98490350  0.54570550  0.10424000  1
  O  O69  1  0.20503050  0.77802450  0.05359700  1
  O  O70  1  0.47699300  0.40883000  0.86581900  1
  O  O71  1  0.26105150  0.07175950  0.37640300  1
  O  O72  1  0.20047200  0.58841900  0.27193400  1
  O  O73  1  0.23832000  0.42747100  0.12407400  1
  O  O74  1  0.48677150  0.95304650  0.60541500  1
  O  O75  1  0.19927500  0.41178100  0.76993100  1
  O  O76  1  0.80072500  0.41178100  0.23006900  1
  O  O77  1  0.51509650  0.04570550  0.89576000  1
  O  O78  1  0.20797600  0.22057400  0.55489200  1
  O  O79  1  0.97587800  0.08933600  0.36725200  1
  O  O80  1  0.26168000  0.92747100  0.87592600  1
  O  O81  1  0.31919850  0.40773850  0.43545100  1
  O  O82  1  0.02412200  0.08933600  0.63274800  1
  O  O83  1  0.29496950  0.27802450  0.94640300  1
  O  O84  1  0.52300700  0.40883000  0.13418100  1
  O  O85  1  0.41603900  0.79966900  0.77384100  1
  O  O86  1  0.18080150  0.90773850  0.56454900  1
  O  O87  1  0.82093700  0.09093900  0.93763600  1
