# generated using pymatgen
data_Li2Ti(PO3)5
_symmetry_space_group_name_H-M   'P 1'
_cell_length_a   5.33308000
_cell_length_b   9.62162700
_cell_length_c   13.32584798
_cell_angle_alpha   90.00000000
_cell_angle_beta   109.01391211
_cell_angle_gamma   90.00000000
_symmetry_Int_Tables_number   1
_chemical_formula_structural   Li2Ti(PO3)5
_chemical_formula_sum   'Li4 Ti2 P10 O30'
_cell_volume   646.48017436
_cell_formula_units_Z   2
loop_
 _symmetry_equiv_pos_site_id
 _symmetry_equiv_pos_as_xyz
  1  'x, y, z'
loop_
 _atom_site_type_symbol
 _atom_site_label
 _atom_site_symmetry_multiplicity
 _atom_site_fract_x
 _atom_site_fract_y
 _atom_site_fract_z
 _atom_site_occupancy
  Li  Li0  1  0.06529200  0.39691900  0.93792700  1
  Li  Li1  1  0.94424800  0.58943100  0.07216700  1
  Li  Li2  1  0.06529200  0.60308100  0.43792700  1
  Li  Li3  1  0.94424800  0.41056900  0.57216700  1
  Ti  Ti4  1  0.99016600  0.00469800  0.99526800  1
  Ti  Ti5  1  0.99016600  0.99530200  0.49526800  1
  P  P6  1  0.48421400  0.52273600  0.86205400  1
  P  P7  1  0.98244100  0.01278400  0.24526600  1
  P  P8  1  0.98244100  0.98721600  0.74526600  1
  P  P9  1  0.39794100  0.17670300  0.40621900  1
  P  P10  1  0.58540600  0.81550400  0.58638500  1
  P  P11  1  0.48421400  0.47726400  0.36205400  1
  P  P12  1  0.52841100  0.47997200  0.14356300  1
  P  P13  1  0.39794100  0.82329700  0.90621900  1
  P  P14  1  0.52841100  0.52002800  0.64356300  1
  P  P15  1  0.58540600  0.18449600  0.08638500  1
  O  O16  1  0.72652200  0.86027600  0.50946900  1
  O  O17  1  0.23200600  0.11883000  0.28935100  1
  O  O18  1  0.51076400  0.57936200  0.75300600  1
  O  O19  1  0.01577100  0.06161500  0.65086000  1
  O  O20  1  0.65926100  0.65694800  0.60757800  1
  O  O21  1  0.34923500  0.33836500  0.39412700  1
  O  O22  1  0.68764000  0.85765100  0.93283000  1
  O  O23  1  0.01577100  0.93838500  0.15086000  1
  O  O24  1  0.29059400  0.16016000  0.05265700  1
  O  O25  1  0.76222300  0.49392500  0.43666800  1
  O  O26  1  0.28855800  0.59128600  0.34933000  1
  O  O27  1  0.28855800  0.40871400  0.84933000  1
  O  O28  1  0.72642500  0.11470200  0.20133400  1
  O  O29  1  0.25076400  0.49556400  0.06921300  1
  O  O30  1  0.25076400  0.50443600  0.56921300  1
  O  O31  1  0.26202700  0.87188400  0.98392200  1
  O  O32  1  0.29059400  0.83984000  0.55265700  1
  O  O33  1  0.68764000  0.14234900  0.43283000  1
  O  O34  1  0.72453100  0.59432500  0.15753600  1
  O  O35  1  0.95095900  0.06671700  0.83767000  1
  O  O36  1  0.34923500  0.66163500  0.89412700  1
  O  O37  1  0.95095900  0.93328300  0.33767000  1
  O  O38  1  0.72652200  0.13972400  0.00946900  1
  O  O39  1  0.76222300  0.50607500  0.93666800  1
  O  O40  1  0.65926100  0.34305200  0.10757800  1
  O  O41  1  0.72453100  0.40567500  0.65753600  1
  O  O42  1  0.72642500  0.88529800  0.70133400  1
  O  O43  1  0.51076400  0.42063800  0.25300600  1
  O  O44  1  0.23200600  0.88117000  0.78935100  1
  O  O45  1  0.26202700  0.12811600  0.48392200  1
