# generated using pymatgen
data_LiDy(PO3)4
_symmetry_space_group_name_H-M   'P 1'
_cell_length_a   16.44982600
_cell_length_b   7.13198600
_cell_length_c   9.70779369
_cell_angle_alpha   90.00000000
_cell_angle_beta   126.05515033
_cell_angle_gamma   90.00000000
_symmetry_Int_Tables_number   1
_chemical_formula_structural   LiDy(PO3)4
_chemical_formula_sum   'Li4 Dy4 P16 O48'
_cell_volume   920.75894637
_cell_formula_units_Z   4
loop_
 _symmetry_equiv_pos_site_id
 _symmetry_equiv_pos_as_xyz
  1  'x, y, z'
loop_
 _atom_site_type_symbol
 _atom_site_label
 _atom_site_symmetry_multiplicity
 _atom_site_fract_x
 _atom_site_fract_y
 _atom_site_fract_z
 _atom_site_occupancy
  Li  Li0  1  0.00000000  0.20681500  0.25000000  1
  Li  Li1  1  0.00000000  0.79318500  0.75000000  1
  Li  Li2  1  0.50000000  0.70681500  0.25000000  1
  Li  Li3  1  0.50000000  0.29318500  0.75000000  1
  Dy  Dy4  1  0.00000000  0.70394200  0.25000000  1
  Dy  Dy5  1  0.00000000  0.29605800  0.75000000  1
  Dy  Dy6  1  0.50000000  0.20394200  0.25000000  1
  Dy  Dy7  1  0.50000000  0.79605800  0.75000000  1
  P  P8  1  0.85472150  0.35012550  0.30660600  1
  P  P9  1  0.64527850  0.85012550  0.19339400  1
  P  P10  1  0.14527850  0.64987450  0.69339400  1
  P  P11  1  0.35472150  0.14987450  0.80660600  1
  P  P12  1  0.86300000  0.94886300  0.38366200  1
  P  P13  1  0.63700000  0.44886300  0.11633800  1
  P  P14  1  0.13700000  0.05113700  0.61633800  1
  P  P15  1  0.36300000  0.55113700  0.88366200  1
  P  P16  1  0.35472150  0.85012550  0.30660600  1
  P  P17  1  0.14527850  0.35012550  0.19339400  1
  P  P18  1  0.64527850  0.14987450  0.69339400  1
  P  P19  1  0.85472150  0.64987450  0.80660600  1
  P  P20  1  0.36300000  0.44886300  0.38366200  1
  P  P21  1  0.13700000  0.94886300  0.11633800  1
  P  P22  1  0.63700000  0.55113700  0.61633800  1
  P  P23  1  0.86300000  0.05113700  0.88366200  1
  O  O24  1  0.87535150  0.38338750  0.47684400  1
  O  O25  1  0.62464850  0.88338750  0.02315600  1
  O  O26  1  0.12464850  0.61661250  0.52315600  1
  O  O27  1  0.37535150  0.11661250  0.97684400  1
  O  O28  1  0.92804900  0.41771600  0.27298400  1
  O  O29  1  0.07195100  0.41771600  0.22701600  1
  O  O30  1  0.07195100  0.58228400  0.72701600  1
  O  O31  1  0.92804900  0.58228400  0.77298400  1
  O  O32  1  0.38858800  0.71164900  0.81572400  1
  O  O33  1  0.11141200  0.21164900  0.68427600  1
  O  O34  1  0.61141200  0.28835100  0.18427600  1
  O  O35  1  0.88858800  0.78835100  0.31572400  1
  O  O36  1  0.93331500  0.00447900  0.07105000  1
  O  O37  1  0.06668500  0.00447900  0.42895000  1
  O  O38  1  0.06668500  0.99552100  0.92895000  1
  O  O39  1  0.93331500  0.99552100  0.57105000  1
  O  O40  1  0.25464950  0.57911250  0.84688400  1
  O  O41  1  0.24535050  0.07911250  0.65311600  1
  O  O42  1  0.74535050  0.42088750  0.15311600  1
  O  O43  1  0.75464950  0.92088750  0.34688400  1
  O  O44  1  0.34463500  0.37273200  0.76761200  1
  O  O45  1  0.15536500  0.87273200  0.73238800  1
  O  O46  1  0.65536500  0.62726800  0.23238800  1
  O  O47  1  0.84463500  0.12726800  0.26761200  1
  O  O48  1  0.37535150  0.88338750  0.47684400  1
  O  O49  1  0.12464850  0.38338750  0.02315600  1
  O  O50  1  0.62464850  0.11661250  0.52315600  1
  O  O51  1  0.87535150  0.61661250  0.97684400  1
  O  O52  1  0.42804900  0.91771600  0.27298400  1
  O  O53  1  0.57195100  0.91771600  0.22701600  1
  O  O54  1  0.57195100  0.08228400  0.72701600  1
  O  O55  1  0.42804900  0.08228400  0.77298400  1
  O  O56  1  0.88858800  0.21164900  0.81572400  1
  O  O57  1  0.61141200  0.71164900  0.68427600  1
  O  O58  1  0.11141200  0.78835100  0.18427600  1
  O  O59  1  0.38858800  0.28835100  0.31572400  1
  O  O60  1  0.43331500  0.50447900  0.07105000  1
  O  O61  1  0.56668500  0.50447900  0.42895000  1
  O  O62  1  0.56668500  0.49552100  0.92895000  1
  O  O63  1  0.43331500  0.49552100  0.57105000  1
  O  O64  1  0.75464950  0.07911250  0.84688400  1
  O  O65  1  0.74535050  0.57911250  0.65311600  1
  O  O66  1  0.24535050  0.92088750  0.15311600  1
  O  O67  1  0.25464950  0.42088750  0.34688400  1
  O  O68  1  0.84463500  0.87273200  0.76761200  1
  O  O69  1  0.65536500  0.37273200  0.73238800  1
  O  O70  1  0.15536500  0.12726800  0.23238800  1
  O  O71  1  0.34463500  0.62726800  0.26761200  1
