# generated using pymatgen
data_NaH9O5
_symmetry_space_group_name_H-M   'P 1'
_cell_length_a   4.36494000
_cell_length_b   8.10098792
_cell_length_c   9.12585227
_cell_angle_alpha   70.65222970
_cell_angle_beta   76.18798829
_cell_angle_gamma   75.24448764
_symmetry_Int_Tables_number   1
_chemical_formula_structural   NaH9O5
_chemical_formula_sum   'Na2 H18 O10'
_cell_volume   290.18423642
_cell_formula_units_Z   2
loop_
 _symmetry_equiv_pos_site_id
 _symmetry_equiv_pos_as_xyz
  1  'x, y, z'
loop_
 _atom_site_type_symbol
 _atom_site_label
 _atom_site_symmetry_multiplicity
 _atom_site_fract_x
 _atom_site_fract_y
 _atom_site_fract_z
 _atom_site_occupancy
  Na  Na0  1  0.54645500  0.69900000  0.22439500  1
  Na  Na1  1  0.41159200  0.24539000  0.84465800  1
  H  H2  1  0.03074000  0.09951500  0.23987800  1
  H  H3  1  0.13674500  0.82971400  0.64832500  1
  H  H4  1  0.33101200  0.89762400  0.75196100  1
  H  H5  1  0.54397700  0.48900800  0.02810100  1
  H  H6  1  0.74748400  0.35502300  0.16428300  1
  H  H7  1  0.25003800  0.62720900  0.84224800  1
  H  H8  1  0.04194400  0.50675400  0.98454500  1
  H  H9  1  0.53778100  0.05223600  0.16118000  1
  H  H10  1  0.80001400  0.93169500  0.81015300  1
  H  H11  1  0.53352200  0.95164300  0.97156700  1
  H  H12  1  0.01789700  0.79322400  0.23073700  1
  H  H13  1  0.12765100  0.46553100  0.35544100  1
  H  H14  1  0.89973900  0.46596300  0.68895000  1
  H  H15  1  0.02207900  0.30935300  0.61564500  1
  H  H16  1  0.38136700  0.27665000  0.38159700  1
  H  H17  1  0.95280800  0.21641000  0.35612000  1
  H  H18  1  0.93713800  0.70908000  0.47672200  1
  H  H19  1  0.68252500  0.79304800  0.60144200  1
  O  O20  1  0.84355700  0.16588600  0.30040600  1
  O  O21  1  0.18815000  0.92982900  0.67206900  1
  O  O22  1  0.70851100  0.48054200  0.09144400  1
  O  O23  1  0.26766600  0.51090500  0.91978800  1
  O  O24  1  0.38616200  0.01951800  0.11704400  1
  O  O25  1  0.58087000  0.91744800  0.86705500  1
  O  O26  1  0.00357900  0.68142900  0.31425100  1
  O  O27  1  0.93708100  0.33352100  0.71952600  1
  O  O28  1  0.15837200  0.33313400  0.41254600  1
  O  O29  1  0.88850700  0.70972900  0.59467800  1
