# generated using pymatgen
data_K2CoH4(SeO5)2
_symmetry_space_group_name_H-M   'P 1'
_cell_length_a   5.64279002
_cell_length_b   6.70537384
_cell_length_c   7.74687225
_cell_angle_alpha   112.90425936
_cell_angle_beta   96.88111909
_cell_angle_gamma   104.35298875
_symmetry_Int_Tables_number   1
_chemical_formula_structural   K2CoH4(SeO5)2
_chemical_formula_sum   'K2 Co1 H4 Se2 O10'
_cell_volume   253.78119253
_cell_formula_units_Z   1
loop_
 _symmetry_equiv_pos_site_id
 _symmetry_equiv_pos_as_xyz
  1  'x, y, z'
loop_
 _atom_site_type_symbol
 _atom_site_label
 _atom_site_symmetry_multiplicity
 _atom_site_fract_x
 _atom_site_fract_y
 _atom_site_fract_z
 _atom_site_occupancy
  K  K0  1  0.27386525  0.42513175  0.26067625  1
  K  K1  1  0.72613475  0.57486825  0.73932375  1
  Co  Co2  1  0.00000000  0.00000000  0.00000000  1
  H  H3  1  0.84920900  0.22582300  0.61677675  1
  H  H4  1  0.15079100  0.77417700  0.38322325  1
  H  H5  1  0.13574975  0.27828225  0.69468875  1
  H  H6  1  0.86425025  0.72171775  0.30531125  1
  Se  Se7  1  0.36599200  0.91971700  0.77349950  1
  Se  Se8  1  0.63400800  0.08028300  0.22650050  1
  O  O9  1  0.15465700  0.81569500  0.91252725  1
  O  O10  1  0.84534300  0.18430500  0.08747275  1
  O  O11  1  0.64591800  0.82912900  0.91784500  1
  O  O12  1  0.35408200  0.17087100  0.08215500  1
  O  O13  1  0.38808050  0.20324850  0.66559275  1
  O  O14  1  0.61191950  0.79675150  0.33440725  1
  O  O15  1  0.27105500  0.80383600  0.61594850  1
  O  O16  1  0.72894500  0.19616400  0.38405150  1
  O  O17  1  0.96928125  0.27023675  0.71790925  1
  O  O18  1  0.03071875  0.72976325  0.28209075  1
