# generated using pymatgen
data_UF6
_symmetry_space_group_name_H-M   'P 1'
_cell_length_a   5.26017100
_cell_length_b   9.82187500
_cell_length_c   10.78268200
_cell_angle_alpha   90.00000000
_cell_angle_beta   90.00000000
_cell_angle_gamma   90.00000000
_symmetry_Int_Tables_number   1
_chemical_formula_structural   UF6
_chemical_formula_sum   'U4 F24'
_cell_volume   557.08448404
_cell_formula_units_Z   4
loop_
 _symmetry_equiv_pos_site_id
 _symmetry_equiv_pos_as_xyz
  1  'x, y, z'
loop_
 _atom_site_type_symbol
 _atom_site_label
 _atom_site_symmetry_multiplicity
 _atom_site_fract_x
 _atom_site_fract_y
 _atom_site_fract_z
 _atom_site_occupancy
  U  U0  1  0.06241900  0.75000000  0.09735800  1
  U  U1  1  0.43758100  0.75000000  0.59735800  1
  U  U2  1  0.56241900  0.25000000  0.40264200  1
  U  U3  1  0.93758100  0.25000000  0.90264200  1
  F  F4  1  0.70615700  0.39431500  0.83201200  1
  F  F5  1  0.79384300  0.10568500  0.33201200  1
  F  F6  1  0.23649300  0.75000000  0.43725000  1
  F  F7  1  0.76350700  0.25000000  0.56275000  1
  F  F8  1  0.20615700  0.60568500  0.66798800  1
  F  F9  1  0.20615700  0.89431500  0.66798800  1
  F  F10  1  0.70615700  0.10568500  0.83201200  1
  F  F11  1  0.29384300  0.60568500  0.16798800  1
  F  F12  1  0.82926800  0.60672300  0.02578300  1
  F  F13  1  0.79384300  0.39431500  0.33201200  1
  F  F14  1  0.26350700  0.75000000  0.93725000  1
  F  F15  1  0.17073200  0.39327700  0.97421700  1
  F  F16  1  0.65247600  0.75000000  0.75281200  1
  F  F17  1  0.73649300  0.25000000  0.06275000  1
  F  F18  1  0.84752400  0.75000000  0.25281200  1
  F  F19  1  0.82926800  0.89327700  0.02578300  1
  F  F20  1  0.67073200  0.89327700  0.52578300  1
  F  F21  1  0.15247600  0.25000000  0.74718800  1
  F  F22  1  0.17073200  0.10672300  0.97421700  1
  F  F23  1  0.32926800  0.39327700  0.47421700  1
  F  F24  1  0.34752400  0.25000000  0.24718800  1
  F  F25  1  0.67073200  0.60672300  0.52578300  1
  F  F26  1  0.29384300  0.89431500  0.16798800  1
  F  F27  1  0.32926800  0.10672300  0.47421700  1
