# generated using pymatgen
data_CdPbO3
_symmetry_space_group_name_H-M   'P 1'
_cell_length_a   10.54616600
_cell_length_b   10.56063400
_cell_length_c   10.83620800
_cell_angle_alpha   90.00000000
_cell_angle_beta   90.00000000
_cell_angle_gamma   90.00000000
_symmetry_Int_Tables_number   1
_chemical_formula_structural   CdPbO3
_chemical_formula_sum   'Cd16 Pb16 O48'
_cell_volume   1206.87398868
_cell_formula_units_Z   16
loop_
 _symmetry_equiv_pos_site_id
 _symmetry_equiv_pos_as_xyz
  1  'x, y, z'
loop_
 _atom_site_type_symbol
 _atom_site_label
 _atom_site_symmetry_multiplicity
 _atom_site_fract_x
 _atom_site_fract_y
 _atom_site_fract_z
 _atom_site_occupancy
  Cd  Cd0  1  0.25000000  0.21517900  0.00000000  1
  Cd  Cd1  1  0.00000000  0.50000000  0.00000000  1
  Cd  Cd2  1  0.25000000  0.78482100  0.50000000  1
  Cd  Cd3  1  0.00000000  0.00000000  0.50000000  1
  Cd  Cd4  1  0.25000000  0.71517900  0.00000000  1
  Cd  Cd5  1  0.00000000  0.00000000  0.00000000  1
  Cd  Cd6  1  0.25000000  0.28482100  0.50000000  1
  Cd  Cd7  1  0.50000000  0.00000000  0.00000000  1
  Cd  Cd8  1  0.75000000  0.71517900  0.50000000  1
  Cd  Cd9  1  0.50000000  0.00000000  0.50000000  1
  Cd  Cd10  1  0.75000000  0.28482100  0.00000000  1
  Cd  Cd11  1  0.50000000  0.50000000  0.00000000  1
  Cd  Cd12  1  0.75000000  0.21517900  0.50000000  1
  Cd  Cd13  1  0.50000000  0.50000000  0.50000000  1
  Cd  Cd14  1  0.75000000  0.78482100  0.00000000  1
  Cd  Cd15  1  0.00000000  0.50000000  0.50000000  1
  Pb  Pb16  1  0.78700600  0.50000000  0.25000000  1
  Pb  Pb17  1  0.50000000  0.75000000  0.28528200  1
  Pb  Pb18  1  0.00000000  0.25000000  0.28528200  1
  Pb  Pb19  1  0.21299400  0.00000000  0.25000000  1
  Pb  Pb20  1  0.28700600  0.50000000  0.25000000  1
  Pb  Pb21  1  0.00000000  0.75000000  0.21471800  1
  Pb  Pb22  1  0.50000000  0.25000000  0.21471800  1
  Pb  Pb23  1  0.71299400  0.00000000  0.25000000  1
  Pb  Pb24  1  0.28700600  0.00000000  0.75000000  1
  Pb  Pb25  1  0.00000000  0.25000000  0.78528200  1
  Pb  Pb26  1  0.50000000  0.75000000  0.78528200  1
  Pb  Pb27  1  0.71299400  0.50000000  0.75000000  1
  Pb  Pb28  1  0.78700600  0.00000000  0.75000000  1
  Pb  Pb29  1  0.50000000  0.25000000  0.71471800  1
  Pb  Pb30  1  0.00000000  0.75000000  0.71471800  1
  Pb  Pb31  1  0.21299400  0.50000000  0.75000000  1
  O  O32  1  0.36577400  0.09704100  0.14752200  1
  O  O33  1  0.90644650  0.36021550  0.14022250  1
  O  O34  1  0.09355350  0.13978450  0.14022250  1
  O  O35  1  0.36577400  0.90295900  0.35247800  1
  O  O36  1  0.36121300  0.13174900  0.60217300  1
  O  O37  1  0.13878700  0.13174900  0.39782700  1
  O  O38  1  0.86121300  0.36825100  0.39782700  1
  O  O39  1  0.59355350  0.86021550  0.14022250  1
  O  O40  1  0.36577400  0.40295900  0.64752200  1
  O  O41  1  0.36577400  0.59704100  0.85247800  1
  O  O42  1  0.59355350  0.36021550  0.85977750  1
  O  O43  1  0.86121300  0.13174900  0.89782700  1
  O  O44  1  0.63878700  0.36825100  0.60217300  1
  O  O45  1  0.90644650  0.13978450  0.64022250  1
  O  O46  1  0.13422600  0.90295900  0.64752200  1
  O  O47  1  0.13422600  0.09704100  0.85247800  1
  O  O48  1  0.63878700  0.13174900  0.10217300  1
  O  O49  1  0.90644650  0.63978450  0.35977750  1
  O  O50  1  0.36121300  0.36825100  0.10217300  1
  O  O51  1  0.13878700  0.36825100  0.89782700  1
  O  O52  1  0.13422600  0.59704100  0.14752200  1
  O  O53  1  0.40644650  0.36021550  0.35977750  1
  O  O54  1  0.59355350  0.13978450  0.35977750  1
  O  O55  1  0.13422600  0.40295900  0.35247800  1
  O  O56  1  0.86577400  0.59704100  0.64752200  1
  O  O57  1  0.40644650  0.86021550  0.64022250  1
  O  O58  1  0.59355350  0.63978450  0.64022250  1
  O  O59  1  0.86577400  0.40295900  0.85247800  1
  O  O60  1  0.86121300  0.63174900  0.10217300  1
  O  O61  1  0.63878700  0.63174900  0.89782700  1
  O  O62  1  0.36121300  0.86825100  0.89782700  1
  O  O63  1  0.09355350  0.36021550  0.64022250  1
  O  O64  1  0.86577400  0.90295900  0.14752200  1
  O  O65  1  0.86577400  0.09704100  0.35247800  1
  O  O66  1  0.09355350  0.86021550  0.35977750  1
  O  O67  1  0.36121300  0.63174900  0.39782700  1
  O  O68  1  0.13878700  0.86825100  0.10217300  1
  O  O69  1  0.40644650  0.63978450  0.14022250  1
  O  O70  1  0.63422600  0.40295900  0.14752200  1
  O  O71  1  0.63422600  0.59704100  0.35247800  1
  O  O72  1  0.13878700  0.63174900  0.60217300  1
  O  O73  1  0.40644650  0.13978450  0.85977750  1
  O  O74  1  0.86121300  0.86825100  0.60217300  1
  O  O75  1  0.63878700  0.86825100  0.39782700  1
  O  O76  1  0.63422600  0.09704100  0.64752200  1
  O  O77  1  0.90644650  0.86021550  0.85977750  1
  O  O78  1  0.09355350  0.63978450  0.85977750  1
  O  O79  1  0.63422600  0.90295900  0.85247800  1
