# generated using pymatgen
data_RbNiW(OF)3
_symmetry_space_group_name_H-M   'P 1'
_cell_length_a   10.24580047
_cell_length_b   10.53374689
_cell_length_c   7.39280251
_cell_angle_alpha   90.00000000
_cell_angle_beta   133.32083520
_cell_angle_gamma   90.00000000
_symmetry_Int_Tables_number   1
_chemical_formula_structural   RbNiW(OF)3
_chemical_formula_sum   'Rb4 Ni4 W4 O12 F12'
_cell_volume   580.47670250
_cell_formula_units_Z   4
loop_
 _symmetry_equiv_pos_site_id
 _symmetry_equiv_pos_as_xyz
  1  'x, y, z'
loop_
 _atom_site_type_symbol
 _atom_site_label
 _atom_site_symmetry_multiplicity
 _atom_site_fract_x
 _atom_site_fract_y
 _atom_site_fract_z
 _atom_site_occupancy
  Rb  Rb0  1  0.50000000  0.13751600  0.75000000  1
  Rb  Rb1  1  0.00000000  0.36248400  0.25000000  1
  Rb  Rb2  1  0.00000000  0.63751600  0.75000000  1
  Rb  Rb3  1  0.50000000  0.86248400  0.25000000  1
  Ni  Ni4  1  0.50000000  0.50000000  0.50000000  1
  Ni  Ni5  1  0.00000000  0.00000000  0.00000000  1
  Ni  Ni6  1  0.00000000  0.00000000  0.50000000  1
  Ni  Ni7  1  0.50000000  0.50000000  0.00000000  1
  W  W8  1  0.25000000  0.75000000  0.50000000  1
  W  W9  1  0.25000000  0.25000000  0.00000000  1
  W  W10  1  0.75000000  0.25000000  0.50000000  1
  W  W11  1  0.75000000  0.75000000  0.00000000  1
  O  O12  1  0.00000000  0.30405500  0.75000000  1
  O  O13  1  0.50000000  0.19594500  0.25000000  1
  O  O14  1  0.18852700  0.12215100  0.10208800  1
  O  O15  1  0.31147300  0.62215100  0.39791200  1
  O  O16  1  0.31147300  0.37784900  0.89791200  1
  O  O17  1  0.18852700  0.87784900  0.60208800  1
  O  O18  1  0.50000000  0.80405500  0.75000000  1
  O  O19  1  0.00000000  0.69594500  0.25000000  1
  O  O20  1  0.68852700  0.62215100  0.10208800  1
  O  O21  1  0.81147300  0.12215100  0.39791200  1
  O  O22  1  0.81147300  0.87784900  0.89791200  1
  O  O23  1  0.68852700  0.37784900  0.60208800  1
  F  F24  1  0.00000000  0.07964450  0.25000000  1
  F  F25  1  0.50000000  0.42035550  0.75000000  1
  F  F26  1  0.28781500  0.63336500  0.74593600  1
  F  F27  1  0.28781500  0.36663500  0.24593600  1
  F  F28  1  0.21218500  0.13336500  0.75406400  1
  F  F29  1  0.21218500  0.86663500  0.25406400  1
  F  F30  1  0.50000000  0.57964450  0.25000000  1
  F  F31  1  0.00000000  0.92035550  0.75000000  1
  F  F32  1  0.78781500  0.13336500  0.74593600  1
  F  F33  1  0.78781500  0.86663500  0.24593600  1
  F  F34  1  0.71218500  0.63336500  0.75406400  1
  F  F35  1  0.71218500  0.36663500  0.25406400  1
