# generated using pymatgen
data_KH3SO6
_symmetry_space_group_name_H-M   'P 1'
_cell_length_a   18.48440000
_cell_length_b   7.74957400
_cell_length_c   7.56573309
_cell_angle_alpha   90.00000000
_cell_angle_beta   91.06790169
_cell_angle_gamma   90.00000000
_symmetry_Int_Tables_number   1
_chemical_formula_structural   KH3SO6
_chemical_formula_sum   'K8 H24 S8 O48'
_cell_volume   1083.57447095
_cell_formula_units_Z   8
loop_
 _symmetry_equiv_pos_site_id
 _symmetry_equiv_pos_as_xyz
  1  'x, y, z'
loop_
 _atom_site_type_symbol
 _atom_site_label
 _atom_site_symmetry_multiplicity
 _atom_site_fract_x
 _atom_site_fract_y
 _atom_site_fract_z
 _atom_site_occupancy
  K  K0  1  0.68056400  0.87863600  0.37686400  1
  K  K1  1  0.81943600  0.37863600  0.12313600  1
  K  K2  1  0.81943600  0.62136400  0.62313600  1
  K  K3  1  0.68056400  0.12136400  0.87686400  1
  K  K4  1  0.18056400  0.37863600  0.37686400  1
  K  K5  1  0.31943600  0.87863600  0.12313600  1
  K  K6  1  0.31943600  0.12136400  0.62313600  1
  K  K7  1  0.18056400  0.62136400  0.87686400  1
  H  H8  1  0.54248950  0.17563450  0.54319000  1
  H  H9  1  0.95751050  0.67563450  0.95681000  1
  H  H10  1  0.95751050  0.32436550  0.45681000  1
  H  H11  1  0.54248950  0.82436550  0.04319000  1
  H  H12  1  0.95427450  0.86874050  0.62269100  1
  H  H13  1  0.54572550  0.36874050  0.87730900  1
  H  H14  1  0.54572550  0.63125950  0.37730900  1
  H  H15  1  0.95427450  0.13125950  0.12269100  1
  H  H16  1  0.95015300  0.81067900  0.42632400  1
  H  H17  1  0.54984700  0.31067900  0.07367600  1
  H  H18  1  0.54984700  0.68932100  0.57367600  1
  H  H19  1  0.95015300  0.18932100  0.92632400  1
  H  H20  1  0.04248950  0.67563450  0.54319000  1
  H  H21  1  0.45751050  0.17563450  0.95681000  1
  H  H22  1  0.45751050  0.82436550  0.45681000  1
  H  H23  1  0.04248950  0.32436550  0.04319000  1
  H  H24  1  0.45427450  0.36874050  0.62269100  1
  H  H25  1  0.04572550  0.86874050  0.87730900  1
  H  H26  1  0.04572550  0.13125950  0.37730900  1
  H  H27  1  0.45427450  0.63125950  0.12269100  1
  H  H28  1  0.45015300  0.31067900  0.42632400  1
  H  H29  1  0.04984700  0.81067900  0.07367600  1
  H  H30  1  0.04984700  0.18932100  0.57367600  1
  H  H31  1  0.45015300  0.68932100  0.92632400  1
  S  S32  1  0.65255300  0.35995100  0.35494200  1
  S  S33  1  0.84744700  0.85995100  0.14505800  1
  S  S34  1  0.84744700  0.14004900  0.64505800  1
  S  S35  1  0.65255300  0.64004900  0.85494200  1
  S  S36  1  0.15255300  0.85995100  0.35494200  1
  S  S37  1  0.34744700  0.35995100  0.14505800  1
  S  S38  1  0.34744700  0.64004900  0.64505800  1
  S  S39  1  0.15255300  0.14004900  0.85494200  1
  O  O40  1  0.59266500  0.12135300  0.53812900  1
  O  O41  1  0.90733500  0.62135300  0.96187100  1
  O  O42  1  0.90733500  0.37864700  0.46187100  1
  O  O43  1  0.59266500  0.87864700  0.03812900  1
  O  O44  1  0.63939550  0.27429550  0.55438700  1
  O  O45  1  0.86060450  0.77429550  0.94561300  1
  O  O46  1  0.86060450  0.22570450  0.44561300  1
  O  O47  1  0.63939550  0.72570450  0.05438700  1
  O  O48  1  0.58087650  0.41279950  0.28874600  1
  O  O49  1  0.91912350  0.91279950  0.21125400  1
  O  O50  1  0.91912350  0.08720050  0.71125400  1
  O  O51  1  0.58087650  0.58720050  0.78874600  1
  O  O52  1  0.68542800  0.22523800  0.24790300  1
  O  O53  1  0.81457200  0.72523800  0.25209700  1
  O  O54  1  0.81457200  0.27476200  0.75209700  1
  O  O55  1  0.68542800  0.77476200  0.74790300  1
  O  O56  1  0.70068900  0.50024800  0.40781900  1
  O  O57  1  0.79931100  0.00024800  0.09218100  1
  O  O58  1  0.79931100  0.99975200  0.59218100  1
  O  O59  1  0.70068900  0.49975200  0.90781900  1
  O  O60  1  0.96028450  0.76659850  0.54664100  1
  O  O61  1  0.53971550  0.26659850  0.95335900  1
  O  O62  1  0.53971550  0.73340150  0.45335900  1
  O  O63  1  0.96028450  0.23340150  0.04664100  1
  O  O64  1  0.09266500  0.62135300  0.53812900  1
  O  O65  1  0.40733500  0.12135300  0.96187100  1
  O  O66  1  0.40733500  0.87864700  0.46187100  1
  O  O67  1  0.09266500  0.37864700  0.03812900  1
  O  O68  1  0.13939550  0.77429550  0.55438700  1
  O  O69  1  0.36060450  0.27429550  0.94561300  1
  O  O70  1  0.36060450  0.72570450  0.44561300  1
  O  O71  1  0.13939550  0.22570450  0.05438700  1
  O  O72  1  0.08087650  0.91279950  0.28874600  1
  O  O73  1  0.41912350  0.41279950  0.21125400  1
  O  O74  1  0.41912350  0.58720050  0.71125400  1
  O  O75  1  0.08087650  0.08720050  0.78874600  1
  O  O76  1  0.18542800  0.72523800  0.24790300  1
  O  O77  1  0.31457200  0.22523800  0.25209700  1
  O  O78  1  0.31457200  0.77476200  0.75209700  1
  O  O79  1  0.18542800  0.27476200  0.74790300  1
  O  O80  1  0.20068900  0.00024800  0.40781900  1
  O  O81  1  0.29931100  0.50024800  0.09218100  1
  O  O82  1  0.29931100  0.49975200  0.59218100  1
  O  O83  1  0.20068900  0.99975200  0.90781900  1
  O  O84  1  0.46028450  0.26659850  0.54664100  1
  O  O85  1  0.03971550  0.76659850  0.95335900  1
  O  O86  1  0.03971550  0.23340150  0.45335900  1
  O  O87  1  0.46028450  0.73340150  0.04664100  1
