# generated using pymatgen
data_H22IrC3(N3O4)2
_symmetry_space_group_name_H-M   'P 1'
_cell_length_a   9.70501300
_cell_length_b   10.42605300
_cell_length_c   13.47259500
_cell_angle_alpha   90.00000000
_cell_angle_beta   90.00000000
_cell_angle_gamma   90.00000000
_symmetry_Int_Tables_number   1
_chemical_formula_structural   H22IrC3(N3O4)2
_chemical_formula_sum   'H88 Ir4 C12 N24 O32'
_cell_volume   1363.22425433
_cell_formula_units_Z   4
loop_
 _symmetry_equiv_pos_site_id
 _symmetry_equiv_pos_as_xyz
  1  'x, y, z'
loop_
 _atom_site_type_symbol
 _atom_site_label
 _atom_site_symmetry_multiplicity
 _atom_site_fract_x
 _atom_site_fract_y
 _atom_site_fract_z
 _atom_site_occupancy
  H  H0  1  0.64705200  0.00690200  0.83335000  1
  H  H1  1  0.35294800  0.99309800  0.83335000  1
  H  H2  1  0.14705200  0.49309800  0.66665000  1
  H  H3  1  0.85294800  0.50690200  0.66665000  1
  H  H4  1  0.35294800  0.99309800  0.16665000  1
  H  H5  1  0.64705200  0.00690200  0.16665000  1
  H  H6  1  0.85294800  0.50690200  0.33335000  1
  H  H7  1  0.14705200  0.49309800  0.33335000  1
  H  H8  1  0.59703300  0.85426100  0.85100600  1
  H  H9  1  0.40296700  0.14573900  0.85100600  1
  H  H10  1  0.09703300  0.64573900  0.64899400  1
  H  H11  1  0.90296700  0.35426100  0.64899400  1
  H  H12  1  0.40296700  0.14573900  0.14899400  1
  H  H13  1  0.59703300  0.85426100  0.14899400  1
  H  H14  1  0.90296700  0.35426100  0.35100600  1
  H  H15  1  0.09703300  0.64573900  0.35100600  1
  H  H16  1  0.72843200  0.91407700  0.91544100  1
  H  H17  1  0.27156800  0.08592300  0.91544100  1
  H  H18  1  0.22843200  0.58592300  0.58455900  1
  H  H19  1  0.77156800  0.41407700  0.58455900  1
  H  H20  1  0.27156800  0.08592300  0.08455900  1
  H  H21  1  0.72843200  0.91407700  0.08455900  1
  H  H22  1  0.77156800  0.41407700  0.41544100  1
  H  H23  1  0.22843200  0.58592300  0.41544100  1
  H  H24  1  0.55085700  0.23910600  0.93939100  1
  H  H25  1  0.44914300  0.76089400  0.93939100  1
  H  H26  1  0.05085700  0.26089400  0.56060900  1
  H  H27  1  0.94914300  0.73910600  0.56060900  1
  H  H28  1  0.44914300  0.76089400  0.06060900  1
  H  H29  1  0.55085700  0.23910600  0.06060900  1
  H  H30  1  0.94914300  0.73910600  0.43939100  1
  H  H31  1  0.05085700  0.26089400  0.43939100  1
  H  H32  1  0.68821600  0.18105800  0.00000000  1
  H  H33  1  0.31178400  0.81894200  0.00000000  1
  H  H34  1  0.18821600  0.31894200  0.50000000  1
  H  H35  1  0.81178400  0.68105800  0.50000000  1
  H  H36  1  0.01896600  0.35150800  0.84019400  1
  H  H37  1  0.98103400  0.64849200  0.84019400  1
  H  H38  1  0.51896600  0.14849200  0.65980600  1
  H  H39  1  0.48103400  0.85150800  0.65980600  1
  H  H40  1  0.98103400  0.64849200  0.15980600  1
  H  H41  1  0.01896600  0.35150800  0.15980600  1
  H  H42  1  0.48103400  0.85150800  0.34019400  1
  H  H43  1  0.51896600  0.14849200  0.34019400  1
  H  H44  1  0.91572200  0.27841000  0.92208100  1
  H  H45  1  0.08427800  0.72159000  0.92208100  1
  H  H46  1  0.41572200  0.22159000  0.57791900  1
  H  H47  1  0.58427800  0.77841000  0.57791900  1
  H  H48  1  0.08427800  0.72159000  0.07791900  1
  H  H49  1  0.91572200  0.27841000  0.07791900  1
  H  H50  1  0.58427800  0.77841000  0.42208100  1
  H  H51  1  0.41572200  0.22159000  0.42208100  1
  H  H52  1  0.85330800  0.39575100  0.85277500  1
  H  H53  1  0.14669200  0.60424900  0.85277500  1
  H  H54  1  0.35330800  0.10424900  0.64722500  1
  H  H55  1  0.64669200  0.89575100  0.64722500  1
  H  H56  1  0.14669200  0.60424900  0.14722500  1
  H  H57  1  0.85330800  0.39575100  0.14722500  1
  H  H58  1  0.64669200  0.89575100  0.35277500  1
  H  H59  1  0.35330800  0.10424900  0.35277500  1
  H  H60  1  0.74682700  0.57149600  0.93877700  1
  H  H61  1  0.25317300  0.42850400  0.93877700  1
  H  H62  1  0.24682700  0.92850400  0.56122300  1
  H  H63  1  0.75317300  0.07149600  0.56122300  1
  H  H64  1  0.25317300  0.42850400  0.06122300  1
  H  H65  1  0.74682700  0.57149600  0.06122300  1
  H  H66  1  0.75317300  0.07149600  0.43877700  1
  H  H67  1  0.24682700  0.92850400  0.43877700  1
  H  H68  1  0.82400400  0.69059500  0.00000000  1
  H  H69  1  0.17599600  0.30940500  0.00000000  1
  H  H70  1  0.32400400  0.80940500  0.50000000  1
  H  H71  1  0.67599600  0.19059500  0.50000000  1
  H  H72  1  0.76746500  0.14901100  0.73007400  1
  H  H73  1  0.23253500  0.85098900  0.73007400  1
  H  H74  1  0.26746500  0.35098900  0.76992600  1
  H  H75  1  0.73253500  0.64901100  0.76992600  1
  H  H76  1  0.23253500  0.85098900  0.26992600  1
  H  H77  1  0.76746500  0.14901100  0.26992600  1
  H  H78  1  0.73253500  0.64901100  0.23007400  1
  H  H79  1  0.26746500  0.35098900  0.23007400  1
  H  H80  1  0.66096100  0.24172000  0.78449900  1
  H  H81  1  0.33903900  0.75828000  0.78449900  1
  H  H82  1  0.16096100  0.25828000  0.71550100  1
  H  H83  1  0.83903900  0.74172000  0.71550100  1
  H  H84  1  0.33903900  0.75828000  0.21550100  1
  H  H85  1  0.66096100  0.24172000  0.21550100  1
  H  H86  1  0.83903900  0.74172000  0.28449900  1
  H  H87  1  0.16096100  0.25828000  0.28449900  1
  Ir  Ir88  1  0.50000000  0.00000000  0.00000000  1
  Ir  Ir89  1  0.00000000  0.50000000  0.50000000  1
  Ir  Ir90  1  0.00000000  0.50000000  0.00000000  1
  Ir  Ir91  1  0.50000000  0.00000000  0.50000000  1
  C  C92  1  0.99835900  0.07537700  0.00000000  1
  C  C93  1  0.00164100  0.92462300  0.00000000  1
  C  C94  1  0.49835900  0.42462300  0.50000000  1
  C  C95  1  0.50164100  0.57537700  0.50000000  1
  C  C96  1  0.52332400  0.42807800  0.82716900  1
  C  C97  1  0.47667600  0.57192200  0.82716900  1
  C  C98  1  0.02332400  0.07192200  0.67283100  1
  C  C99  1  0.97667600  0.92807800  0.67283100  1
  C  C100  1  0.47667600  0.57192200  0.17283100  1
  C  C101  1  0.52332400  0.42807800  0.17283100  1
  C  C102  1  0.97667600  0.92807800  0.32716900  1
  C  C103  1  0.02332400  0.07192200  0.32716900  1
  N  N104  1  0.63289900  0.93562500  0.88607100  1
  N  N105  1  0.36710100  0.06437500  0.88607100  1
  N  N106  1  0.13289900  0.56437500  0.61392900  1
  N  N107  1  0.86710100  0.43562500  0.61392900  1
  N  N108  1  0.36710100  0.06437500  0.11392900  1
  N  N109  1  0.63289900  0.93562500  0.11392900  1
  N  N110  1  0.86710100  0.43562500  0.38607100  1
  N  N111  1  0.13289900  0.56437500  0.38607100  1
  N  N112  1  0.58236100  0.18654600  0.00000000  1
  N  N113  1  0.41763900  0.81345400  0.00000000  1
  N  N114  1  0.08236100  0.31345400  0.50000000  1
  N  N115  1  0.91763900  0.68654600  0.50000000  1
  N  N116  1  0.93978100  0.36634100  0.89047900  1
  N  N117  1  0.06021900  0.63365900  0.89047900  1
  N  N118  1  0.43978100  0.13365900  0.60952100  1
  N  N119  1  0.56021900  0.86634100  0.60952100  1
  N  N120  1  0.06021900  0.63365900  0.10952100  1
  N  N121  1  0.93978100  0.36634100  0.10952100  1
  N  N122  1  0.56021900  0.86634100  0.39047900  1
  N  N123  1  0.43978100  0.13365900  0.39047900  1
  N  N124  1  0.80618600  0.59241500  0.00000000  1
  N  N125  1  0.19381400  0.40758500  0.00000000  1
  N  N126  1  0.30618600  0.90758500  0.50000000  1
  N  N127  1  0.69381400  0.09241500  0.50000000  1
  O  O128  1  0.88050200  0.12826000  0.00000000  1
  O  O129  1  0.11949800  0.87174000  0.00000000  1
  O  O130  1  0.38050200  0.37174000  0.50000000  1
  O  O131  1  0.61949800  0.62826000  0.50000000  1
  O  O132  1  0.11281800  0.13422700  0.00000000  1
  O  O133  1  0.88718200  0.86577300  0.00000000  1
  O  O134  1  0.61281800  0.36577300  0.50000000  1
  O  O135  1  0.38718200  0.63422700  0.50000000  1
  O  O136  1  0.65212900  0.40580300  0.82472700  1
  O  O137  1  0.34787100  0.59419700  0.82472700  1
  O  O138  1  0.15212900  0.09419700  0.67527300  1
  O  O139  1  0.84787100  0.90580300  0.67527300  1
  O  O140  1  0.34787100  0.59419700  0.17527300  1
  O  O141  1  0.65212900  0.40580300  0.17527300  1
  O  O142  1  0.84787100  0.90580300  0.32472700  1
  O  O143  1  0.15212900  0.09419700  0.32472700  1
  O  O144  1  0.43046600  0.34245600  0.83240500  1
  O  O145  1  0.56953400  0.65754400  0.83240500  1
  O  O146  1  0.93046600  0.15754400  0.66759500  1
  O  O147  1  0.06953400  0.84245600  0.66759500  1
  O  O148  1  0.56953400  0.65754400  0.16759500  1
  O  O149  1  0.43046600  0.34245600  0.16759500  1
  O  O150  1  0.06953400  0.84245600  0.33240500  1
  O  O151  1  0.93046600  0.15754400  0.33240500  1
  O  O152  1  0.67213000  0.15378600  0.75692000  1
  O  O153  1  0.32787000  0.84621400  0.75692000  1
  O  O154  1  0.17213000  0.34621400  0.74308000  1
  O  O155  1  0.82787000  0.65378600  0.74308000  1
  O  O156  1  0.32787000  0.84621400  0.24308000  1
  O  O157  1  0.67213000  0.15378600  0.24308000  1
  O  O158  1  0.82787000  0.65378600  0.25692000  1
  O  O159  1  0.17213000  0.34621400  0.25692000  1
