# generated using pymatgen
data_Nd2(MoO4)3
_symmetry_space_group_name_H-M   'P 1'
_cell_length_a   7.61028400
_cell_length_b   11.80743800
_cell_length_c   11.99712208
_cell_angle_alpha   90.00000000
_cell_angle_beta   108.43027161
_cell_angle_gamma   90.00000000
_symmetry_Int_Tables_number   1
_chemical_formula_structural   Nd2(MoO4)3
_chemical_formula_sum   'Nd8 Mo12 O48'
_cell_volume   1022.74340219
_cell_formula_units_Z   4
loop_
 _symmetry_equiv_pos_site_id
 _symmetry_equiv_pos_as_xyz
  1  'x, y, z'
loop_
 _atom_site_type_symbol
 _atom_site_label
 _atom_site_symmetry_multiplicity
 _atom_site_fract_x
 _atom_site_fract_y
 _atom_site_fract_z
 _atom_site_occupancy
  Nd  Nd0  1  0.33133850  0.87696550  0.41112900  1
  Nd  Nd1  1  0.66866150  0.87696550  0.08887100  1
  Nd  Nd2  1  0.66866150  0.12303450  0.58887100  1
  Nd  Nd3  1  0.33133850  0.12303450  0.91112900  1
  Nd  Nd4  1  0.83133850  0.37696550  0.41112900  1
  Nd  Nd5  1  0.16866150  0.37696550  0.08887100  1
  Nd  Nd6  1  0.16866150  0.62303450  0.58887100  1
  Nd  Nd7  1  0.83133850  0.62303450  0.91112900  1
  Mo  Mo8  1  0.50000000  0.12583200  0.25000000  1
  Mo  Mo9  1  0.84002500  0.12271900  0.92591600  1
  Mo  Mo10  1  0.50000000  0.87416800  0.75000000  1
  Mo  Mo11  1  0.15997500  0.12271900  0.57408400  1
  Mo  Mo12  1  0.84002500  0.87728100  0.42591600  1
  Mo  Mo13  1  0.15997500  0.87728100  0.07408400  1
  Mo  Mo14  1  0.00000000  0.62583200  0.25000000  1
  Mo  Mo15  1  0.34002500  0.62271900  0.92591600  1
  Mo  Mo16  1  0.00000000  0.37416800  0.75000000  1
  Mo  Mo17  1  0.65997500  0.62271900  0.57408400  1
  Mo  Mo18  1  0.34002500  0.37728100  0.42591600  1
  Mo  Mo19  1  0.65997500  0.37728100  0.07408400  1
  O  O20  1  0.62730000  0.20425500  0.38441400  1
  O  O21  1  0.33602450  0.03835850  0.28359100  1
  O  O22  1  0.37270000  0.20425500  0.11558600  1
  O  O23  1  0.47178550  0.45397250  0.09974400  1
  O  O24  1  0.44352150  0.72147550  0.04047800  1
  O  O25  1  0.52821450  0.54602750  0.90025600  1
  O  O26  1  0.64939900  0.04244000  0.95654700  1
  O  O27  1  0.73902300  0.19440800  0.78908800  1
  O  O28  1  0.62730000  0.79574500  0.88441400  1
  O  O29  1  0.66397550  0.96164150  0.71640900  1
  O  O30  1  0.33602450  0.96164150  0.78359100  1
  O  O31  1  0.26097700  0.19440800  0.71091200  1
  O  O32  1  0.37270000  0.79574500  0.61558600  1
  O  O33  1  0.35060100  0.04244000  0.54345300  1
  O  O34  1  0.47178550  0.54602750  0.59974400  1
  O  O35  1  0.55647850  0.72147550  0.45952200  1
  O  O36  1  0.44352150  0.27852450  0.54047800  1
  O  O37  1  0.52821450  0.45397250  0.40025600  1
  O  O38  1  0.64939900  0.95756000  0.45654700  1
  O  O39  1  0.73902300  0.80559200  0.28908800  1
  O  O40  1  0.66397550  0.03835850  0.21640900  1
  O  O41  1  0.26097700  0.80559200  0.21091200  1
  O  O42  1  0.35060100  0.95756000  0.04345300  1
  O  O43  1  0.55647850  0.27852450  0.95952200  1
  O  O44  1  0.12730000  0.70425500  0.38441400  1
  O  O45  1  0.83602450  0.53835850  0.28359100  1
  O  O46  1  0.87270000  0.70425500  0.11558600  1
  O  O47  1  0.97178550  0.95397250  0.09974400  1
  O  O48  1  0.94352150  0.22147550  0.04047800  1
  O  O49  1  0.02821450  0.04602750  0.90025600  1
  O  O50  1  0.14939900  0.54244000  0.95654700  1
  O  O51  1  0.23902300  0.69440800  0.78908800  1
  O  O52  1  0.12730000  0.29574500  0.88441400  1
  O  O53  1  0.16397550  0.46164150  0.71640900  1
  O  O54  1  0.83602450  0.46164150  0.78359100  1
  O  O55  1  0.76097700  0.69440800  0.71091200  1
  O  O56  1  0.87270000  0.29574500  0.61558600  1
  O  O57  1  0.85060100  0.54244000  0.54345300  1
  O  O58  1  0.97178550  0.04602750  0.59974400  1
  O  O59  1  0.05647850  0.22147550  0.45952200  1
  O  O60  1  0.94352150  0.77852450  0.54047800  1
  O  O61  1  0.02821450  0.95397250  0.40025600  1
  O  O62  1  0.14939900  0.45756000  0.45654700  1
  O  O63  1  0.23902300  0.30559200  0.28908800  1
  O  O64  1  0.16397550  0.53835850  0.21640900  1
  O  O65  1  0.76097700  0.30559200  0.21091200  1
  O  O66  1  0.85060100  0.45756000  0.04345300  1
  O  O67  1  0.05647850  0.77852450  0.95952200  1
