# generated using pymatgen
data_SiO2
_symmetry_space_group_name_H-M   'P 1'
_cell_length_a   13.62866400
_cell_length_b   21.40035000
_cell_length_c   12.69196000
_cell_angle_alpha   90.00000000
_cell_angle_beta   90.00000000
_cell_angle_gamma   90.00000000
_symmetry_Int_Tables_number   1
_chemical_formula_structural   SiO2
_chemical_formula_sum   'Si56 O112'
_cell_volume   3701.71394957
_cell_formula_units_Z   56
loop_
 _symmetry_equiv_pos_site_id
 _symmetry_equiv_pos_as_xyz
  1  'x, y, z'
loop_
 _atom_site_type_symbol
 _atom_site_label
 _atom_site_symmetry_multiplicity
 _atom_site_fract_x
 _atom_site_fract_y
 _atom_site_fract_z
 _atom_site_occupancy
  Si  Si0  1  0.11495350  0.07255250  0.62322400  1
  Si  Si1  1  0.88504650  0.07255250  0.37677600  1
  Si  Si2  1  0.11495350  0.92744750  0.37677600  1
  Si  Si3  1  0.88504650  0.92744750  0.62322400  1
  Si  Si4  1  0.88504650  0.92744750  0.37677600  1
  Si  Si5  1  0.11495350  0.92744750  0.62322400  1
  Si  Si6  1  0.88504650  0.07255250  0.62322400  1
  Si  Si7  1  0.11495350  0.07255250  0.37677600  1
  Si  Si8  1  0.19953850  0.15025750  0.80740700  1
  Si  Si9  1  0.80046150  0.15025750  0.19259300  1
  Si  Si10  1  0.19953850  0.84974250  0.19259300  1
  Si  Si11  1  0.80046150  0.84974250  0.80740700  1
  Si  Si12  1  0.80046150  0.84974250  0.19259300  1
  Si  Si13  1  0.19953850  0.84974250  0.80740700  1
  Si  Si14  1  0.80046150  0.15025750  0.80740700  1
  Si  Si15  1  0.19953850  0.15025750  0.19259300  1
  Si  Si16  1  0.61193100  0.78030800  0.87305500  1
  Si  Si17  1  0.38806900  0.78030800  0.12694500  1
  Si  Si18  1  0.61193100  0.21969200  0.12694500  1
  Si  Si19  1  0.38806900  0.21969200  0.87305500  1
  Si  Si20  1  0.38806900  0.21969200  0.12694500  1
  Si  Si21  1  0.61193100  0.21969200  0.87305500  1
  Si  Si22  1  0.38806900  0.78030800  0.87305500  1
  Si  Si23  1  0.61193100  0.78030800  0.12694500  1
  Si  Si24  1  0.11283450  0.07511150  0.00000000  1
  Si  Si25  1  0.88716550  0.07511150  0.00000000  1
  Si  Si26  1  0.11283450  0.92488850  0.00000000  1
  Si  Si27  1  0.88716550  0.92488850  0.00000000  1
  Si  Si28  1  0.61495350  0.57255250  0.62322400  1
  Si  Si29  1  0.38504650  0.57255250  0.37677600  1
  Si  Si30  1  0.61495350  0.42744750  0.37677600  1
  Si  Si31  1  0.38504650  0.42744750  0.62322400  1
  Si  Si32  1  0.38504650  0.42744750  0.37677600  1
  Si  Si33  1  0.61495350  0.42744750  0.62322400  1
  Si  Si34  1  0.38504650  0.57255250  0.62322400  1
  Si  Si35  1  0.61495350  0.57255250  0.37677600  1
  Si  Si36  1  0.69953850  0.65025750  0.80740700  1
  Si  Si37  1  0.30046150  0.65025750  0.19259300  1
  Si  Si38  1  0.69953850  0.34974250  0.19259300  1
  Si  Si39  1  0.30046150  0.34974250  0.80740700  1
  Si  Si40  1  0.30046150  0.34974250  0.19259300  1
  Si  Si41  1  0.69953850  0.34974250  0.80740700  1
  Si  Si42  1  0.30046150  0.65025750  0.80740700  1
  Si  Si43  1  0.69953850  0.65025750  0.19259300  1
  Si  Si44  1  0.11193100  0.28030800  0.87305500  1
  Si  Si45  1  0.88806900  0.28030800  0.12694500  1
  Si  Si46  1  0.11193100  0.71969200  0.12694500  1
  Si  Si47  1  0.88806900  0.71969200  0.87305500  1
  Si  Si48  1  0.88806900  0.71969200  0.12694500  1
  Si  Si49  1  0.11193100  0.71969200  0.87305500  1
  Si  Si50  1  0.88806900  0.28030800  0.87305500  1
  Si  Si51  1  0.11193100  0.28030800  0.12694500  1
  Si  Si52  1  0.61283450  0.57511150  0.00000000  1
  Si  Si53  1  0.38716550  0.57511150  0.00000000  1
  Si  Si54  1  0.61283450  0.42488850  0.00000000  1
  Si  Si55  1  0.38716550  0.42488850  0.00000000  1
  O  O56  1  0.16917850  0.09933250  0.89581200  1
  O  O57  1  0.83082150  0.09933250  0.10418800  1
  O  O58  1  0.16917850  0.90066750  0.10418800  1
  O  O59  1  0.83082150  0.90066750  0.89581200  1
  O  O60  1  0.83082150  0.90066750  0.10418800  1
  O  O61  1  0.16917850  0.90066750  0.89581200  1
  O  O62  1  0.83082150  0.09933250  0.89581200  1
  O  O63  1  0.16917850  0.09933250  0.10418800  1
  O  O64  1  0.11446800  0.00000000  0.00000000  1
  O  O65  1  0.88553200  0.00000000  0.00000000  1
  O  O66  1  0.50000000  0.60043900  0.00000000  1
  O  O67  1  0.50000000  0.39956100  0.00000000  1
  O  O68  1  0.12993450  0.09081750  0.50000000  1
  O  O69  1  0.87006550  0.09081750  0.50000000  1
  O  O70  1  0.12993450  0.90918250  0.50000000  1
  O  O71  1  0.87006550  0.90918250  0.50000000  1
  O  O72  1  0.50000000  0.58153600  0.65676000  1
  O  O73  1  0.50000000  0.58153600  0.34324000  1
  O  O74  1  0.50000000  0.41846400  0.34324000  1
  O  O75  1  0.50000000  0.41846400  0.65676000  1
  O  O76  1  0.18333650  0.11916650  0.69209500  1
  O  O77  1  0.81666350  0.11916650  0.30790500  1
  O  O78  1  0.18333650  0.88083350  0.30790500  1
  O  O79  1  0.81666350  0.88083350  0.69209500  1
  O  O80  1  0.81666350  0.88083350  0.30790500  1
  O  O81  1  0.18333650  0.88083350  0.69209500  1
  O  O82  1  0.81666350  0.11916650  0.69209500  1
  O  O83  1  0.18333650  0.11916650  0.30790500  1
  O  O84  1  0.14746400  0.00000000  0.64307400  1
  O  O85  1  0.85253600  0.00000000  0.35692600  1
  O  O86  1  0.14746400  0.00000000  0.35692600  1
  O  O87  1  0.85253600  0.00000000  0.64307400  1
  O  O88  1  0.63168300  0.71251300  0.81908500  1
  O  O89  1  0.36831700  0.71251300  0.18091500  1
  O  O90  1  0.63168300  0.28748700  0.18091500  1
  O  O91  1  0.36831700  0.28748700  0.81908500  1
  O  O92  1  0.36831700  0.28748700  0.18091500  1
  O  O93  1  0.63168300  0.28748700  0.81908500  1
  O  O94  1  0.36831700  0.71251300  0.81908500  1
  O  O95  1  0.63168300  0.71251300  0.18091500  1
  O  O96  1  0.31489150  0.16806750  0.82175600  1
  O  O97  1  0.68510850  0.16806750  0.17824400  1
  O  O98  1  0.31489150  0.83193250  0.17824400  1
  O  O99  1  0.68510850  0.83193250  0.82175600  1
  O  O100  1  0.68510850  0.83193250  0.17824400  1
  O  O101  1  0.31489150  0.83193250  0.82175600  1
  O  O102  1  0.68510850  0.16806750  0.82175600  1
  O  O103  1  0.31489150  0.16806750  0.17824400  1
  O  O104  1  0.50000000  0.80179900  0.84856300  1
  O  O105  1  0.50000000  0.80179900  0.15143700  1
  O  O106  1  0.50000000  0.19820100  0.15143700  1
  O  O107  1  0.50000000  0.19820100  0.84856300  1
  O  O108  1  0.62996000  0.77511700  0.00000000  1
  O  O109  1  0.37004000  0.77511700  0.00000000  1
  O  O110  1  0.62996000  0.22488300  0.00000000  1
  O  O111  1  0.37004000  0.22488300  0.00000000  1
  O  O112  1  0.66917850  0.59933250  0.89581200  1
  O  O113  1  0.33082150  0.59933250  0.10418800  1
  O  O114  1  0.66917850  0.40066750  0.10418800  1
  O  O115  1  0.33082150  0.40066750  0.89581200  1
  O  O116  1  0.33082150  0.40066750  0.10418800  1
  O  O117  1  0.66917850  0.40066750  0.89581200  1
  O  O118  1  0.33082150  0.59933250  0.89581200  1
  O  O119  1  0.66917850  0.59933250  0.10418800  1
  O  O120  1  0.61446800  0.50000000  0.00000000  1
  O  O121  1  0.38553200  0.50000000  0.00000000  1
  O  O122  1  0.00000000  0.10043900  0.00000000  1
  O  O123  1  0.00000000  0.89956100  0.00000000  1
  O  O124  1  0.62993450  0.59081750  0.50000000  1
  O  O125  1  0.37006550  0.59081750  0.50000000  1
  O  O126  1  0.62993450  0.40918250  0.50000000  1
  O  O127  1  0.37006550  0.40918250  0.50000000  1
  O  O128  1  0.00000000  0.08153600  0.65676000  1
  O  O129  1  0.00000000  0.08153600  0.34324000  1
  O  O130  1  0.00000000  0.91846400  0.34324000  1
  O  O131  1  0.00000000  0.91846400  0.65676000  1
  O  O132  1  0.68333650  0.61916650  0.69209500  1
  O  O133  1  0.31666350  0.61916650  0.30790500  1
  O  O134  1  0.68333650  0.38083350  0.30790500  1
  O  O135  1  0.31666350  0.38083350  0.69209500  1
  O  O136  1  0.31666350  0.38083350  0.30790500  1
  O  O137  1  0.68333650  0.38083350  0.69209500  1
  O  O138  1  0.31666350  0.61916650  0.69209500  1
  O  O139  1  0.68333650  0.61916650  0.30790500  1
  O  O140  1  0.64746400  0.50000000  0.64307400  1
  O  O141  1  0.35253600  0.50000000  0.35692600  1
  O  O142  1  0.64746400  0.50000000  0.35692600  1
  O  O143  1  0.35253600  0.50000000  0.64307400  1
  O  O144  1  0.13168300  0.21251300  0.81908500  1
  O  O145  1  0.86831700  0.21251300  0.18091500  1
  O  O146  1  0.13168300  0.78748700  0.18091500  1
  O  O147  1  0.86831700  0.78748700  0.81908500  1
  O  O148  1  0.86831700  0.78748700  0.18091500  1
  O  O149  1  0.13168300  0.78748700  0.81908500  1
  O  O150  1  0.86831700  0.21251300  0.81908500  1
  O  O151  1  0.13168300  0.21251300  0.18091500  1
  O  O152  1  0.81489150  0.66806750  0.82175600  1
  O  O153  1  0.18510850  0.66806750  0.17824400  1
  O  O154  1  0.81489150  0.33193250  0.17824400  1
  O  O155  1  0.18510850  0.33193250  0.82175600  1
  O  O156  1  0.18510850  0.33193250  0.17824400  1
  O  O157  1  0.81489150  0.33193250  0.82175600  1
  O  O158  1  0.18510850  0.66806750  0.82175600  1
  O  O159  1  0.81489150  0.66806750  0.17824400  1
  O  O160  1  0.00000000  0.30179900  0.84856300  1
  O  O161  1  0.00000000  0.30179900  0.15143700  1
  O  O162  1  0.00000000  0.69820100  0.15143700  1
  O  O163  1  0.00000000  0.69820100  0.84856300  1
  O  O164  1  0.12996000  0.27511700  0.00000000  1
  O  O165  1  0.87004000  0.27511700  0.00000000  1
  O  O166  1  0.12996000  0.72488300  0.00000000  1
  O  O167  1  0.87004000  0.72488300  0.00000000  1
