# generated using pymatgen
data_Al(HO)3
_symmetry_space_group_name_H-M   'P 1'
_cell_length_a   9.02519800
_cell_length_b   5.21406700
_cell_length_c   13.02967835
_cell_angle_alpha   90.00000000
_cell_angle_beta   132.66545893
_cell_angle_gamma   90.00000000
_symmetry_Int_Tables_number   1
_chemical_formula_structural   Al(HO)3
_chemical_formula_sum   'Al8 H24 O24'
_cell_volume   450.86379753
_cell_formula_units_Z   8
loop_
 _symmetry_equiv_pos_site_id
 _symmetry_equiv_pos_as_xyz
  1  'x, y, z'
loop_
 _atom_site_type_symbol
 _atom_site_label
 _atom_site_symmetry_multiplicity
 _atom_site_fract_x
 _atom_site_fract_y
 _atom_site_fract_z
 _atom_site_occupancy
  Al  Al0  1  0.81418700  0.75180100  0.47750700  1
  Al  Al1  1  0.81418700  0.24819900  0.97750700  1
  Al  Al2  1  0.14816700  0.75926100  0.47749400  1
  Al  Al3  1  0.14816700  0.24073900  0.97749400  1
  Al  Al4  1  0.64729600  0.24952300  0.47744700  1
  Al  Al5  1  0.64729600  0.75047700  0.97744700  1
  Al  Al6  1  0.31488500  0.25578700  0.47764100  1
  Al  Al7  1  0.31488500  0.74421300  0.97764100  1
  H  H8  1  0.59633000  0.05830500  0.27789000  1
  H  H9  1  0.59633000  0.94169500  0.77789000  1
  H  H10  1  0.15644700  0.35501000  0.55612100  1
  H  H11  1  0.45966900  0.42656100  0.77822900  1
  H  H12  1  0.15644700  0.64499000  0.05612100  1
  H  H13  1  0.45966900  0.57343900  0.27822900  1
  H  H14  1  0.11651400  0.58755900  0.28014900  1
  H  H15  1  0.11651400  0.41244100  0.78014900  1
  H  H16  1  0.63907700  0.85048500  0.54236500  1
  H  H17  1  0.63907700  0.14951500  0.04236500  1
  H  H18  1  0.28350100  0.11134900  0.27994400  1
  H  H19  1  0.28350100  0.88865100  0.77994400  1
  H  H20  1  0.54820000  0.55687600  0.54345900  1
  H  H21  1  0.54820000  0.44312400  0.04345900  1
  H  H22  1  0.78998800  0.59188400  0.28109700  1
  H  H23  1  0.78998800  0.40811600  0.78109700  1
  H  H24  1  0.08443500  0.06019300  0.59640200  1
  H  H25  1  0.08443500  0.93980700  0.09640200  1
  H  H26  1  0.49980900  0.84743900  0.60023900  1
  H  H27  1  0.49980900  0.15256100  0.10023900  1
  H  H28  1  0.95565600  0.08972600  0.28242300  1
  H  H29  1  0.95565600  0.91027400  0.78242300  1
  H  H30  1  0.93736700  0.34970300  0.53334900  1
  H  H31  1  0.93736700  0.65029700  0.03334900  1
  O  O32  1  0.70034800  0.06326400  0.38106600  1
  O  O33  1  0.70034800  0.93673600  0.88106600  1
  O  O34  1  0.27884400  0.44244400  0.59189000  1
  O  O35  1  0.27884400  0.55755600  0.09189000  1
  O  O36  1  0.20390500  0.57285000  0.38211900  1
  O  O37  1  0.20390500  0.42715000  0.88211900  1
  O  O38  1  0.76967900  0.93015700  0.59036100  1
  O  O39  1  0.76967900  0.06984300  0.09036100  1
  O  O40  1  0.38743900  0.12289600  0.38287200  1
  O  O41  1  0.38743900  0.87710400  0.88287200  1
  O  O42  1  0.59276100  0.39105300  0.59084000  1
  O  O43  1  0.59276100  0.60894700  0.09084000  1
  O  O44  1  0.88983100  0.62371700  0.38275800  1
  O  O45  1  0.88983100  0.37628300  0.88275800  1
  O  O46  1  0.09146300  0.87492100  0.59527200  1
  O  O47  1  0.09146300  0.12507900  0.09527200  1
  O  O48  1  0.57289700  0.56384700  0.38081000  1
  O  O49  1  0.57289700  0.43615300  0.88081000  1
  O  O50  1  0.40566800  0.94700800  0.59656200  1
  O  O51  1  0.40566800  0.05299200  0.09656200  1
  O  O52  1  0.07393000  0.07244100  0.38326000  1
  O  O53  1  0.07393000  0.92755900  0.88326000  1
  O  O54  1  0.90929500  0.42403000  0.58771000  1
  O  O55  1  0.90929500  0.57597000  0.08771000  1
