# generated using pymatgen
data_SbH3OF6
_symmetry_space_group_name_H-M   'P 1'
_cell_length_a   10.22698400
_cell_length_b   10.22698400
_cell_length_c   10.22698400
_cell_angle_alpha   90.00000000
_cell_angle_beta   90.00000000
_cell_angle_gamma   90.00000000
_symmetry_Int_Tables_number   1
_chemical_formula_structural   SbH3OF6
_chemical_formula_sum   'Sb8 H24 O8 F48'
_cell_volume   1069.65254670
_cell_formula_units_Z   8
loop_
 _symmetry_equiv_pos_site_id
 _symmetry_equiv_pos_as_xyz
  1  'x, y, z'
loop_
 _atom_site_type_symbol
 _atom_site_label
 _atom_site_symmetry_multiplicity
 _atom_site_fract_x
 _atom_site_fract_y
 _atom_site_fract_z
 _atom_site_occupancy
  Sb  Sb0  1  0.75747700  0.25747700  0.24252300  1
  Sb  Sb1  1  0.25747700  0.24252300  0.75747700  1
  Sb  Sb2  1  0.24252300  0.75747700  0.25747700  1
  Sb  Sb3  1  0.24252300  0.24252300  0.24252300  1
  Sb  Sb4  1  0.25747700  0.75747700  0.74252300  1
  Sb  Sb5  1  0.75747700  0.74252300  0.25747700  1
  Sb  Sb6  1  0.74252300  0.25747700  0.75747700  1
  Sb  Sb7  1  0.74252300  0.74252300  0.74252300  1
  H  H8  1  0.54618150  0.94309750  0.43278350  1
  H  H9  1  0.06721650  0.54618150  0.05690250  1
  H  H10  1  0.44309750  0.06721650  0.45381850  1
  H  H11  1  0.54618150  0.05690250  0.06721650  1
  H  H12  1  0.06721650  0.45381850  0.44309750  1
  H  H13  1  0.94309750  0.43278350  0.54618150  1
  H  H14  1  0.45381850  0.44309750  0.06721650  1
  H  H15  1  0.43278350  0.54618150  0.94309750  1
  H  H16  1  0.05690250  0.06721650  0.54618150  1
  H  H17  1  0.95381850  0.05690250  0.93278350  1
  H  H18  1  0.93278350  0.95381850  0.05690250  1
  H  H19  1  0.05690250  0.93278350  0.95381850  1
  H  H20  1  0.04618150  0.44309750  0.93278350  1
  H  H21  1  0.56721650  0.04618150  0.55690250  1
  H  H22  1  0.94309750  0.56721650  0.95381850  1
  H  H23  1  0.04618150  0.55690250  0.56721650  1
  H  H24  1  0.56721650  0.95381850  0.94309750  1
  H  H25  1  0.44309750  0.93278350  0.04618150  1
  H  H26  1  0.95381850  0.94309750  0.56721650  1
  H  H27  1  0.93278350  0.04618150  0.44309750  1
  H  H28  1  0.55690250  0.56721650  0.04618150  1
  H  H29  1  0.45381850  0.55690250  0.43278350  1
  H  H30  1  0.43278350  0.45381850  0.55690250  1
  H  H31  1  0.55690250  0.43278350  0.45381850  1
  O  O32  1  0.00342100  0.50342100  0.99657900  1
  O  O33  1  0.50342100  0.99657900  0.00342100  1
  O  O34  1  0.99657900  0.00342100  0.50342100  1
  O  O35  1  0.49657900  0.49657900  0.49657900  1
  O  O36  1  0.50342100  0.00342100  0.49657900  1
  O  O37  1  0.00342100  0.49657900  0.50342100  1
  O  O38  1  0.49657900  0.50342100  0.00342100  1
  O  O39  1  0.99657900  0.99657900  0.99657900  1
  F  F40  1  0.89921500  0.35862100  0.30684800  1
  F  F41  1  0.19315200  0.89921500  0.64137900  1
  F  F42  1  0.35862100  0.69315200  0.60078500  1
  F  F43  1  0.89921500  0.64137900  0.19315200  1
  F  F44  1  0.69315200  0.60078500  0.35862100  1
  F  F45  1  0.35862100  0.30684800  0.89921500  1
  F  F46  1  0.60078500  0.35862100  0.69315200  1
  F  F47  1  0.30684800  0.89921500  0.35862100  1
  F  F48  1  0.64137900  0.19315200  0.89921500  1
  F  F49  1  0.10078500  0.14137900  0.30684800  1
  F  F50  1  0.30684800  0.10078500  0.14137900  1
  F  F51  1  0.14137900  0.30684800  0.10078500  1
  F  F52  1  0.61541550  0.14464450  0.18639450  1
  F  F53  1  0.31360550  0.61541550  0.85535550  1
  F  F54  1  0.14464450  0.81360550  0.88458450  1
  F  F55  1  0.61541550  0.85535550  0.31360550  1
  F  F56  1  0.81360550  0.88458450  0.14464450  1
  F  F57  1  0.14464450  0.18639450  0.61541550  1
  F  F58  1  0.88458450  0.14464450  0.81360550  1
  F  F59  1  0.18639450  0.61541550  0.14464450  1
  F  F60  1  0.85535550  0.31360550  0.61541550  1
  F  F61  1  0.38458450  0.35535550  0.18639450  1
  F  F62  1  0.18639450  0.38458450  0.35535550  1
  F  F63  1  0.35535550  0.18639450  0.38458450  1
  F  F64  1  0.39921500  0.85862100  0.80684800  1
  F  F65  1  0.69315200  0.39921500  0.14137900  1
  F  F66  1  0.85862100  0.19315200  0.10078500  1
  F  F67  1  0.39921500  0.14137900  0.69315200  1
  F  F68  1  0.19315200  0.10078500  0.85862100  1
  F  F69  1  0.85862100  0.80684800  0.39921500  1
  F  F70  1  0.10078500  0.85862100  0.19315200  1
  F  F71  1  0.80684800  0.39921500  0.85862100  1
  F  F72  1  0.14137900  0.69315200  0.39921500  1
  F  F73  1  0.60078500  0.64137900  0.80684800  1
  F  F74  1  0.80684800  0.60078500  0.64137900  1
  F  F75  1  0.64137900  0.80684800  0.60078500  1
  F  F76  1  0.11541550  0.64464450  0.68639450  1
  F  F77  1  0.81360550  0.11541550  0.35535550  1
  F  F78  1  0.64464450  0.31360550  0.38458450  1
  F  F79  1  0.11541550  0.35535550  0.81360550  1
  F  F80  1  0.31360550  0.38458450  0.64464450  1
  F  F81  1  0.64464450  0.68639450  0.11541550  1
  F  F82  1  0.38458450  0.64464450  0.31360550  1
  F  F83  1  0.68639450  0.11541550  0.64464450  1
  F  F84  1  0.35535550  0.81360550  0.11541550  1
  F  F85  1  0.88458450  0.85535550  0.68639450  1
  F  F86  1  0.68639450  0.88458450  0.85535550  1
  F  F87  1  0.85535550  0.68639450  0.88458450  1
