# generated using pymatgen
data_Ti2Ag2P2S11
_symmetry_space_group_name_H-M   'P 1'
_cell_length_a   6.92249000
_cell_length_b   8.65126500
_cell_length_c   24.48983600
_cell_angle_alpha   90.00000000
_cell_angle_beta   90.00000000
_cell_angle_gamma   90.00000000
_symmetry_Int_Tables_number   1
_chemical_formula_structural   Ti2Ag2P2S11
_chemical_formula_sum   'Ti8 Ag8 P8 S44'
_cell_volume   1466.65453389
_cell_formula_units_Z   4
loop_
 _symmetry_equiv_pos_site_id
 _symmetry_equiv_pos_as_xyz
  1  'x, y, z'
loop_
 _atom_site_type_symbol
 _atom_site_label
 _atom_site_symmetry_multiplicity
 _atom_site_fract_x
 _atom_site_fract_y
 _atom_site_fract_z
 _atom_site_occupancy
  Ti  Ti0  1  0.99579700  0.25621800  0.57841300  1
  Ti  Ti1  1  0.50420300  0.75621800  0.92158700  1
  Ti  Ti2  1  0.00420300  0.24378200  0.07841300  1
  Ti  Ti3  1  0.49579700  0.74378200  0.42158700  1
  Ti  Ti4  1  0.00420300  0.74378200  0.42158700  1
  Ti  Ti5  1  0.50420300  0.25621800  0.57841300  1
  Ti  Ti6  1  0.49579700  0.24378200  0.07841300  1
  Ti  Ti7  1  0.99579700  0.75621800  0.92158700  1
  Ag  Ag8  1  0.25000000  0.39896100  0.30329600  1
  Ag  Ag9  1  0.75000000  0.10103900  0.80329600  1
  Ag  Ag10  1  0.25000000  0.89416800  0.69347200  1
  Ag  Ag11  1  0.75000000  0.60583200  0.19347200  1
  Ag  Ag12  1  0.75000000  0.10583200  0.30652800  1
  Ag  Ag13  1  0.25000000  0.89896100  0.19670400  1
  Ag  Ag14  1  0.75000000  0.60103900  0.69670400  1
  Ag  Ag15  1  0.25000000  0.39416800  0.80652800  1
  P  P16  1  0.25000000  0.49701500  0.65240300  1
  P  P17  1  0.75000000  0.00298500  0.15240300  1
  P  P18  1  0.75000000  0.99892300  0.65045000  1
  P  P19  1  0.75000000  0.50298500  0.34759700  1
  P  P20  1  0.25000000  0.99701500  0.84759700  1
  P  P21  1  0.75000000  0.49892300  0.84955000  1
  P  P22  1  0.25000000  0.00107700  0.34955000  1
  P  P23  1  0.25000000  0.50107700  0.15045000  1
  S  S24  1  0.50426300  0.96482300  0.10694800  1
  S  S25  1  0.25000000  0.60486700  0.72538000  1
  S  S26  1  0.50260000  0.03799600  0.39197500  1
  S  S27  1  0.75000000  0.24010700  0.65583900  1
  S  S28  1  0.75000000  0.74010700  0.84416100  1
  S  S29  1  0.99573700  0.46482300  0.39305200  1
  S  S30  1  0.50260000  0.53799600  0.10802500  1
  S  S31  1  0.25000000  0.75600800  0.84625100  1
  S  S32  1  0.25000000  0.74005100  0.98316600  1
  S  S33  1  0.75000000  0.89513300  0.22538000  1
  S  S34  1  0.00260000  0.96200400  0.60802500  1
  S  S35  1  0.25000000  0.25989300  0.15583900  1
  S  S36  1  0.00426300  0.53517700  0.60694800  1
  S  S37  1  0.75000000  0.39074300  0.77598900  1
  S  S38  1  0.75000000  0.87844700  0.98115200  1
  S  S39  1  0.25000000  0.10486700  0.77462000  1
  S  S40  1  0.25000000  0.24005100  0.51683400  1
  S  S41  1  0.75000000  0.74399200  0.34625100  1
  S  S42  1  0.25000000  0.12155300  0.01884800  1
  S  S43  1  0.99740000  0.03799600  0.39197500  1
  S  S44  1  0.00426300  0.03517700  0.89305200  1
  S  S45  1  0.00260000  0.46200400  0.89197500  1
  S  S46  1  0.25000000  0.75989300  0.34416100  1
  S  S47  1  0.25000000  0.60925700  0.22401100  1
  S  S48  1  0.49740000  0.46200400  0.89197500  1
  S  S49  1  0.49740000  0.96200400  0.60802500  1
  S  S50  1  0.50426300  0.46482300  0.39305200  1
  S  S51  1  0.25000000  0.10925700  0.27598900  1
  S  S52  1  0.75000000  0.24399200  0.15374900  1
  S  S53  1  0.49573700  0.53517700  0.60694800  1
  S  S54  1  0.75000000  0.14369100  0.51729000  1
  S  S55  1  0.25000000  0.62155300  0.48115200  1
  S  S56  1  0.99573700  0.96482300  0.10694800  1
  S  S57  1  0.75000000  0.75994900  0.48316600  1
  S  S58  1  0.99740000  0.53799600  0.10802500  1
  S  S59  1  0.75000000  0.37844700  0.51884800  1
  S  S60  1  0.75000000  0.64369100  0.98271000  1
  S  S61  1  0.25000000  0.35630900  0.01729000  1
  S  S62  1  0.75000000  0.89074300  0.72401100  1
  S  S63  1  0.25000000  0.25600800  0.65374900  1
  S  S64  1  0.75000000  0.39513300  0.27462000  1
  S  S65  1  0.25000000  0.85630900  0.48271000  1
  S  S66  1  0.49573700  0.03517700  0.89305200  1
  S  S67  1  0.75000000  0.25994900  0.01683400  1
