# generated using pymatgen
data_RuC3Br2O3
_symmetry_space_group_name_H-M   'P 1'
_cell_length_a   10.87586000
_cell_length_b   7.50392400
_cell_length_c   9.56670184
_cell_angle_alpha   90.00000000
_cell_angle_beta   106.35751707
_cell_angle_gamma   90.00000000
_symmetry_Int_Tables_number   1
_chemical_formula_structural   RuC3Br2O3
_chemical_formula_sum   'Ru4 C12 Br8 O12'
_cell_volume   749.15156216
_cell_formula_units_Z   4
loop_
 _symmetry_equiv_pos_site_id
 _symmetry_equiv_pos_as_xyz
  1  'x, y, z'
loop_
 _atom_site_type_symbol
 _atom_site_label
 _atom_site_symmetry_multiplicity
 _atom_site_fract_x
 _atom_site_fract_y
 _atom_site_fract_z
 _atom_site_occupancy
  Ru  Ru0  1  0.06339700  0.00000000  0.21129400  1
  Ru  Ru1  1  0.93660300  0.00000000  0.78870600  1
  Ru  Ru2  1  0.56339700  0.50000000  0.21129400  1
  Ru  Ru3  1  0.43660300  0.50000000  0.78870600  1
  C  C4  1  0.40625700  0.68481300  0.64775200  1
  C  C5  1  0.40625700  0.31518700  0.64775200  1
  C  C6  1  0.59374300  0.31518700  0.35224800  1
  C  C7  1  0.76222800  0.00000000  0.79760700  1
  C  C8  1  0.59374300  0.68481300  0.35224800  1
  C  C9  1  0.23777200  0.00000000  0.20239300  1
  C  C10  1  0.90625700  0.18481300  0.64775200  1
  C  C11  1  0.90625700  0.81518700  0.64775200  1
  C  C12  1  0.09374300  0.81518700  0.35224800  1
  C  C13  1  0.26222800  0.50000000  0.79760700  1
  C  C14  1  0.09374300  0.18481300  0.35224800  1
  C  C15  1  0.73777200  0.50000000  0.20239300  1
  Br  Br16  1  0.82896200  0.00000000  0.22553400  1
  Br  Br17  1  0.50000000  0.73725800  0.00000000  1
  Br  Br18  1  0.17103800  0.00000000  0.77446600  1
  Br  Br19  1  0.50000000  0.26274200  0.00000000  1
  Br  Br20  1  0.32896200  0.50000000  0.22553400  1
  Br  Br21  1  0.00000000  0.23725800  0.00000000  1
  Br  Br22  1  0.67103800  0.50000000  0.77446600  1
  Br  Br23  1  0.00000000  0.76274200  0.00000000  1
  O  O24  1  0.65561100  0.00000000  0.79445700  1
  O  O25  1  0.34438900  0.00000000  0.20554300  1
  O  O26  1  0.60927700  0.19946300  0.43459600  1
  O  O27  1  0.60927700  0.80053700  0.43459600  1
  O  O28  1  0.39072300  0.19946300  0.56540400  1
  O  O29  1  0.39072300  0.80053700  0.56540400  1
  O  O30  1  0.15561100  0.50000000  0.79445700  1
  O  O31  1  0.84438900  0.50000000  0.20554300  1
  O  O32  1  0.10927700  0.69946300  0.43459600  1
  O  O33  1  0.10927700  0.30053700  0.43459600  1
  O  O34  1  0.89072300  0.69946300  0.56540400  1
  O  O35  1  0.89072300  0.30053700  0.56540400  1
