# generated using pymatgen
data_SbH12C2N6F5
_symmetry_space_group_name_H-M   'P 1'
_cell_length_a   16.00386600
_cell_length_b   8.51186800
_cell_length_c   9.77613287
_cell_angle_alpha   90.00000000
_cell_angle_beta   121.21280088
_cell_angle_gamma   90.00000000
_symmetry_Int_Tables_number   1
_chemical_formula_structural   SbH12C2N6F5
_chemical_formula_sum   'Sb4 H48 C8 N24 F20'
_cell_volume   1138.96192113
_cell_formula_units_Z   4
loop_
 _symmetry_equiv_pos_site_id
 _symmetry_equiv_pos_as_xyz
  1  'x, y, z'
loop_
 _atom_site_type_symbol
 _atom_site_label
 _atom_site_symmetry_multiplicity
 _atom_site_fract_x
 _atom_site_fract_y
 _atom_site_fract_z
 _atom_site_occupancy
  Sb  Sb0  1  0.34568500  0.00000000  0.86211600  1
  Sb  Sb1  1  0.15431500  0.50000000  0.13788400  1
  Sb  Sb2  1  0.84568500  0.50000000  0.86211600  1
  Sb  Sb3  1  0.65431500  0.00000000  0.13788400  1
  H  H4  1  0.39125700  0.60491800  0.77019700  1
  H  H5  1  0.39125700  0.39508200  0.77019700  1
  H  H6  1  0.10874300  0.89508200  0.22980300  1
  H  H7  1  0.10874300  0.10491800  0.22980300  1
  H  H8  1  0.12822200  0.86088700  0.83018200  1
  H  H9  1  0.12822200  0.13911300  0.83018200  1
  H  H10  1  0.37177800  0.63911300  0.16981800  1
  H  H11  1  0.37177800  0.36088700  0.16981800  1
  H  H12  1  0.02388500  0.76223500  0.80563100  1
  H  H13  1  0.02388500  0.23776500  0.80563100  1
  H  H14  1  0.47611500  0.73776500  0.19436900  1
  H  H15  1  0.47611500  0.26223500  0.19436900  1
  H  H16  1  0.26996300  0.10448200  0.13666400  1
  H  H17  1  0.26996300  0.89551800  0.13666400  1
  H  H18  1  0.23003700  0.39551800  0.86333600  1
  H  H19  1  0.23003700  0.60448200  0.86333600  1
  H  H20  1  0.35254850  0.86115250  0.54830800  1
  H  H21  1  0.35254850  0.13884750  0.54830800  1
  H  H22  1  0.14745150  0.63884750  0.45169200  1
  H  H23  1  0.14745150  0.36115250  0.45169200  1
  H  H24  1  0.31726900  0.76099200  0.37004500  1
  H  H25  1  0.31726900  0.23900800  0.37004500  1
  H  H26  1  0.18273100  0.73900800  0.62995500  1
  H  H27  1  0.18273100  0.26099200  0.62995500  1
  H  H28  1  0.89125700  0.10491800  0.77019700  1
  H  H29  1  0.89125700  0.89508200  0.77019700  1
  H  H30  1  0.60874300  0.39508200  0.22980300  1
  H  H31  1  0.60874300  0.60491800  0.22980300  1
  H  H32  1  0.62822200  0.36088700  0.83018200  1
  H  H33  1  0.62822200  0.63911300  0.83018200  1
  H  H34  1  0.87177800  0.13911300  0.16981800  1
  H  H35  1  0.87177800  0.86088700  0.16981800  1
  H  H36  1  0.52388500  0.26223500  0.80563100  1
  H  H37  1  0.52388500  0.73776500  0.80563100  1
  H  H38  1  0.97611500  0.23776500  0.19436900  1
  H  H39  1  0.97611500  0.76223500  0.19436900  1
  H  H40  1  0.76996300  0.60448200  0.13666400  1
  H  H41  1  0.76996300  0.39551800  0.13666400  1
  H  H42  1  0.73003700  0.89551800  0.86333600  1
  H  H43  1  0.73003700  0.10448200  0.86333600  1
  H  H44  1  0.85254850  0.36115250  0.54830800  1
  H  H45  1  0.85254850  0.63884750  0.54830800  1
  H  H46  1  0.64745150  0.13884750  0.45169200  1
  H  H47  1  0.64745150  0.86115250  0.45169200  1
  H  H48  1  0.81726900  0.26099200  0.37004500  1
  H  H49  1  0.81726900  0.73900800  0.37004500  1
  H  H50  1  0.68273100  0.23900800  0.62995500  1
  H  H51  1  0.68273100  0.76099200  0.62995500  1
  C  C52  1  0.01433600  0.00000000  0.80155100  1
  C  C53  1  0.48566400  0.50000000  0.19844900  1
  C  C54  1  0.31955700  0.00000000  0.35406300  1
  C  C55  1  0.18044300  0.50000000  0.64593700  1
  C  C56  1  0.51433600  0.50000000  0.80155100  1
  C  C57  1  0.98566400  0.00000000  0.19844900  1
  C  C58  1  0.81955700  0.50000000  0.35406300  1
  C  C59  1  0.68044300  0.00000000  0.64593700  1
  N  N60  1  0.42457200  0.50000000  0.77951600  1
  N  N61  1  0.07542800  0.00000000  0.22048400  1
  N  N62  1  0.05934550  0.86385150  0.81278000  1
  N  N63  1  0.05934550  0.13614850  0.81278000  1
  N  N64  1  0.44065450  0.63614850  0.18722000  1
  N  N65  1  0.44065450  0.36385150  0.18722000  1
  N  N66  1  0.28416500  0.00000000  0.19627100  1
  N  N67  1  0.21583500  0.50000000  0.80372900  1
  N  N68  1  0.33720350  0.86359650  0.43291500  1
  N  N69  1  0.33720350  0.13640350  0.43291500  1
  N  N70  1  0.16279650  0.63640350  0.56708500  1
  N  N71  1  0.16279650  0.36359650  0.56708500  1
  N  N72  1  0.92457200  0.00000000  0.77951600  1
  N  N73  1  0.57542800  0.50000000  0.22048400  1
  N  N74  1  0.55934550  0.36385150  0.81278000  1
  N  N75  1  0.55934550  0.63614850  0.81278000  1
  N  N76  1  0.94065450  0.13614850  0.18722000  1
  N  N77  1  0.94065450  0.86385150  0.18722000  1
  N  N78  1  0.78416500  0.50000000  0.19627100  1
  N  N79  1  0.71583500  0.00000000  0.80372900  1
  N  N80  1  0.83720350  0.36359650  0.43291500  1
  N  N81  1  0.83720350  0.63640350  0.43291500  1
  N  N82  1  0.66279650  0.13640350  0.56708500  1
  N  N83  1  0.66279650  0.86359650  0.56708500  1
  F  F84  1  0.24053900  0.00000000  0.63660500  1
  F  F85  1  0.25946100  0.50000000  0.36339500  1
  F  F86  1  0.39926800  0.17120500  0.76871700  1
  F  F87  1  0.39926800  0.82879500  0.76871700  1
  F  F88  1  0.10073200  0.32879500  0.23128300  1
  F  F89  1  0.10073200  0.67120500  0.23128300  1
  F  F90  1  0.24988600  0.83038100  0.86717800  1
  F  F91  1  0.24988600  0.16961900  0.86717800  1
  F  F92  1  0.25011400  0.66961900  0.13282200  1
  F  F93  1  0.25011400  0.33038100  0.13282200  1
  F  F94  1  0.74053900  0.50000000  0.63660500  1
  F  F95  1  0.75946100  0.00000000  0.36339500  1
  F  F96  1  0.89926800  0.67120500  0.76871700  1
  F  F97  1  0.89926800  0.32879500  0.76871700  1
  F  F98  1  0.60073200  0.82879500  0.23128300  1
  F  F99  1  0.60073200  0.17120500  0.23128300  1
  F  F100  1  0.74988600  0.33038100  0.86717800  1
  F  F101  1  0.74988600  0.66961900  0.86717800  1
  F  F102  1  0.75011400  0.16961900  0.13282200  1
  F  F103  1  0.75011400  0.83038100  0.13282200  1
