# generated using pymatgen
data_SrTi2O5
_symmetry_space_group_name_H-M   'P 1'
_cell_length_a   7.98284800
_cell_length_b   16.39812600
_cell_length_c   11.55570500
_cell_angle_alpha   90.00000000
_cell_angle_beta   90.00000000
_cell_angle_gamma   90.00000000
_symmetry_Int_Tables_number   1
_chemical_formula_structural   SrTi2O5
_chemical_formula_sum   'Sr8 Ti16 O40'
_cell_volume   1512.68508769
_cell_formula_units_Z   8
loop_
 _symmetry_equiv_pos_site_id
 _symmetry_equiv_pos_as_xyz
  1  'x, y, z'
loop_
 _atom_site_type_symbol
 _atom_site_label
 _atom_site_symmetry_multiplicity
 _atom_site_fract_x
 _atom_site_fract_y
 _atom_site_fract_z
 _atom_site_occupancy
  Sr  Sr0  1  0.50000000  0.00000000  0.61238500  1
  Sr  Sr1  1  0.50000000  0.26938100  0.60417500  1
  Sr  Sr2  1  0.00000000  0.23061900  0.60417500  1
  Sr  Sr3  1  0.00000000  0.00000000  0.63673600  1
  Sr  Sr4  1  0.00000000  0.50000000  0.61238500  1
  Sr  Sr5  1  0.00000000  0.76938100  0.60417500  1
  Sr  Sr6  1  0.50000000  0.73061900  0.60417500  1
  Sr  Sr7  1  0.50000000  0.50000000  0.63673600  1
  Ti  Ti8  1  0.23791400  0.36481300  0.75317000  1
  Ti  Ti9  1  0.26208600  0.13518700  0.75317000  1
  Ti  Ti10  1  0.76208600  0.36481300  0.75317000  1
  Ti  Ti11  1  0.73791400  0.13518700  0.75317000  1
  Ti  Ti12  1  0.28560500  0.00000000  0.93134600  1
  Ti  Ti13  1  0.71439500  0.00000000  0.93134600  1
  Ti  Ti14  1  0.50000000  0.37675400  0.95759900  1
  Ti  Ti15  1  0.00000000  0.12324600  0.95759900  1
  Ti  Ti16  1  0.73791400  0.86481300  0.75317000  1
  Ti  Ti17  1  0.76208600  0.63518700  0.75317000  1
  Ti  Ti18  1  0.26208600  0.86481300  0.75317000  1
  Ti  Ti19  1  0.23791400  0.63518700  0.75317000  1
  Ti  Ti20  1  0.78560500  0.50000000  0.93134600  1
  Ti  Ti21  1  0.21439500  0.50000000  0.93134600  1
  Ti  Ti22  1  0.00000000  0.87675400  0.95759900  1
  Ti  Ti23  1  0.50000000  0.62324600  0.95759900  1
  O  O24  1  0.00000000  0.18810700  0.06699400  1
  O  O25  1  0.28497200  0.00000000  0.77156300  1
  O  O26  1  0.28307550  0.38888550  0.60017500  1
  O  O27  1  0.50000000  0.13480500  0.73164900  1
  O  O28  1  0.00000000  0.13645900  0.77812000  1
  O  O29  1  0.25569100  0.38641400  0.92361900  1
  O  O30  1  0.25000000  0.25000000  0.73274600  1
  O  O31  1  0.75569100  0.11358600  0.92361900  1
  O  O32  1  0.24430900  0.11358600  0.92361900  1
  O  O33  1  0.71692450  0.38888550  0.60017500  1
  O  O34  1  0.00000000  0.36519500  0.73164900  1
  O  O35  1  0.75000000  0.25000000  0.73274600  1
  O  O36  1  0.50000000  0.36354100  0.77812000  1
  O  O37  1  0.50000000  0.31189300  0.06699400  1
  O  O38  1  0.78307550  0.11111450  0.60017500  1
  O  O39  1  0.71502800  0.00000000  0.77156300  1
  O  O40  1  0.21692450  0.11111450  0.60017500  1
  O  O41  1  0.50000000  0.00000000  0.98594600  1
  O  O42  1  0.00000000  0.00000000  0.98442600  1
  O  O43  1  0.74430900  0.38641400  0.92361900  1
  O  O44  1  0.50000000  0.68810700  0.06699400  1
  O  O45  1  0.78497200  0.50000000  0.77156300  1
  O  O46  1  0.78307550  0.88888550  0.60017500  1
  O  O47  1  0.00000000  0.63480500  0.73164900  1
  O  O48  1  0.50000000  0.63645900  0.77812000  1
  O  O49  1  0.75569100  0.88641400  0.92361900  1
  O  O50  1  0.75000000  0.75000000  0.73274600  1
  O  O51  1  0.25569100  0.61358600  0.92361900  1
  O  O52  1  0.74430900  0.61358600  0.92361900  1
  O  O53  1  0.21692450  0.88888550  0.60017500  1
  O  O54  1  0.50000000  0.86519500  0.73164900  1
  O  O55  1  0.25000000  0.75000000  0.73274600  1
  O  O56  1  0.00000000  0.86354100  0.77812000  1
  O  O57  1  0.00000000  0.81189300  0.06699400  1
  O  O58  1  0.28307550  0.61111450  0.60017500  1
  O  O59  1  0.21502800  0.50000000  0.77156300  1
  O  O60  1  0.71692450  0.61111450  0.60017500  1
  O  O61  1  0.00000000  0.50000000  0.98594600  1
  O  O62  1  0.50000000  0.50000000  0.98442600  1
  O  O63  1  0.24430900  0.88641400  0.92361900  1
