# generated using pymatgen
data_Ag7P3S11
_symmetry_space_group_name_H-M   'P 1'
_cell_length_a   24.45266000
_cell_length_b   6.44069800
_cell_length_c   24.87109545
_cell_angle_alpha   90.00000000
_cell_angle_beta   110.80104202
_cell_angle_gamma   90.00000000
_symmetry_Int_Tables_number   1
_chemical_formula_structural   Ag7P3S11
_chemical_formula_sum   'Ag56 P24 S88'
_cell_volume   3661.69014696
_cell_formula_units_Z   8
loop_
 _symmetry_equiv_pos_site_id
 _symmetry_equiv_pos_as_xyz
  1  'x, y, z'
loop_
 _atom_site_type_symbol
 _atom_site_label
 _atom_site_symmetry_multiplicity
 _atom_site_fract_x
 _atom_site_fract_y
 _atom_site_fract_z
 _atom_site_occupancy
  Ag  Ag0  1  0.02280750  0.19088850  0.68662700  1
  Ag  Ag1  1  0.10995700  0.28943100  0.90056300  1
  Ag  Ag2  1  0.97719250  0.19088850  0.81337300  1
  Ag  Ag3  1  0.75949250  0.94159150  0.06718300  1
  Ag  Ag4  1  0.25949250  0.55840850  0.56718300  1
  Ag  Ag5  1  0.90960550  0.73545350  0.68187300  1
  Ag  Ag6  1  0.59119200  0.32383000  0.10627500  1
  Ag  Ag7  1  0.90960550  0.26454650  0.18187300  1
  Ag  Ag8  1  0.82905750  0.27858050  0.31427600  1
  Ag  Ag9  1  0.24050750  0.05840850  0.93281700  1
  Ag  Ag10  1  0.02280750  0.80911150  0.18662700  1
  Ag  Ag11  1  0.09119200  0.17617000  0.60627500  1
  Ag  Ag12  1  0.89004300  0.71056900  0.09943700  1
  Ag  Ag13  1  0.17094250  0.72141950  0.68572400  1
  Ag  Ag14  1  0.09039450  0.73545350  0.81812700  1
  Ag  Ag15  1  0.97719250  0.80911150  0.31337300  1
  Ag  Ag16  1  0.74633100  0.30490900  0.14512600  1
  Ag  Ag17  1  0.32905750  0.22141950  0.81427600  1
  Ag  Ag18  1  0.74050750  0.44159150  0.43281700  1
  Ag  Ag19  1  0.25366900  0.69509100  0.85487400  1
  Ag  Ag20  1  0.89004300  0.28943100  0.59943700  1
  Ag  Ag21  1  0.90880800  0.82383000  0.39372500  1
  Ag  Ag22  1  0.10995700  0.71056900  0.40056300  1
  Ag  Ag23  1  0.67094250  0.77858050  0.18572400  1
  Ag  Ag24  1  0.40880800  0.67617000  0.89372500  1
  Ag  Ag25  1  0.09039450  0.26454650  0.31812700  1
  Ag  Ag26  1  0.24633100  0.19509100  0.64512600  1
  Ag  Ag27  1  0.75366900  0.80490900  0.35487400  1
  Ag  Ag28  1  0.52280750  0.69088850  0.68662700  1
  Ag  Ag29  1  0.60995700  0.78943100  0.90056300  1
  Ag  Ag30  1  0.47719250  0.69088850  0.81337300  1
  Ag  Ag31  1  0.25949250  0.44159150  0.06718300  1
  Ag  Ag32  1  0.75949250  0.05840850  0.56718300  1
  Ag  Ag33  1  0.40960550  0.23545350  0.68187300  1
  Ag  Ag34  1  0.09119200  0.82383000  0.10627500  1
  Ag  Ag35  1  0.40960550  0.76454650  0.18187300  1
  Ag  Ag36  1  0.32905750  0.77858050  0.31427600  1
  Ag  Ag37  1  0.74050750  0.55840850  0.93281700  1
  Ag  Ag38  1  0.52280750  0.30911150  0.18662700  1
  Ag  Ag39  1  0.59119200  0.67617000  0.60627500  1
  Ag  Ag40  1  0.39004300  0.21056900  0.09943700  1
  Ag  Ag41  1  0.67094250  0.22141950  0.68572400  1
  Ag  Ag42  1  0.59039450  0.23545350  0.81812700  1
  Ag  Ag43  1  0.47719250  0.30911150  0.31337300  1
  Ag  Ag44  1  0.24633100  0.80490900  0.14512600  1
  Ag  Ag45  1  0.82905750  0.72141950  0.81427600  1
  Ag  Ag46  1  0.24050750  0.94159150  0.43281700  1
  Ag  Ag47  1  0.75366900  0.19509100  0.85487400  1
  Ag  Ag48  1  0.39004300  0.78943100  0.59943700  1
  Ag  Ag49  1  0.40880800  0.32383000  0.39372500  1
  Ag  Ag50  1  0.60995700  0.21056900  0.40056300  1
  Ag  Ag51  1  0.17094250  0.27858050  0.18572400  1
  Ag  Ag52  1  0.90880800  0.17617000  0.89372500  1
  Ag  Ag53  1  0.59039450  0.76454650  0.31812700  1
  Ag  Ag54  1  0.74633100  0.69509100  0.64512600  1
  Ag  Ag55  1  0.25366900  0.30490900  0.35487400  1
  P  P56  1  0.01037150  0.69997950  0.60568400  1
  P  P57  1  0.66721500  0.29407700  0.27895900  1
  P  P58  1  0.85827900  0.18628900  0.01795500  1
  P  P59  1  0.98962850  0.69997950  0.89431600  1
  P  P60  1  0.01037150  0.30002050  0.10568400  1
  P  P61  1  0.85827900  0.81371100  0.51795500  1
  P  P62  1  0.14172100  0.81371100  0.98204500  1
  P  P63  1  0.83278500  0.79407700  0.22104100  1
  P  P64  1  0.98962850  0.30002050  0.39431600  1
  P  P65  1  0.33278500  0.70592300  0.72104100  1
  P  P66  1  0.16721500  0.20592300  0.77895900  1
  P  P67  1  0.14172100  0.18628900  0.48204500  1
  P  P68  1  0.51037150  0.19997950  0.60568400  1
  P  P69  1  0.16721500  0.79407700  0.27895900  1
  P  P70  1  0.35827900  0.68628900  0.01795500  1
  P  P71  1  0.48962850  0.19997950  0.89431600  1
  P  P72  1  0.51037150  0.80002050  0.10568400  1
  P  P73  1  0.35827900  0.31371100  0.51795500  1
  P  P74  1  0.64172100  0.31371100  0.98204500  1
  P  P75  1  0.33278500  0.29407700  0.22104100  1
  P  P76  1  0.48962850  0.80002050  0.39431600  1
  P  P77  1  0.83278500  0.20592300  0.72104100  1
  P  P78  1  0.66721500  0.70592300  0.77895900  1
  P  P79  1  0.64172100  0.68628900  0.48204500  1
  S  S80  1  0.82932100  0.68143200  0.29642500  1
  S  S81  1  0.67067900  0.18143200  0.20357500  1
  S  S82  1  0.75941100  0.70017700  0.15205600  1
  S  S83  1  0.95036400  0.87897500  0.53777300  1
  S  S84  1  0.24058900  0.29982300  0.84794400  1
  S  S85  1  0.01085800  0.20620700  0.18449900  1
  S  S86  1  0.33619300  0.85305900  0.94216200  1
  S  S87  1  0.01085800  0.79379300  0.68449900  1
  S  S88  1  0.82451550  0.10944450  0.50750600  1
  S  S89  1  0.58385950  0.71613550  0.09086600  1
  S  S90  1  0.83603650  0.34394750  0.07690900  1
  S  S91  1  0.32932100  0.81856800  0.79642500  1
  S  S92  1  0.98914200  0.20620700  0.31550100  1
  S  S93  1  0.91614050  0.21613550  0.40913400  1
  S  S94  1  0.04963600  0.87897500  0.96222700  1
  S  S95  1  0.82451550  0.89055550  0.00750600  1
  S  S96  1  0.00640100  0.38616900  0.90945800  1
  S  S97  1  0.00640100  0.61383100  0.40945800  1
  S  S98  1  0.16380700  0.35305900  0.55783800  1
  S  S99  1  0.66380700  0.14694100  0.05783800  1
  S  S100  1  0.83619300  0.64694100  0.44216200  1
  S  S101  1  0.16651750  0.88055650  0.77885100  1
  S  S102  1  0.08385950  0.78386450  0.59086600  1
  S  S103  1  0.04963600  0.12102500  0.46222700  1
  S  S104  1  0.09160750  0.31495650  0.78968400  1
  S  S105  1  0.17548450  0.89055550  0.49249400  1
  S  S106  1  0.74058900  0.20017700  0.34794400  1
  S  S107  1  0.83348250  0.11944350  0.22114900  1
  S  S108  1  0.41614050  0.28386450  0.90913400  1
  S  S109  1  0.90839250  0.68504350  0.21031600  1
  S  S110  1  0.17067900  0.31856800  0.70357500  1
  S  S111  1  0.66651750  0.61944350  0.27885100  1
  S  S112  1  0.16396350  0.65605250  0.92309100  1
  S  S113  1  0.17548450  0.10944450  0.99249400  1
  S  S114  1  0.09160750  0.68504350  0.28968400  1
  S  S115  1  0.99359900  0.38616900  0.59054200  1
  S  S116  1  0.33348250  0.38055650  0.72114900  1
  S  S117  1  0.95036400  0.12102500  0.03777300  1
  S  S118  1  0.25941100  0.79982300  0.65205600  1
  S  S119  1  0.83603650  0.65605250  0.57690900  1
  S  S120  1  0.16396350  0.34394750  0.42309100  1
  S  S121  1  0.90839250  0.31495650  0.71031600  1
  S  S122  1  0.99359900  0.61383100  0.09054200  1
  S  S123  1  0.98914200  0.79379300  0.81550100  1
  S  S124  1  0.32932100  0.18143200  0.29642500  1
  S  S125  1  0.17067900  0.68143200  0.20357500  1
  S  S126  1  0.25941100  0.20017700  0.15205600  1
  S  S127  1  0.45036400  0.37897500  0.53777300  1
  S  S128  1  0.74058900  0.79982300  0.84794400  1
  S  S129  1  0.51085800  0.70620700  0.18449900  1
  S  S130  1  0.83619300  0.35305900  0.94216200  1
  S  S131  1  0.51085800  0.29379300  0.68449900  1
  S  S132  1  0.32451550  0.60944450  0.50750600  1
  S  S133  1  0.08385950  0.21613550  0.09086600  1
  S  S134  1  0.33603650  0.84394750  0.07690900  1
  S  S135  1  0.82932100  0.31856800  0.79642500  1
  S  S136  1  0.48914200  0.70620700  0.31550100  1
  S  S137  1  0.41614050  0.71613550  0.40913400  1
  S  S138  1  0.54963600  0.37897500  0.96222700  1
  S  S139  1  0.32451550  0.39055550  0.00750600  1
  S  S140  1  0.50640100  0.88616900  0.90945800  1
  S  S141  1  0.50640100  0.11383100  0.40945800  1
  S  S142  1  0.66380700  0.85305900  0.55783800  1
  S  S143  1  0.16380700  0.64694100  0.05783800  1
  S  S144  1  0.33619300  0.14694100  0.44216200  1
  S  S145  1  0.66651750  0.38055650  0.77885100  1
  S  S146  1  0.58385950  0.28386450  0.59086600  1
  S  S147  1  0.54963600  0.62102500  0.46222700  1
  S  S148  1  0.59160750  0.81495650  0.78968400  1
  S  S149  1  0.67548450  0.39055550  0.49249400  1
  S  S150  1  0.24058900  0.70017700  0.34794400  1
  S  S151  1  0.33348250  0.61944350  0.22114900  1
  S  S152  1  0.91614050  0.78386450  0.90913400  1
  S  S153  1  0.40839250  0.18504350  0.21031600  1
  S  S154  1  0.67067900  0.81856800  0.70357500  1
  S  S155  1  0.16651750  0.11944350  0.27885100  1
  S  S156  1  0.66396350  0.15605250  0.92309100  1
  S  S157  1  0.67548450  0.60944450  0.99249400  1
  S  S158  1  0.59160750  0.18504350  0.28968400  1
  S  S159  1  0.49359900  0.88616900  0.59054200  1
  S  S160  1  0.83348250  0.88055650  0.72114900  1
  S  S161  1  0.45036400  0.62102500  0.03777300  1
  S  S162  1  0.75941100  0.29982300  0.65205600  1
  S  S163  1  0.33603650  0.15605250  0.57690900  1
  S  S164  1  0.66396350  0.84394750  0.42309100  1
  S  S165  1  0.40839250  0.81495650  0.71031600  1
  S  S166  1  0.49359900  0.11383100  0.09054200  1
  S  S167  1  0.48914200  0.29379300  0.81550100  1
