# generated using pymatgen
data_TiZnH12(OF)6
_symmetry_space_group_name_H-M   'P 1'
_cell_length_a   9.66060232
_cell_length_b   9.66060232
_cell_length_c   10.14252132
_cell_angle_alpha   90.00000000
_cell_angle_beta   90.00000000
_cell_angle_gamma   120.00000000
_symmetry_Int_Tables_number   1
_chemical_formula_structural   TiZnH12(OF)6
_chemical_formula_sum   'Ti3 Zn3 H36 O18 F18'
_cell_volume   819.75669110
_cell_formula_units_Z   3
loop_
 _symmetry_equiv_pos_site_id
 _symmetry_equiv_pos_as_xyz
  1  'x, y, z'
loop_
 _atom_site_type_symbol
 _atom_site_label
 _atom_site_symmetry_multiplicity
 _atom_site_fract_x
 _atom_site_fract_y
 _atom_site_fract_z
 _atom_site_occupancy
  Ti  Ti0  1  0.00000000  0.00000000  0.50000000  1
  Ti  Ti1  1  0.66666667  0.33333333  0.83333333  1
  Ti  Ti2  1  0.33333333  0.66666667  0.16666667  1
  Zn  Zn3  1  0.00000000  0.00000000  0.00000000  1
  Zn  Zn4  1  0.66666667  0.33333333  0.33333333  1
  Zn  Zn5  1  0.33333333  0.66666667  0.66666667  1
  H  H6  1  0.82806567  0.00486533  0.21684333  1
  H  H7  1  0.62762133  0.73900367  0.56871767  1
  H  H8  1  0.73900367  0.11138233  0.43128233  1
  H  H9  1  0.99513467  0.82320033  0.21684333  1
  H  H10  1  0.88861767  0.62762133  0.43128233  1
  H  H11  1  0.17679967  0.17193433  0.21684333  1
  H  H12  1  0.82320033  0.82806567  0.78315667  1
  H  H13  1  0.11138233  0.37237867  0.56871767  1
  H  H14  1  0.00486533  0.17679967  0.78315667  1
  H  H15  1  0.26099633  0.88861767  0.56871767  1
  H  H16  1  0.37237867  0.26099633  0.43128233  1
  H  H17  1  0.17193433  0.99513467  0.78315667  1
  H  H18  1  0.49473233  0.33819867  0.55017667  1
  H  H19  1  0.29428800  0.07233700  0.90205100  1
  H  H20  1  0.40567033  0.44471567  0.76461567  1
  H  H21  1  0.66180133  0.15653367  0.55017667  1
  H  H22  1  0.55528433  0.96095467  0.76461567  1
  H  H23  1  0.84346633  0.50526767  0.55017667  1
  H  H24  1  0.48986700  0.16139900  0.11649000  1
  H  H25  1  0.77804900  0.70571200  0.90205100  1
  H  H26  1  0.67153200  0.51013300  0.11649000  1
  H  H27  1  0.92766300  0.22195100  0.90205100  1
  H  H28  1  0.03904533  0.59432967  0.76461567  1
  H  H29  1  0.83860100  0.32846800  0.11649000  1
  H  H30  1  0.16139900  0.67153200  0.88351000  1
  H  H31  1  0.96095467  0.40567033  0.23538433  1
  H  H32  1  0.07233700  0.77804900  0.09794900  1
  H  H33  1  0.32846800  0.48986700  0.88351000  1
  H  H34  1  0.22195100  0.29428800  0.09794900  1
  H  H35  1  0.51013300  0.83860100  0.88351000  1
  H  H36  1  0.15653367  0.49473233  0.44982333  1
  H  H37  1  0.44471567  0.03904533  0.23538433  1
  H  H38  1  0.33819867  0.84346633  0.44982333  1
  H  H39  1  0.59432967  0.55528433  0.23538433  1
  H  H40  1  0.70571200  0.92766300  0.09794900  1
  H  H41  1  0.50526767  0.66180133  0.44982333  1
  O  O42  1  0.51421900  0.67089600  0.54653100  1
  O  O43  1  0.67089600  0.15667700  0.45346900  1
  O  O44  1  0.84332300  0.51421900  0.45346900  1
  O  O45  1  0.15667700  0.48578100  0.54653100  1
  O  O46  1  0.32910400  0.84332300  0.54653100  1
  O  O47  1  0.48578100  0.32910400  0.45346900  1
  O  O48  1  0.18088567  0.00422933  0.87986433  1
  O  O49  1  0.33756267  0.49001033  0.78680233  1
  O  O50  1  0.50998967  0.84755233  0.78680233  1
  O  O51  1  0.82334367  0.81911433  0.87986433  1
  O  O52  1  0.99577067  0.17665633  0.87986433  1
  O  O53  1  0.15244767  0.66243733  0.78680233  1
  O  O54  1  0.84755233  0.33756267  0.21319767  1
  O  O55  1  0.00422933  0.82334367  0.12013567  1
  O  O56  1  0.17665633  0.18088567  0.12013567  1
  O  O57  1  0.49001033  0.15244767  0.21319767  1
  O  O58  1  0.66243733  0.50998967  0.21319767  1
  O  O59  1  0.81911433  0.99577067  0.12013567  1
  F  F60  1  0.85520667  0.02420333  0.38985133  1
  F  F61  1  0.97579667  0.83100333  0.38985133  1
  F  F62  1  0.83100333  0.85520667  0.61014867  1
  F  F63  1  0.16899667  0.14479333  0.38985133  1
  F  F64  1  0.02420333  0.16899667  0.61014867  1
  F  F65  1  0.14479333  0.97579667  0.61014867  1
  F  F66  1  0.52187333  0.35753667  0.72318467  1
  F  F67  1  0.64246333  0.16433667  0.72318467  1
  F  F68  1  0.49767000  0.18854000  0.94348200  1
  F  F69  1  0.83566333  0.47812667  0.72318467  1
  F  F70  1  0.69087000  0.50233000  0.94348200  1
  F  F71  1  0.81146000  0.30913000  0.94348200  1
  F  F72  1  0.18854000  0.69087000  0.05651800  1
  F  F73  1  0.30913000  0.49767000  0.05651800  1
  F  F74  1  0.16433667  0.52187333  0.27681533  1
  F  F75  1  0.50233000  0.81146000  0.05651800  1
  F  F76  1  0.35753667  0.83566333  0.27681533  1
  F  F77  1  0.47812667  0.64246333  0.27681533  1
