# generated using pymatgen
data_Li2HN
_symmetry_space_group_name_H-M   'P 1'
_cell_length_a   7.10003000
_cell_length_b   7.12988000
_cell_length_c   10.08894400
_cell_angle_alpha   90.00000000
_cell_angle_beta   90.00000000
_cell_angle_gamma   90.00000000
_symmetry_Int_Tables_number   1
_chemical_formula_structural   Li2HN
_chemical_formula_sum   'Li32 H16 N16'
_cell_volume   510.72617432
_cell_formula_units_Z   16
loop_
 _symmetry_equiv_pos_site_id
 _symmetry_equiv_pos_as_xyz
  1  'x, y, z'
loop_
 _atom_site_type_symbol
 _atom_site_label
 _atom_site_symmetry_multiplicity
 _atom_site_fract_x
 _atom_site_fract_y
 _atom_site_fract_z
 _atom_site_occupancy
  Li  Li0  1  0.00000000  0.25000000  0.61721000  1
  Li  Li1  1  0.00000000  0.75000000  0.38279000  1
  Li  Li2  1  0.50000000  0.75000000  0.62356200  1
  Li  Li3  1  0.50000000  0.25000000  0.37643800  1
  Li  Li4  1  0.50000000  0.75000000  0.39413000  1
  Li  Li5  1  0.50000000  0.25000000  0.60587000  1
  Li  Li6  1  0.25000000  0.75000000  0.25000000  1
  Li  Li7  1  0.75000000  0.75000000  0.25000000  1
  Li  Li8  1  0.76670800  0.50756250  0.88444500  1
  Li  Li9  1  0.76670800  0.49243750  0.11555500  1
  Li  Li10  1  0.26670800  0.49243750  0.38444500  1
  Li  Li11  1  0.26670800  0.50756250  0.61555500  1
  Li  Li12  1  0.73329200  0.50756250  0.61555500  1
  Li  Li13  1  0.73329200  0.49243750  0.38444500  1
  Li  Li14  1  0.23329200  0.49243750  0.11555500  1
  Li  Li15  1  0.23329200  0.50756250  0.88444500  1
  Li  Li16  1  0.50000000  0.75000000  0.11721000  1
  Li  Li17  1  0.50000000  0.25000000  0.88279000  1
  Li  Li18  1  0.00000000  0.25000000  0.12356200  1
  Li  Li19  1  0.00000000  0.75000000  0.87643800  1
  Li  Li20  1  0.00000000  0.25000000  0.89413000  1
  Li  Li21  1  0.00000000  0.75000000  0.10587000  1
  Li  Li22  1  0.75000000  0.25000000  0.75000000  1
  Li  Li23  1  0.25000000  0.25000000  0.75000000  1
  Li  Li24  1  0.26670800  0.00756250  0.38444500  1
  Li  Li25  1  0.26670800  0.99243750  0.61555500  1
  Li  Li26  1  0.76670800  0.99243750  0.88444500  1
  Li  Li27  1  0.76670800  0.00756250  0.11555500  1
  Li  Li28  1  0.23329200  0.00756250  0.11555500  1
  Li  Li29  1  0.23329200  0.99243750  0.88444500  1
  Li  Li30  1  0.73329200  0.99243750  0.61555500  1
  Li  Li31  1  0.73329200  0.00756250  0.38444500  1
  H  H32  1  0.85904100  0.25000000  0.44947800  1
  H  H33  1  0.85904100  0.75000000  0.55052200  1
  H  H34  1  0.14095900  0.25000000  0.44947800  1
  H  H35  1  0.14095900  0.75000000  0.55052200  1
  H  H36  1  0.50000000  0.58186250  0.80543100  1
  H  H37  1  0.50000000  0.41813750  0.19456900  1
  H  H38  1  0.00000000  0.41813750  0.30543100  1
  H  H39  1  0.00000000  0.58186250  0.69456900  1
  H  H40  1  0.35904100  0.75000000  0.94947800  1
  H  H41  1  0.35904100  0.25000000  0.05052200  1
  H  H42  1  0.64095900  0.75000000  0.94947800  1
  H  H43  1  0.64095900  0.25000000  0.05052200  1
  H  H44  1  0.00000000  0.08186250  0.30543100  1
  H  H45  1  0.00000000  0.91813750  0.69456900  1
  H  H46  1  0.50000000  0.91813750  0.80543100  1
  H  H47  1  0.50000000  0.08186250  0.19456900  1
  N  N48  1  0.73982050  0.75000000  0.49129750  1
  N  N49  1  0.73982050  0.25000000  0.50870250  1
  N  N50  1  0.26017950  0.75000000  0.49129750  1
  N  N51  1  0.26017950  0.25000000  0.50870250  1
  N  N52  1  0.00000000  0.46922050  0.75938300  1
  N  N53  1  0.00000000  0.53077950  0.24061700  1
  N  N54  1  0.50000000  0.53077950  0.25938300  1
  N  N55  1  0.50000000  0.46922050  0.74061700  1
  N  N56  1  0.23982050  0.25000000  0.99129750  1
  N  N57  1  0.23982050  0.75000000  0.00870250  1
  N  N58  1  0.76017950  0.25000000  0.99129750  1
  N  N59  1  0.76017950  0.75000000  0.00870250  1
  N  N60  1  0.50000000  0.96922050  0.25938300  1
  N  N61  1  0.50000000  0.03077950  0.74061700  1
  N  N62  1  0.00000000  0.03077950  0.75938300  1
  N  N63  1  0.00000000  0.96922050  0.24061700  1
