# generated using pymatgen
data_HgTe(H2O3)2
_symmetry_space_group_name_H-M   'P 1'
_cell_length_a   6.17505800
_cell_length_b   8.43556200
_cell_length_c   11.02382700
_cell_angle_alpha   90.00000000
_cell_angle_beta   90.00000000
_cell_angle_gamma   90.00000000
_symmetry_Int_Tables_number   1
_chemical_formula_structural   HgTe(H2O3)2
_chemical_formula_sum   'Hg4 Te4 H16 O24'
_cell_volume   574.23208118
_cell_formula_units_Z   4
loop_
 _symmetry_equiv_pos_site_id
 _symmetry_equiv_pos_as_xyz
  1  'x, y, z'
loop_
 _atom_site_type_symbol
 _atom_site_label
 _atom_site_symmetry_multiplicity
 _atom_site_fract_x
 _atom_site_fract_y
 _atom_site_fract_z
 _atom_site_occupancy
  Hg  Hg0  1  0.35923800  0.09182500  0.02619500  1
  Hg  Hg1  1  0.14076200  0.09182500  0.52619500  1
  Hg  Hg2  1  0.85923800  0.59182500  0.47380500  1
  Hg  Hg3  1  0.64076200  0.59182500  0.97380500  1
  Te  Te4  1  0.85429800  0.08762700  0.14264400  1
  Te  Te5  1  0.14570200  0.58762700  0.85735600  1
  Te  Te6  1  0.64570200  0.08762700  0.64264400  1
  Te  Te7  1  0.35429800  0.58762700  0.35735600  1
  H  H8  1  0.01288900  0.86500500  0.91609800  1
  H  H9  1  0.98711100  0.36500500  0.08390200  1
  H  H10  1  0.65715000  0.60797600  0.21791600  1
  H  H11  1  0.86594800  0.86593300  0.71739800  1
  H  H12  1  0.13405200  0.36593300  0.28260200  1
  H  H13  1  0.36594800  0.36593300  0.78260200  1
  H  H14  1  0.79293200  0.15496300  0.84545900  1
  H  H15  1  0.51288900  0.36500500  0.58390200  1
  H  H16  1  0.70706800  0.15496300  0.34545900  1
  H  H17  1  0.15715000  0.10797600  0.28208400  1
  H  H18  1  0.29293200  0.65496300  0.65454100  1
  H  H19  1  0.84285000  0.60797600  0.71791600  1
  H  H20  1  0.48711100  0.86500500  0.41609800  1
  H  H21  1  0.34285000  0.10797600  0.78208400  1
  H  H22  1  0.20706800  0.65496300  0.15454100  1
  H  H23  1  0.63405200  0.86593300  0.21739800  1
  O  O24  1  0.21013500  0.37992600  0.36185500  1
  O  O25  1  0.54955700  0.50654100  0.48243200  1
  O  O26  1  0.47575200  0.28720500  0.64991300  1
  O  O27  1  0.64161500  0.15421300  0.26353200  1
  O  O28  1  0.05368600  0.02010700  0.27394700  1
  O  O29  1  0.78986500  0.87992600  0.63814500  1
  O  O30  1  0.85838500  0.15421300  0.76353200  1
  O  O31  1  0.14161500  0.65421300  0.23646800  1
  O  O32  1  0.97575200  0.78720500  0.85008700  1
  O  O33  1  0.95044300  0.50654100  0.98243200  1
  O  O34  1  0.35838500  0.65421300  0.73646800  1
  O  O35  1  0.17071200  0.67424200  0.48361800  1
  O  O36  1  0.71013500  0.87992600  0.13814500  1
  O  O37  1  0.04955700  0.00654100  0.01756800  1
  O  O38  1  0.67071200  0.17424200  0.01638200  1
  O  O39  1  0.44631400  0.02010700  0.77394700  1
  O  O40  1  0.45044300  0.00654100  0.51756800  1
  O  O41  1  0.02424800  0.28720500  0.14991300  1
  O  O42  1  0.82928800  0.17424200  0.51638200  1
  O  O43  1  0.28986500  0.37992600  0.86185500  1
  O  O44  1  0.94631400  0.52010700  0.72605300  1
  O  O45  1  0.52424800  0.78720500  0.35008700  1
  O  O46  1  0.55368600  0.52010700  0.22605300  1
  O  O47  1  0.32928800  0.67424200  0.98361800  1
