# generated using pymatgen
data_TlP(HO2)2
_symmetry_space_group_name_H-M   'P 1'
_cell_length_a   4.50963700
_cell_length_b   6.58999300
_cell_length_c   14.43627300
_cell_angle_alpha   90.00000000
_cell_angle_beta   90.00000000
_cell_angle_gamma   90.00000000
_symmetry_Int_Tables_number   1
_chemical_formula_structural   TlP(HO2)2
_chemical_formula_sum   'Tl4 P4 H8 O16'
_cell_volume   429.02403647
_cell_formula_units_Z   4
loop_
 _symmetry_equiv_pos_site_id
 _symmetry_equiv_pos_as_xyz
  1  'x, y, z'
loop_
 _atom_site_type_symbol
 _atom_site_label
 _atom_site_symmetry_multiplicity
 _atom_site_fract_x
 _atom_site_fract_y
 _atom_site_fract_z
 _atom_site_occupancy
  Tl  Tl0  1  0.00000000  0.75000000  0.12857900  1
  Tl  Tl1  1  0.50000000  0.25000000  0.37142100  1
  Tl  Tl2  1  0.00000000  0.25000000  0.87142100  1
  Tl  Tl3  1  0.50000000  0.75000000  0.62857900  1
  P  P4  1  0.00000000  0.75000000  0.37526800  1
  P  P5  1  0.50000000  0.25000000  0.12473200  1
  P  P6  1  0.00000000  0.25000000  0.62473200  1
  P  P7  1  0.50000000  0.75000000  0.87526800  1
  H  H8  1  0.00000000  0.50000000  0.50000000  1
  H  H9  1  0.50000000  0.00000000  0.00000000  1
  H  H10  1  0.50000000  0.50000000  0.00000000  1
  H  H11  1  0.00000000  0.00000000  0.50000000  1
  H  H12  1  0.00000000  0.75000000  0.81545600  1
  H  H13  1  0.50000000  0.25000000  0.68454400  1
  H  H14  1  0.00000000  0.25000000  0.18454400  1
  H  H15  1  0.50000000  0.75000000  0.31545600  1
  O  O16  1  0.12960800  0.57661000  0.43616500  1
  O  O17  1  0.37039200  0.07661000  0.06383500  1
  O  O18  1  0.62960800  0.42339000  0.06383500  1
  O  O19  1  0.87039200  0.92339000  0.43616500  1
  O  O20  1  0.87039200  0.42339000  0.56383500  1
  O  O21  1  0.62960800  0.92339000  0.93616500  1
  O  O22  1  0.37039200  0.57661000  0.93616500  1
  O  O23  1  0.12960800  0.07661000  0.56383500  1
  O  O24  1  0.74297400  0.67170400  0.31233800  1
  O  O25  1  0.75702600  0.17170400  0.18766200  1
  O  O26  1  0.24297400  0.32829600  0.18766200  1
  O  O27  1  0.25702600  0.82829600  0.31233800  1
  O  O28  1  0.25702600  0.32829600  0.68766200  1
  O  O29  1  0.24297400  0.82829600  0.81233800  1
  O  O30  1  0.75702600  0.67170400  0.81233800  1
  O  O31  1  0.74297400  0.17170400  0.68766200  1
