# generated using pymatgen
data_K4Mn2H16S4O23
_symmetry_space_group_name_H-M   'P 1'
_cell_length_a   7.95087600
_cell_length_b   8.10461918
_cell_length_c   9.75678195
_cell_angle_alpha   86.27124951
_cell_angle_beta   86.59821961
_cell_angle_gamma   80.79851854
_symmetry_Int_Tables_number   1
_chemical_formula_structural   K4Mn2H16S4O23
_chemical_formula_sum   'K4 Mn2 H16 S4 O23'
_cell_volume   618.54673853
_cell_formula_units_Z   1
loop_
 _symmetry_equiv_pos_site_id
 _symmetry_equiv_pos_as_xyz
  1  'x, y, z'
loop_
 _atom_site_type_symbol
 _atom_site_label
 _atom_site_symmetry_multiplicity
 _atom_site_fract_x
 _atom_site_fract_y
 _atom_site_fract_z
 _atom_site_occupancy
  K  K0  1  0.39251500  0.90902300  0.74963900  1
  K  K1  1  0.90990100  0.41975200  0.72714500  1
  K  K2  1  0.08839600  0.59198100  0.25613900  1
  K  K3  1  0.58171300  0.10039000  0.22849200  1
  Mn  Mn4  1  0.99698700  0.00156800  0.99269500  1
  Mn  Mn5  1  0.50587200  0.50452100  0.50053200  1
  H  H6  1  0.97155600  0.90599300  0.69924400  1
  H  H7  1  0.92113700  0.92208800  0.28422400  1
  H  H8  1  0.33758800  0.82901700  0.38049000  1
  H  H9  1  0.44010100  0.73688600  0.25896500  1
  H  H10  1  0.34468000  0.76666900  0.03258700  1
  H  H11  1  0.22877200  0.65410600  0.96560000  1
  H  H12  1  0.16722500  0.66431000  0.62127700  1
  H  H13  1  0.26553800  0.55839100  0.73961900  1
  H  H14  1  0.73144100  0.43597100  0.25777100  1
  H  H15  1  0.82639500  0.33531800  0.37865900  1
  H  H16  1  0.77471700  0.34806900  0.02882500  1
  H  H17  1  0.65798700  0.23970800  0.95749400  1
  H  H18  1  0.55723700  0.25598100  0.74279500  1
  H  H19  1  0.66102800  0.18208500  0.61303400  1
  H  H20  1  0.06463100  0.07001300  0.70689000  1
  H  H21  1  0.05889700  0.04389000  0.30038700  1
  S  S22  1  0.73987000  0.76724800  0.61052700  1
  S  S23  1  0.73256300  0.73867000  0.11433400  1
  S  S24  1  0.26161100  0.26222800  0.88843800  1
  S  S25  1  0.24356800  0.24541300  0.39380200  1
  O  O26  1  0.99625700  0.99607000  0.76022000  1
  O  O27  1  0.82847800  0.83124800  0.00784700  1
  O  O28  1  0.77138800  0.78478800  0.25344000  1
  O  O29  1  0.93792300  0.75666400  0.60202500  1
  O  O30  1  0.54485200  0.78814800  0.09788500  1
  O  O31  1  0.68882000  0.71786100  0.75760700  1
  O  O32  1  0.22896200  0.76621800  0.99941800  1
  O  O33  1  0.71078900  0.61741900  0.52728400  1
  O  O34  1  0.37181300  0.71610000  0.34579300  1
  O  O35  1  0.28380700  0.63057400  0.65550700  1
  O  O36  1  0.78531100  0.55442000  0.10331000  1
  O  O37  1  0.21274300  0.44596400  0.90466100  1
  O  O38  1  0.71253700  0.35952800  0.33931000  1
  O  O39  1  0.63117300  0.28516400  0.66139200  1
  O  O40  1  0.77220800  0.23685100  0.99429700  1
  O  O41  1  0.34643500  0.33422900  0.47970100  1
  O  O42  1  0.28163300  0.29284700  0.24715100  1
  O  O43  1  0.45062500  0.20933300  0.90073600  1
  O  O44  1  0.05852500  0.29694400  0.43128600  1
  O  O45  1  0.21565000  0.22228500  0.75063300  1
  O  O46  1  0.17014100  0.16622700  0.99633300  1
  O  O47  1  0.29343400  0.06043100  0.42129500  1
  O  O48  1  0.99377300  0.99599600  0.23457000  1
