# generated using pymatgen
data_KU2F9
_symmetry_space_group_name_H-M   'P 1'
_cell_length_a   8.13935600
_cell_length_b   10.25485100
_cell_length_c   10.50988000
_cell_angle_alpha   90.00000000
_cell_angle_beta   90.00000000
_cell_angle_gamma   90.00000000
_symmetry_Int_Tables_number   1
_chemical_formula_structural   KU2F9
_chemical_formula_sum   'K4 U8 F36'
_cell_volume   877.23743435
_cell_formula_units_Z   4
loop_
 _symmetry_equiv_pos_site_id
 _symmetry_equiv_pos_as_xyz
  1  'x, y, z'
loop_
 _atom_site_type_symbol
 _atom_site_label
 _atom_site_symmetry_multiplicity
 _atom_site_fract_x
 _atom_site_fract_y
 _atom_site_fract_z
 _atom_site_occupancy
  K  K0  1  0.03558200  0.75000000  0.50068600  1
  K  K1  1  0.96441800  0.25000000  0.49931400  1
  K  K2  1  0.46441800  0.25000000  0.00068600  1
  K  K3  1  0.53558200  0.75000000  0.99931400  1
  U  U4  1  0.11994100  0.02137700  0.15515100  1
  U  U5  1  0.11994100  0.47862300  0.15515100  1
  U  U6  1  0.88005900  0.97862300  0.84484900  1
  U  U7  1  0.88005900  0.52137700  0.84484900  1
  U  U8  1  0.61994100  0.02137700  0.34484900  1
  U  U9  1  0.61994100  0.47862300  0.34484900  1
  U  U10  1  0.38005900  0.52137700  0.65515100  1
  U  U11  1  0.38005900  0.97862300  0.65515100  1
  F  F12  1  0.65434000  0.25000000  0.32927100  1
  F  F13  1  0.60999800  0.92052100  0.76200600  1
  F  F14  1  0.15434000  0.25000000  0.17072900  1
  F  F15  1  0.34566000  0.75000000  0.67072900  1
  F  F16  1  0.06206500  0.10627400  0.95755700  1
  F  F17  1  0.70930700  0.08756800  0.95646800  1
  F  F18  1  0.84566000  0.75000000  0.82927100  1
  F  F19  1  0.43793500  0.60627400  0.45755700  1
  F  F20  1  0.06206500  0.39372600  0.95755700  1
  F  F21  1  0.63945400  0.88993400  0.19326400  1
  F  F22  1  0.86054600  0.11006600  0.69326400  1
  F  F23  1  0.29069300  0.58756800  0.04353200  1
  F  F24  1  0.56206500  0.10627400  0.54244300  1
  F  F25  1  0.10999800  0.92052100  0.73799400  1
  F  F26  1  0.79069300  0.58756800  0.45646800  1
  F  F27  1  0.36054600  0.11006600  0.80673600  1
  F  F28  1  0.56206500  0.39372600  0.54244300  1
  F  F29  1  0.20930700  0.08756800  0.54353200  1
  F  F30  1  0.13945400  0.61006600  0.30673600  1
  F  F31  1  0.70930700  0.41243200  0.95646800  1
  F  F32  1  0.60999800  0.57947900  0.76200600  1
  F  F33  1  0.89000200  0.42052100  0.26200600  1
  F  F34  1  0.29069300  0.91243200  0.04353200  1
  F  F35  1  0.93793500  0.60627400  0.04244300  1
  F  F36  1  0.43793500  0.89372600  0.45755700  1
  F  F37  1  0.89000200  0.07947900  0.26200600  1
  F  F38  1  0.86054600  0.38993400  0.69326400  1
  F  F39  1  0.13945400  0.88993400  0.30673600  1
  F  F40  1  0.39000200  0.42052100  0.23799400  1
  F  F41  1  0.10999800  0.57947900  0.73799400  1
  F  F42  1  0.79069300  0.91243200  0.45646800  1
  F  F43  1  0.39000200  0.07947900  0.23799400  1
  F  F44  1  0.63945400  0.61006600  0.19326400  1
  F  F45  1  0.20930700  0.41243200  0.54353200  1
  F  F46  1  0.93793500  0.89372600  0.04244300  1
  F  F47  1  0.36054600  0.38993400  0.80673600  1
