# generated using pymatgen
data_Cu2GeSe3
_symmetry_space_group_name_H-M   'P 1'
_cell_length_a   6.86880600
_cell_length_b   11.92816400
_cell_length_c   6.90554027
_cell_angle_alpha   90.00000000
_cell_angle_beta   109.40469677
_cell_angle_gamma   90.00000000
_symmetry_Int_Tables_number   1
_chemical_formula_structural   Cu2GeSe3
_chemical_formula_sum   'Cu8 Ge4 Se12'
_cell_volume   533.64715755
_cell_formula_units_Z   4
loop_
 _symmetry_equiv_pos_site_id
 _symmetry_equiv_pos_as_xyz
  1  'x, y, z'
loop_
 _atom_site_type_symbol
 _atom_site_label
 _atom_site_symmetry_multiplicity
 _atom_site_fract_x
 _atom_site_fract_y
 _atom_site_fract_z
 _atom_site_occupancy
  Cu  Cu0  1  0.59310750  0.58427550  0.00384700  1
  Cu  Cu1  1  0.08380950  0.75054550  0.00216400  1
  Cu  Cu2  1  0.09310750  0.91572450  0.50384700  1
  Cu  Cu3  1  0.58380950  0.74945450  0.50216400  1
  Cu  Cu4  1  0.09310750  0.08427550  0.00384700  1
  Cu  Cu5  1  0.58380950  0.25054550  0.00216400  1
  Cu  Cu6  1  0.59310750  0.41572450  0.50384700  1
  Cu  Cu7  1  0.08380950  0.24945450  0.50216400  1
  Ge  Ge8  1  0.57784850  0.91322450  0.99341800  1
  Ge  Ge9  1  0.07784850  0.58677550  0.49341800  1
  Ge  Ge10  1  0.07784850  0.41322450  0.99341800  1
  Ge  Ge11  1  0.57784850  0.08677550  0.49341800  1
  Se  Se12  1  0.20467700  0.91609300  0.87753800  1
  Se  Se13  1  0.71270850  0.74950250  0.87558100  1
  Se  Se14  1  0.71934500  0.91365600  0.38318900  1
  Se  Se15  1  0.21934500  0.58634400  0.88318900  1
  Se  Se16  1  0.21270850  0.75049750  0.37558100  1
  Se  Se17  1  0.70467700  0.58390700  0.37753800  1
  Se  Se18  1  0.70467700  0.41609300  0.87753800  1
  Se  Se19  1  0.21270850  0.24950250  0.87558100  1
  Se  Se20  1  0.21934500  0.41365600  0.38318900  1
  Se  Se21  1  0.71934500  0.08634400  0.88318900  1
  Se  Se22  1  0.71270850  0.25049750  0.37558100  1
  Se  Se23  1  0.20467700  0.08390700  0.37753800  1
