# generated using pymatgen
data_OsC4(ClO2)2
_symmetry_space_group_name_H-M   'P 1'
_cell_length_a   6.69897200
_cell_length_b   10.36200400
_cell_length_c   11.81661110
_cell_angle_alpha   90.00000000
_cell_angle_beta   96.50215042
_cell_angle_gamma   90.00000000
_symmetry_Int_Tables_number   1
_chemical_formula_structural   OsC4(ClO2)2
_chemical_formula_sum   'Os4 C16 Cl8 O16'
_cell_volume   814.97124220
_cell_formula_units_Z   4
loop_
 _symmetry_equiv_pos_site_id
 _symmetry_equiv_pos_as_xyz
  1  'x, y, z'
loop_
 _atom_site_type_symbol
 _atom_site_label
 _atom_site_symmetry_multiplicity
 _atom_site_fract_x
 _atom_site_fract_y
 _atom_site_fract_z
 _atom_site_occupancy
  Os  Os0  1  0.50000000  0.06941400  0.75000000  1
  Os  Os1  1  0.50000000  0.93058600  0.25000000  1
  Os  Os2  1  0.00000000  0.56941400  0.75000000  1
  Os  Os3  1  0.00000000  0.43058600  0.25000000  1
  C  C4  1  0.40727250  0.19835350  0.84801200  1
  C  C5  1  0.59272750  0.19835350  0.65198800  1
  C  C6  1  0.59272750  0.80164650  0.15198800  1
  C  C7  1  0.76702900  0.06455300  0.84253700  1
  C  C8  1  0.23297100  0.93544700  0.15746300  1
  C  C9  1  0.76702900  0.93544700  0.34253700  1
  C  C10  1  0.40727250  0.80164650  0.34801200  1
  C  C11  1  0.23297100  0.06455300  0.65746300  1
  C  C12  1  0.90727250  0.69835350  0.84801200  1
  C  C13  1  0.09272750  0.69835350  0.65198800  1
  C  C14  1  0.09272750  0.30164650  0.15198800  1
  C  C15  1  0.26702900  0.56455300  0.84253700  1
  C  C16  1  0.73297100  0.43544700  0.15746300  1
  C  C17  1  0.26702900  0.43544700  0.34253700  1
  C  C18  1  0.90727250  0.30164650  0.34801200  1
  C  C19  1  0.73297100  0.56455300  0.65746300  1
  Cl  Cl20  1  0.62845400  0.89852000  0.63388000  1
  Cl  Cl21  1  0.62845400  0.10148000  0.13388000  1
  Cl  Cl22  1  0.37154600  0.10148000  0.36612000  1
  Cl  Cl23  1  0.37154600  0.89852000  0.86612000  1
  Cl  Cl24  1  0.12845400  0.39852000  0.63388000  1
  Cl  Cl25  1  0.12845400  0.60148000  0.13388000  1
  Cl  Cl26  1  0.87154600  0.60148000  0.36612000  1
  Cl  Cl27  1  0.87154600  0.39852000  0.86612000  1
  O  O28  1  0.07536350  0.06489750  0.60803800  1
  O  O29  1  0.92463650  0.93510250  0.39196200  1
  O  O30  1  0.07536350  0.93510250  0.10803800  1
  O  O31  1  0.64380200  0.72214100  0.09330700  1
  O  O32  1  0.35619800  0.72214100  0.40669300  1
  O  O33  1  0.92463650  0.06489750  0.89196200  1
  O  O34  1  0.35619800  0.27785900  0.90669300  1
  O  O35  1  0.64380200  0.27785900  0.59330700  1
  O  O36  1  0.57536350  0.56489750  0.60803800  1
  O  O37  1  0.42463650  0.43510250  0.39196200  1
  O  O38  1  0.57536350  0.43510250  0.10803800  1
  O  O39  1  0.14380200  0.22214100  0.09330700  1
  O  O40  1  0.85619800  0.22214100  0.40669300  1
  O  O41  1  0.42463650  0.56489750  0.89196200  1
  O  O42  1  0.85619800  0.77785900  0.90669300  1
  O  O43  1  0.14380200  0.77785900  0.59330700  1
