# generated using pymatgen
data_KCa10(PO4)7
_symmetry_space_group_name_H-M   'P 1'
_cell_length_a   10.60673556
_cell_length_b   10.60673556
_cell_length_c   37.57357195
_cell_angle_alpha   90.00000000
_cell_angle_beta   90.00000000
_cell_angle_gamma   120.00000000
_symmetry_Int_Tables_number   1
_chemical_formula_structural   KCa10(PO4)7
_chemical_formula_sum   'K6 Ca60 P42 O168'
_cell_volume   3660.80502086
_cell_formula_units_Z   6
loop_
 _symmetry_equiv_pos_site_id
 _symmetry_equiv_pos_as_xyz
  1  'x, y, z'
loop_
 _atom_site_type_symbol
 _atom_site_label
 _atom_site_symmetry_multiplicity
 _atom_site_fract_x
 _atom_site_fract_y
 _atom_site_fract_z
 _atom_site_occupancy
  K  K0  1  0.33333333  0.66666667  0.21535767  1
  K  K1  1  0.00000000  0.00000000  0.04869100  1
  K  K2  1  0.00000000  0.00000000  0.54869100  1
  K  K3  1  0.66666667  0.33333333  0.38202433  1
  K  K4  1  0.66666667  0.33333333  0.88202433  1
  K  K5  1  0.33333333  0.66666667  0.71535767  1
  Ca  Ca6  1  0.66666667  0.33333333  0.20041133  1
  Ca  Ca7  1  0.33333333  0.66666667  0.03374467  1
  Ca  Ca8  1  0.94567667  0.45389533  0.26732433  1
  Ca  Ca9  1  0.54610467  0.49178133  0.26732433  1
  Ca  Ca10  1  0.50821867  0.05432333  0.26732433  1
  Ca  Ca11  1  0.61234333  0.82511467  0.10065767  1
  Ca  Ca12  1  0.17488533  0.78722867  0.10065767  1
  Ca  Ca13  1  0.21277133  0.38765667  0.10065767  1
  Ca  Ca14  1  0.14154600  0.86736200  0.29881300  1
  Ca  Ca15  1  0.13263800  0.27418400  0.29881300  1
  Ca  Ca16  1  0.72581600  0.85845400  0.29881300  1
  Ca  Ca17  1  0.80821267  0.60751733  0.13214633  1
  Ca  Ca18  1  0.39248267  0.20069533  0.13214633  1
  Ca  Ca19  1  0.79930467  0.19178733  0.13214633  1
  Ca  Ca20  1  0.14706367  0.88599733  0.19368533  1
  Ca  Ca21  1  0.11400267  0.26106633  0.19368533  1
  Ca  Ca22  1  0.73893367  0.85293633  0.19368533  1
  Ca  Ca23  1  0.81373033  0.59439967  0.02701867  1
  Ca  Ca24  1  0.40560033  0.21933067  0.02701867  1
  Ca  Ca25  1  0.78066933  0.18626967  0.02701867  1
  Ca  Ca26  1  0.33333333  0.66666667  0.53374467  1
  Ca  Ca27  1  0.00000000  0.00000000  0.36707800  1
  Ca  Ca28  1  0.61234333  0.78722867  0.60065767  1
  Ca  Ca29  1  0.21277133  0.82511467  0.60065767  1
  Ca  Ca30  1  0.17488533  0.38765667  0.60065767  1
  Ca  Ca31  1  0.27901000  0.15844800  0.43399100  1
  Ca  Ca32  1  0.84155200  0.12056200  0.43399100  1
  Ca  Ca33  1  0.87943800  0.72099000  0.43399100  1
  Ca  Ca34  1  0.80821267  0.20069533  0.63214633  1
  Ca  Ca35  1  0.79930467  0.60751733  0.63214633  1
  Ca  Ca36  1  0.39248267  0.19178733  0.63214633  1
  Ca  Ca37  1  0.47487933  0.94085067  0.46547967  1
  Ca  Ca38  1  0.05914933  0.53402867  0.46547967  1
  Ca  Ca39  1  0.46597133  0.52512067  0.46547967  1
  Ca  Ca40  1  0.81373033  0.21933067  0.52701867  1
  Ca  Ca41  1  0.78066933  0.59439967  0.52701867  1
  Ca  Ca42  1  0.40560033  0.18626967  0.52701867  1
  Ca  Ca43  1  0.48039700  0.92773300  0.36035200  1
  Ca  Ca44  1  0.07226700  0.55266400  0.36035200  1
  Ca  Ca45  1  0.44733600  0.51960300  0.36035200  1
  Ca  Ca46  1  0.00000000  0.00000000  0.86707800  1
  Ca  Ca47  1  0.66666667  0.33333333  0.70041133  1
  Ca  Ca48  1  0.27901000  0.12056200  0.93399100  1
  Ca  Ca49  1  0.87943800  0.15844800  0.93399100  1
  Ca  Ca50  1  0.84155200  0.72099000  0.93399100  1
  Ca  Ca51  1  0.94567667  0.49178133  0.76732433  1
  Ca  Ca52  1  0.50821867  0.45389533  0.76732433  1
  Ca  Ca53  1  0.54610467  0.05432333  0.76732433  1
  Ca  Ca54  1  0.47487933  0.53402867  0.96547967  1
  Ca  Ca55  1  0.46597133  0.94085067  0.96547967  1
  Ca  Ca56  1  0.05914933  0.52512067  0.96547967  1
  Ca  Ca57  1  0.14154600  0.27418400  0.79881300  1
  Ca  Ca58  1  0.72581600  0.86736200  0.79881300  1
  Ca  Ca59  1  0.13263800  0.85845400  0.79881300  1
  Ca  Ca60  1  0.48039700  0.55266400  0.86035200  1
  Ca  Ca61  1  0.44733600  0.92773300  0.86035200  1
  Ca  Ca62  1  0.07226700  0.51960300  0.86035200  1
  Ca  Ca63  1  0.14706367  0.26106633  0.69368533  1
  Ca  Ca64  1  0.73893367  0.88599733  0.69368533  1
  Ca  Ca65  1  0.11400267  0.85293633  0.69368533  1
  P  P66  1  0.86365267  0.68034533  0.23290333  1
  P  P67  1  0.31965467  0.18330733  0.23290333  1
  P  P68  1  0.81669267  0.13634733  0.23290333  1
  P  P69  1  0.53031933  0.51664067  0.06623667  1
  P  P70  1  0.48335933  0.01367867  0.06623667  1
  P  P71  1  0.98632133  0.46968067  0.06623667  1
  P  P72  1  0.01935267  0.48740033  0.16806033  1
  P  P73  1  0.51259967  0.53195233  0.16806033  1
  P  P74  1  0.46804767  0.98064733  0.16806033  1
  P  P75  1  0.68601933  0.86528567  0.00139367  1
  P  P76  1  0.13471433  0.82073367  0.00139367  1
  P  P77  1  0.17926633  0.31398067  0.00139367  1
  P  P78  1  0.33333333  0.66666667  0.30106767  1
  P  P79  1  0.00000000  0.00000000  0.13440100  1
  P  P80  1  0.53031933  0.01367867  0.56623667  1
  P  P81  1  0.98632133  0.51664067  0.56623667  1
  P  P82  1  0.48335933  0.46968067  0.56623667  1
  P  P83  1  0.19698600  0.84997400  0.39957000  1
  P  P84  1  0.15002600  0.34701200  0.39957000  1
  P  P85  1  0.65298800  0.80301400  0.39957000  1
  P  P86  1  0.68601933  0.82073367  0.50139367  1
  P  P87  1  0.17926633  0.86528567  0.50139367  1
  P  P88  1  0.13471433  0.31398067  0.50139367  1
  P  P89  1  0.35268600  0.19861900  0.33472700  1
  P  P90  1  0.80138100  0.15406700  0.33472700  1
  P  P91  1  0.84593300  0.64731400  0.33472700  1
  P  P92  1  0.00000000  0.00000000  0.63440100  1
  P  P93  1  0.66666667  0.33333333  0.46773433  1
  P  P94  1  0.19698600  0.34701200  0.89957000  1
  P  P95  1  0.65298800  0.84997400  0.89957000  1
  P  P96  1  0.15002600  0.80301400  0.89957000  1
  P  P97  1  0.86365267  0.18330733  0.73290333  1
  P  P98  1  0.81669267  0.68034533  0.73290333  1
  P  P99  1  0.31965467  0.13634733  0.73290333  1
  P  P100  1  0.35268600  0.15406700  0.83472700  1
  P  P101  1  0.84593300  0.19861900  0.83472700  1
  P  P102  1  0.80138100  0.64731400  0.83472700  1
  P  P103  1  0.01935267  0.53195233  0.66806033  1
  P  P104  1  0.46804767  0.48740033  0.66806033  1
  P  P105  1  0.51259967  0.98064733  0.66806033  1
  P  P106  1  0.66666667  0.33333333  0.96773433  1
  P  P107  1  0.33333333  0.66666667  0.80106767  1
  O  O108  1  0.02362733  0.73916867  0.24486167  1
  O  O109  1  0.26083133  0.28445867  0.24486167  1
  O  O110  1  0.71554133  0.97637267  0.24486167  1
  O  O111  1  0.69029400  0.61779200  0.07819500  1
  O  O112  1  0.38220800  0.07250200  0.07819500  1
  O  O113  1  0.92749800  0.30970600  0.07819500  1
  O  O114  1  0.78898967  0.75793533  0.25062133  1
  O  O115  1  0.24206467  0.03105433  0.25062133  1
  O  O116  1  0.96894567  0.21101033  0.25062133  1
  O  O117  1  0.45565633  0.36438767  0.08395467  1
  O  O118  1  0.63561233  0.09126867  0.08395467  1
  O  O119  1  0.90873133  0.54434367  0.08395467  1
  O  O120  1  0.86609867  0.70496033  0.19209533  1
  O  O121  1  0.29503967  0.16113833  0.19209533  1
  O  O122  1  0.83886167  0.13390133  0.19209533  1
  O  O123  1  0.53276533  0.49447167  0.02542867  1
  O  O124  1  0.50552833  0.03829367  0.02542867  1
  O  O125  1  0.96170633  0.46723467  0.02542867  1
  O  O126  1  0.77357600  0.51549700  0.24276400  1
  O  O127  1  0.48450300  0.25807900  0.24276400  1
  O  O128  1  0.74192100  0.22642400  0.24276400  1
  O  O129  1  0.44024267  0.59141233  0.07609733  1
  O  O130  1  0.10334767  0.64807933  0.15586633  1
  O  O131  1  0.40858767  0.84883033  0.07609733  1
  O  O132  1  0.85314267  0.42443333  0.15984833  1
  O  O133  1  0.57556667  0.42870933  0.15984833  1
  O  O134  1  0.57129067  0.14685733  0.15984833  1
  O  O135  1  0.18647600  0.09537600  0.32651500  1
  O  O136  1  0.90462400  0.09110000  0.32651500  1
  O  O137  1  0.90890000  0.81352400  0.32651500  1
  O  O138  1  0.05971700  0.38355000  0.14750200  1
  O  O139  1  0.61645000  0.67616700  0.14750200  1
  O  O140  1  0.32383300  0.94028300  0.14750200  1
  O  O141  1  0.39305033  0.34283367  0.31416867  1
  O  O142  1  0.65716633  0.05021667  0.31416867  1
  O  O143  1  0.94978333  0.60694967  0.31416867  1
  O  O144  1  0.00000000  0.00000000  0.17590600  1
  O  O145  1  0.66666667  0.33333333  0.00923933  1
  O  O146  1  0.13643267  0.14236233  0.12109233  1
  O  O147  1  0.00592967  0.86356733  0.12109233  1
  O  O148  1  0.85763767  0.99407033  0.12109233  1
  O  O149  1  0.33926300  0.80902900  0.28775900  1
  O  O150  1  0.46976600  0.66073700  0.28775900  1
  O  O151  1  0.19097100  0.53023400  0.28775900  1
  O  O152  1  0.19332900  0.28596700  0.04130200  1
  O  O153  1  0.09263800  0.80667100  0.04130200  1
  O  O154  1  0.71403300  0.90736200  0.04130200  1
  O  O155  1  0.42597133  0.95263367  0.20796867  1
  O  O156  1  0.52666233  0.57402867  0.20796867  1
  O  O157  1  0.04736633  0.47333767  0.20796867  1
  O  O158  1  0.68525400  0.56331900  0.32253300  1
  O  O159  1  0.87806500  0.31474600  0.32253300  1
  O  O160  1  0.43668100  0.12193500  0.32253300  1
  O  O161  1  0.54473167  0.89665233  0.15586633  1
  O  O162  1  0.35192067  0.45526833  0.15586633  1
  O  O163  1  0.15116967  0.55975733  0.07609733  1
  O  O164  1  0.69029400  0.07250200  0.57819500  1
  O  O165  1  0.92749800  0.61779200  0.57819500  1
  O  O166  1  0.38220800  0.30970600  0.57819500  1
  O  O167  1  0.35696067  0.95112533  0.41152833  1
  O  O168  1  0.04887467  0.40583533  0.41152833  1
  O  O169  1  0.59416467  0.64303933  0.41152833  1
  O  O170  1  0.45565633  0.09126867  0.58395467  1
  O  O171  1  0.90873133  0.36438767  0.58395467  1
  O  O172  1  0.63561233  0.54434367  0.58395467  1
  O  O173  1  0.12232300  0.69772100  0.41728800  1
  O  O174  1  0.30227900  0.42460200  0.41728800  1
  O  O175  1  0.57539800  0.87767700  0.41728800  1
  O  O176  1  0.53276533  0.03829367  0.52542867  1
  O  O177  1  0.96170633  0.49447167  0.52542867  1
  O  O178  1  0.50552833  0.46723467  0.52542867  1
  O  O179  1  0.19943200  0.82780500  0.35876200  1
  O  O180  1  0.17219500  0.37162700  0.35876200  1
  O  O181  1  0.62837300  0.80056800  0.35876200  1
  O  O182  1  0.44024267  0.84883033  0.57609733  1
  O  O183  1  0.15116967  0.59141233  0.57609733  1
  O  O184  1  0.40858767  0.55975733  0.57609733  1
  O  O185  1  0.10690933  0.92474567  0.40943067  1
  O  O186  1  0.77001433  0.98141267  0.48919967  1
  O  O187  1  0.07525433  0.18216367  0.40943067  1
  O  O188  1  0.51980933  0.75776667  0.49318167  1
  O  O189  1  0.24223333  0.76204267  0.49318167  1
  O  O190  1  0.23795733  0.48019067  0.49318167  1
  O  O191  1  0.85314267  0.42870933  0.65984833  1
  O  O192  1  0.57129067  0.42443333  0.65984833  1
  O  O193  1  0.57556667  0.14685733  0.65984833  1
  O  O194  1  0.72638367  0.71688333  0.48083533  1
  O  O195  1  0.28311667  0.00950033  0.48083533  1
  O  O196  1  0.99049967  0.27361633  0.48083533  1
  O  O197  1  0.05971700  0.67616700  0.64750200  1
  O  O198  1  0.32383300  0.38355000  0.64750200  1
  O  O199  1  0.61645000  0.94028300  0.64750200  1
  O  O200  1  0.66666667  0.33333333  0.50923933  1
  O  O201  1  0.33333333  0.66666667  0.34257267  1
  O  O202  1  0.80309933  0.47569567  0.45442567  1
  O  O203  1  0.67259633  0.19690067  0.45442567  1
  O  O204  1  0.52430433  0.32740367  0.45442567  1
  O  O205  1  0.00592967  0.14236233  0.62109233  1
  O  O206  1  0.13643267  0.99407033  0.62109233  1
  O  O207  1  0.85763767  0.86356733  0.62109233  1
  O  O208  1  0.85999567  0.61930033  0.37463533  1
  O  O209  1  0.75930467  0.14000433  0.37463533  1
  O  O210  1  0.38069967  0.24069533  0.37463533  1
  O  O211  1  0.09263800  0.28596700  0.54130200  1
  O  O212  1  0.19332900  0.90736200  0.54130200  1
  O  O213  1  0.71403300  0.80667100  0.54130200  1
  O  O214  1  0.35192067  0.89665233  0.65586633  1
  O  O215  1  0.54473167  0.64807933  0.65586633  1
  O  O216  1  0.10334767  0.45526833  0.65586633  1
  O  O217  1  0.21139833  0.22998567  0.48919967  1
  O  O218  1  0.01858733  0.78860167  0.48919967  1
  O  O219  1  0.81783633  0.89309067  0.40943067  1
  O  O220  1  0.35696067  0.40583533  0.91152833  1
  O  O221  1  0.59416467  0.95112533  0.91152833  1
  O  O222  1  0.04887467  0.64303933  0.91152833  1
  O  O223  1  0.02362733  0.28445867  0.74486167  1
  O  O224  1  0.71554133  0.73916867  0.74486167  1
  O  O225  1  0.26083133  0.97637267  0.74486167  1
  O  O226  1  0.12232300  0.42460200  0.91728800  1
  O  O227  1  0.57539800  0.69772100  0.91728800  1
  O  O228  1  0.30227900  0.87767700  0.91728800  1
  O  O229  1  0.78898967  0.03105433  0.75062133  1
  O  O230  1  0.96894567  0.75793533  0.75062133  1
  O  O231  1  0.24206467  0.21101033  0.75062133  1
  O  O232  1  0.19943200  0.37162700  0.85876200  1
  O  O233  1  0.62837300  0.82780500  0.85876200  1
  O  O234  1  0.17219500  0.80056800  0.85876200  1
  O  O235  1  0.86609867  0.16113833  0.69209533  1
  O  O236  1  0.83886167  0.70496033  0.69209533  1
  O  O237  1  0.29503967  0.13390133  0.69209533  1
  O  O238  1  0.10690933  0.18216367  0.90943067  1
  O  O239  1  0.81783633  0.92474567  0.90943067  1
  O  O240  1  0.07525433  0.89309067  0.90943067  1
  O  O241  1  0.77357600  0.25807900  0.74276400  1
  O  O242  1  0.43668100  0.31474600  0.82253300  1
  O  O243  1  0.74192100  0.51549700  0.74276400  1
  O  O244  1  0.18647600  0.09110000  0.82651500  1
  O  O245  1  0.90890000  0.09537600  0.82651500  1
  O  O246  1  0.90462400  0.81352400  0.82651500  1
  O  O247  1  0.51980933  0.76204267  0.99318167  1
  O  O248  1  0.23795733  0.75776667  0.99318167  1
  O  O249  1  0.24223333  0.48019067  0.99318167  1
  O  O250  1  0.39305033  0.05021667  0.81416867  1
  O  O251  1  0.94978333  0.34283367  0.81416867  1
  O  O252  1  0.65716633  0.60694967  0.81416867  1
  O  O253  1  0.72638367  0.00950033  0.98083533  1
  O  O254  1  0.99049967  0.71688333  0.98083533  1
  O  O255  1  0.28311667  0.27361633  0.98083533  1
  O  O256  1  0.33333333  0.66666667  0.84257267  1
  O  O257  1  0.00000000  0.00000000  0.67590600  1
  O  O258  1  0.46976600  0.80902900  0.78775900  1
  O  O259  1  0.33926300  0.53023400  0.78775900  1
  O  O260  1  0.19097100  0.66073700  0.78775900  1
  O  O261  1  0.67259633  0.47569567  0.95442567  1
  O  O262  1  0.80309933  0.32740367  0.95442567  1
  O  O263  1  0.52430433  0.19690067  0.95442567  1
  O  O264  1  0.52666233  0.95263367  0.70796867  1
  O  O265  1  0.42597133  0.47333767  0.70796867  1
  O  O266  1  0.04736633  0.57402867  0.70796867  1
  O  O267  1  0.75930467  0.61930033  0.87463533  1
  O  O268  1  0.85999567  0.24069533  0.87463533  1
  O  O269  1  0.38069967  0.14000433  0.87463533  1
  O  O270  1  0.01858733  0.22998567  0.98919967  1
  O  O271  1  0.21139833  0.98141267  0.98919967  1
  O  O272  1  0.77001433  0.78860167  0.98919967  1
  O  O273  1  0.87806500  0.56331900  0.82253300  1
  O  O274  1  0.68525400  0.12193500  0.82253300  1
  O  O275  1  0.48450300  0.22642400  0.74276400  1
