# generated using pymatgen
data_NaCa2Mg2(AsO4)3
_symmetry_space_group_name_H-M   'P 1'
_cell_length_a   12.52238600
_cell_length_b   12.52238600
_cell_length_c   12.52698600
_cell_angle_alpha   90.00000000
_cell_angle_beta   90.00000000
_cell_angle_gamma   90.00000000
_symmetry_Int_Tables_number   1
_chemical_formula_structural   NaCa2Mg2(AsO4)3
_chemical_formula_sum   'Na8 Ca16 Mg16 As24 O96'
_cell_volume   1964.35856790
_cell_formula_units_Z   8
loop_
 _symmetry_equiv_pos_site_id
 _symmetry_equiv_pos_as_xyz
  1  'x, y, z'
loop_
 _atom_site_type_symbol
 _atom_site_label
 _atom_site_symmetry_multiplicity
 _atom_site_fract_x
 _atom_site_fract_y
 _atom_site_fract_z
 _atom_site_occupancy
  Na  Na0  1  0.00000000  0.00000000  0.75000000  1
  Na  Na1  1  0.00000000  0.50000000  0.00000000  1
  Na  Na2  1  0.00000000  0.00000000  0.25000000  1
  Na  Na3  1  0.50000000  0.00000000  0.00000000  1
  Na  Na4  1  0.50000000  0.50000000  0.25000000  1
  Na  Na5  1  0.50000000  0.00000000  0.50000000  1
  Na  Na6  1  0.50000000  0.50000000  0.75000000  1
  Na  Na7  1  0.00000000  0.50000000  0.50000000  1
  Ca  Ca8  1  0.37730700  0.75000000  0.37500000  1
  Ca  Ca9  1  0.75000000  0.87730700  0.12500000  1
  Ca  Ca10  1  0.37730700  0.25000000  0.87500000  1
  Ca  Ca11  1  0.25000000  0.87730700  0.62500000  1
  Ca  Ca12  1  0.62269300  0.25000000  0.37500000  1
  Ca  Ca13  1  0.25000000  0.12269300  0.12500000  1
  Ca  Ca14  1  0.12269300  0.25000000  0.37500000  1
  Ca  Ca15  1  0.25000000  0.62269300  0.12500000  1
  Ca  Ca16  1  0.87730700  0.25000000  0.87500000  1
  Ca  Ca17  1  0.25000000  0.37730700  0.62500000  1
  Ca  Ca18  1  0.87730700  0.75000000  0.37500000  1
  Ca  Ca19  1  0.75000000  0.37730700  0.12500000  1
  Ca  Ca20  1  0.12269300  0.75000000  0.87500000  1
  Ca  Ca21  1  0.75000000  0.62269300  0.62500000  1
  Ca  Ca22  1  0.62269300  0.75000000  0.87500000  1
  Ca  Ca23  1  0.75000000  0.12269300  0.62500000  1
  Mg  Mg24  1  0.50000000  0.25000000  0.12500000  1
  Mg  Mg25  1  0.75000000  0.50000000  0.37500000  1
  Mg  Mg26  1  0.00000000  0.75000000  0.12500000  1
  Mg  Mg27  1  0.00000000  0.25000000  0.12500000  1
  Mg  Mg28  1  0.25000000  0.50000000  0.87500000  1
  Mg  Mg29  1  0.00000000  0.25000000  0.62500000  1
  Mg  Mg30  1  0.25000000  0.00000000  0.37500000  1
  Mg  Mg31  1  0.25000000  0.50000000  0.37500000  1
  Mg  Mg32  1  0.00000000  0.75000000  0.62500000  1
  Mg  Mg33  1  0.25000000  0.00000000  0.87500000  1
  Mg  Mg34  1  0.50000000  0.25000000  0.62500000  1
  Mg  Mg35  1  0.50000000  0.75000000  0.62500000  1
  Mg  Mg36  1  0.75000000  0.00000000  0.37500000  1
  Mg  Mg37  1  0.50000000  0.75000000  0.12500000  1
  Mg  Mg38  1  0.75000000  0.50000000  0.87500000  1
  Mg  Mg39  1  0.75000000  0.00000000  0.87500000  1
  As  As40  1  0.50000000  0.00000000  0.25000000  1
  As  As41  1  0.37485600  0.25000000  0.37500000  1
  As  As42  1  0.75000000  0.12514400  0.12500000  1
  As  As43  1  0.25000000  0.12514400  0.62500000  1
  As  As44  1  0.12514400  0.25000000  0.87500000  1
  As  As45  1  0.00000000  0.00000000  0.00000000  1
  As  As46  1  0.00000000  0.50000000  0.25000000  1
  As  As47  1  0.75000000  0.37485600  0.62500000  1
  As  As48  1  0.87485600  0.25000000  0.37500000  1
  As  As49  1  0.25000000  0.37485600  0.12500000  1
  As  As50  1  0.62514400  0.25000000  0.87500000  1
  As  As51  1  0.00000000  0.00000000  0.50000000  1
  As  As52  1  0.00000000  0.50000000  0.75000000  1
  As  As53  1  0.87485600  0.75000000  0.87500000  1
  As  As54  1  0.25000000  0.62514400  0.62500000  1
  As  As55  1  0.75000000  0.62514400  0.12500000  1
  As  As56  1  0.62514400  0.75000000  0.37500000  1
  As  As57  1  0.50000000  0.50000000  0.50000000  1
  As  As58  1  0.50000000  0.00000000  0.75000000  1
  As  As59  1  0.25000000  0.87485600  0.12500000  1
  As  As60  1  0.37485600  0.75000000  0.87500000  1
  As  As61  1  0.75000000  0.87485600  0.62500000  1
  As  As62  1  0.12514400  0.75000000  0.37500000  1
  As  As63  1  0.50000000  0.50000000  0.00000000  1
  O  O64  1  0.70060400  0.03795600  0.03072000  1
  O  O65  1  0.40487700  0.94606600  0.33502600  1
  O  O66  1  0.21456250  0.84306550  0.42632350  1
  O  O67  1  0.55393400  0.90487700  0.16497400  1
  O  O68  1  0.28543750  0.34306550  0.42632350  1
  O  O69  1  0.15693450  0.21456250  0.57367650  1
  O  O70  1  0.03795600  0.20060400  0.78072000  1
  O  O71  1  0.21456250  0.34306550  0.82367650  1
  O  O72  1  0.34306550  0.71456250  0.57367650  1
  O  O73  1  0.03795600  0.29939600  0.96928000  1
  O  O74  1  0.55393400  0.40487700  0.08502600  1
  O  O75  1  0.46204400  0.20060400  0.46928000  1
  O  O76  1  0.40487700  0.55393400  0.41497400  1
  O  O77  1  0.29939600  0.03795600  0.53072000  1
  O  O78  1  0.84306550  0.71456250  0.17632350  1
  O  O79  1  0.59512300  0.05393400  0.33502600  1
  O  O80  1  0.20060400  0.03795600  0.71928000  1
  O  O81  1  0.46204400  0.29939600  0.28072000  1
  O  O82  1  0.21456250  0.15693450  0.92632350  1
  O  O83  1  0.29939600  0.53795600  0.71928000  1
  O  O84  1  0.05393400  0.09512300  0.08502600  1
  O  O85  1  0.59512300  0.44606600  0.41497400  1
  O  O86  1  0.34306550  0.28543750  0.07367650  1
  O  O87  1  0.94606600  0.90487700  0.08502600  1
  O  O88  1  0.05393400  0.59512300  0.16497400  1
  O  O89  1  0.65693450  0.21456250  0.17632350  1
  O  O90  1  0.90487700  0.55393400  0.33502600  1
  O  O91  1  0.94606600  0.40487700  0.16497400  1
  O  O92  1  0.20060400  0.46204400  0.03072000  1
  O  O93  1  0.78543750  0.34306550  0.32367650  1
  O  O94  1  0.53795600  0.20060400  0.96928000  1
  O  O95  1  0.79939600  0.46204400  0.53072000  1
  O  O96  1  0.40487700  0.44606600  0.91497400  1
  O  O97  1  0.15693450  0.78543750  0.07367650  1
  O  O98  1  0.20060400  0.96204400  0.21928000  1
  O  O99  1  0.09512300  0.44606600  0.33502600  1
  O  O100  1  0.53795600  0.29939600  0.78072000  1
  O  O101  1  0.44606600  0.09512300  0.16497400  1
  O  O102  1  0.96204400  0.20060400  0.28072000  1
  O  O103  1  0.15693450  0.28543750  0.17632350  1
  O  O104  1  0.28543750  0.65693450  0.92632350  1
  O  O105  1  0.96204400  0.29939600  0.46928000  1
  O  O106  1  0.84306550  0.28543750  0.67632350  1
  O  O107  1  0.21456250  0.65693450  0.32367650  1
  O  O108  1  0.94606600  0.09512300  0.58502600  1
  O  O109  1  0.09512300  0.05393400  0.41497400  1
  O  O110  1  0.28543750  0.15693450  0.32367650  1
  O  O111  1  0.29939600  0.46204400  0.21928000  1
  O  O112  1  0.20060400  0.53795600  0.53072000  1
  O  O113  1  0.90487700  0.44606600  0.83502600  1
  O  O114  1  0.71456250  0.34306550  0.92632350  1
  O  O115  1  0.05393400  0.40487700  0.66497400  1
  O  O116  1  0.78543750  0.84306550  0.92632350  1
  O  O117  1  0.65693450  0.71456250  0.07367650  1
  O  O118  1  0.53795600  0.70060400  0.28072000  1
  O  O119  1  0.71456250  0.84306550  0.32367650  1
  O  O120  1  0.84306550  0.21456250  0.07367650  1
  O  O121  1  0.53795600  0.79939600  0.46928000  1
  O  O122  1  0.05393400  0.90487700  0.58502600  1
  O  O123  1  0.96204400  0.70060400  0.96928000  1
  O  O124  1  0.90487700  0.05393400  0.91497400  1
  O  O125  1  0.79939600  0.53795600  0.03072000  1
  O  O126  1  0.34306550  0.21456250  0.67632350  1
  O  O127  1  0.09512300  0.55393400  0.83502600  1
  O  O128  1  0.70060400  0.53795600  0.21928000  1
  O  O129  1  0.96204400  0.79939600  0.78072000  1
  O  O130  1  0.71456250  0.65693450  0.42632350  1
  O  O131  1  0.79939600  0.03795600  0.21928000  1
  O  O132  1  0.55393400  0.59512300  0.58502600  1
  O  O133  1  0.09512300  0.94606600  0.91497400  1
  O  O134  1  0.84306550  0.78543750  0.57367650  1
  O  O135  1  0.44606600  0.40487700  0.58502600  1
  O  O136  1  0.55393400  0.09512300  0.66497400  1
  O  O137  1  0.15693450  0.71456250  0.67632350  1
  O  O138  1  0.40487700  0.05393400  0.83502600  1
  O  O139  1  0.44606600  0.90487700  0.66497400  1
  O  O140  1  0.70060400  0.96204400  0.53072000  1
  O  O141  1  0.28543750  0.84306550  0.82367650  1
  O  O142  1  0.03795600  0.70060400  0.46928000  1
  O  O143  1  0.29939600  0.96204400  0.03072000  1
  O  O144  1  0.90487700  0.94606600  0.41497400  1
  O  O145  1  0.65693450  0.28543750  0.57367650  1
  O  O146  1  0.70060400  0.46204400  0.71928000  1
  O  O147  1  0.59512300  0.94606600  0.83502600  1
  O  O148  1  0.03795600  0.79939600  0.28072000  1
  O  O149  1  0.94606600  0.59512300  0.66497400  1
  O  O150  1  0.46204400  0.70060400  0.78072000  1
  O  O151  1  0.65693450  0.78543750  0.67632350  1
  O  O152  1  0.78543750  0.15693450  0.42632350  1
  O  O153  1  0.46204400  0.79939600  0.96928000  1
  O  O154  1  0.34306550  0.78543750  0.17632350  1
  O  O155  1  0.71456250  0.15693450  0.82367650  1
  O  O156  1  0.44606600  0.59512300  0.08502600  1
  O  O157  1  0.59512300  0.55393400  0.91497400  1
  O  O158  1  0.78543750  0.65693450  0.82367650  1
  O  O159  1  0.79939600  0.96204400  0.71928000  1
