# generated using pymatgen
data_Ca(H8O5)2
_symmetry_space_group_name_H-M   'P 1'
_cell_length_a   6.14204400
_cell_length_b   6.13582100
_cell_length_c   11.34684395
_cell_angle_alpha   90.00000000
_cell_angle_beta   91.18505345
_cell_angle_gamma   90.00000000
_symmetry_Int_Tables_number   1
_chemical_formula_structural   Ca(H8O5)2
_chemical_formula_sum   'Ca2 H32 O20'
_cell_volume   427.53117340
_cell_formula_units_Z   2
loop_
 _symmetry_equiv_pos_site_id
 _symmetry_equiv_pos_as_xyz
  1  'x, y, z'
loop_
 _atom_site_type_symbol
 _atom_site_label
 _atom_site_symmetry_multiplicity
 _atom_site_fract_x
 _atom_site_fract_y
 _atom_site_fract_z
 _atom_site_occupancy
  Ca  Ca0  1  0.99278900  0.00687700  0.49987400  1
  Ca  Ca1  1  0.99278900  0.99312300  0.99987400  1
  H  H2  1  0.37278000  0.27741200  0.60842100  1
  H  H3  1  0.43732600  0.03279000  0.61512900  1
  H  H4  1  0.70520300  0.91901000  0.70762400  1
  H  H5  1  0.62195700  0.73557900  0.61079800  1
  H  H6  1  0.07892300  0.69467800  0.70615600  1
  H  H7  1  0.26839300  0.61975900  0.60972100  1
  H  H8  1  0.96886100  0.44176700  0.61311300  1
  H  H9  1  0.72616800  0.37146000  0.61030500  1
  H  H10  1  0.37278000  0.72258800  0.10842100  1
  H  H11  1  0.43732600  0.96721000  0.11512900  1
  H  H12  1  0.62195700  0.26442100  0.11079800  1
  H  H13  1  0.70520300  0.08099000  0.20762400  1
  H  H14  1  0.07892300  0.30532200  0.20615600  1
  H  H15  1  0.26839300  0.38024100  0.10972100  1
  H  H16  1  0.72616800  0.62854000  0.11030500  1
  H  H17  1  0.96886100  0.55823300  0.11311300  1
  H  H18  1  0.62887700  0.72631400  0.39016600  1
  H  H19  1  0.55928700  0.96874200  0.38735900  1
  H  H20  1  0.37906100  0.26980400  0.39025100  1
  H  H21  1  0.30493700  0.07653200  0.29323700  1
  H  H22  1  0.72422500  0.37389400  0.39225500  1
  H  H23  1  0.96705600  0.44167400  0.38321100  1
  H  H24  1  0.07837900  0.70613600  0.29332400  1
  H  H25  1  0.26639600  0.62218300  0.38942700  1
  H  H26  1  0.55928700  0.03125800  0.88735900  1
  H  H27  1  0.62887700  0.27368600  0.89016600  1
  H  H28  1  0.37906100  0.73019600  0.89025100  1
  H  H29  1  0.30493700  0.92346800  0.79323700  1
  H  H30  1  0.96705600  0.55832600  0.88321100  1
  H  H31  1  0.72422500  0.62610600  0.89225500  1
  H  H32  1  0.26639600  0.37781700  0.88942700  1
  H  H33  1  0.07837900  0.29386400  0.79332400  1
  O  O34  1  0.48855000  0.50668600  0.56647500  1
  O  O35  1  0.48855000  0.49331400  0.06647500  1
  O  O36  1  0.48753400  0.49786000  0.43362300  1
  O  O37  1  0.48753400  0.50214000  0.93362300  1
  O  O38  1  0.30901200  0.12897700  0.62765200  1
  O  O39  1  0.67951300  0.88953600  0.62314300  1
  O  O40  1  0.11609100  0.68662300  0.62254000  1
  O  O41  1  0.87624300  0.31186200  0.62639500  1
  O  O42  1  0.30901200  0.87102300  0.12765200  1
  O  O43  1  0.67951300  0.11046400  0.12314300  1
  O  O44  1  0.11609100  0.31337700  0.12254000  1
  O  O45  1  0.87624300  0.68813800  0.12639500  1
  O  O46  1  0.68875600  0.87585500  0.37429100  1
  O  O47  1  0.31386100  0.11659300  0.37710500  1
  O  O48  1  0.87044100  0.31203500  0.37084200  1
  O  O49  1  0.11062500  0.68012200  0.37756400  1
  O  O50  1  0.68875600  0.12414500  0.87429100  1
  O  O51  1  0.31386100  0.88340700  0.87710500  1
  O  O52  1  0.87044100  0.68796500  0.87084200  1
  O  O53  1  0.11062500  0.31987800  0.87756400  1
