# generated using pymatgen
data_Cs2Re2Se5
_symmetry_space_group_name_H-M   'P 1'
_cell_length_a   14.86342590
_cell_length_b   14.86342590
_cell_length_c   29.11429512
_cell_angle_alpha   90.00000000
_cell_angle_beta   90.00000000
_cell_angle_gamma   120.00000000
_symmetry_Int_Tables_number   1
_chemical_formula_structural   Cs2Re2Se5
_chemical_formula_sum   'Cs36 Re36 Se90'
_cell_volume   5570.25088527
_cell_formula_units_Z   18
loop_
 _symmetry_equiv_pos_site_id
 _symmetry_equiv_pos_as_xyz
  1  'x, y, z'
loop_
 _atom_site_type_symbol
 _atom_site_label
 _atom_site_symmetry_multiplicity
 _atom_site_fract_x
 _atom_site_fract_y
 _atom_site_fract_z
 _atom_site_occupancy
  Cs  Cs0  1  0.32806767  0.45796133  0.99280433  1
  Cs  Cs1  1  0.33859900  0.87537200  0.34052900  1
  Cs  Cs2  1  0.12462800  0.46322700  0.34052900  1
  Cs  Cs3  1  0.12989367  0.67193233  0.99280433  1
  Cs  Cs4  1  0.00526567  0.79656033  0.17386233  1
  Cs  Cs5  1  0.87537200  0.33859900  0.15947100  1
  Cs  Cs6  1  0.46322700  0.12462800  0.15947100  1
  Cs  Cs7  1  0.53677300  0.66140100  0.34052900  1
  Cs  Cs8  1  0.66140100  0.53677300  0.15947100  1
  Cs  Cs9  1  0.54203867  0.87010633  0.99280433  1
  Cs  Cs10  1  0.79129467  0.99473433  0.17386233  1
  Cs  Cs11  1  0.20343967  0.20870533  0.17386233  1
  Cs  Cs12  1  0.99473433  0.79129467  0.32613767  1
  Cs  Cs13  1  0.00526567  0.20870533  0.67386233  1
  Cs  Cs14  1  0.79129467  0.79656033  0.67386233  1
  Cs  Cs15  1  0.79656033  0.00526567  0.32613767  1
  Cs  Cs16  1  0.67193233  0.12989367  0.50719567  1
  Cs  Cs17  1  0.54203867  0.67193233  0.49280433  1
  Cs  Cs18  1  0.12989367  0.45796133  0.49280433  1
  Cs  Cs19  1  0.20343967  0.99473433  0.67386233  1
  Cs  Cs20  1  0.32806767  0.87010633  0.49280433  1
  Cs  Cs21  1  0.20870533  0.20343967  0.32613767  1
  Cs  Cs22  1  0.45796133  0.32806767  0.50719567  1
  Cs  Cs23  1  0.87010633  0.54203867  0.50719567  1
  Cs  Cs24  1  0.66140100  0.12462800  0.65947100  1
  Cs  Cs25  1  0.67193233  0.54203867  0.00719567  1
  Cs  Cs26  1  0.45796133  0.12989367  0.00719567  1
  Cs  Cs27  1  0.46322700  0.33859900  0.65947100  1
  Cs  Cs28  1  0.33859900  0.46322700  0.84052900  1
  Cs  Cs29  1  0.20870533  0.00526567  0.82613767  1
  Cs  Cs30  1  0.79656033  0.79129467  0.82613767  1
  Cs  Cs31  1  0.87010633  0.32806767  0.00719567  1
  Cs  Cs32  1  0.99473433  0.20343967  0.82613767  1
  Cs  Cs33  1  0.87537200  0.53677300  0.65947100  1
  Cs  Cs34  1  0.12462800  0.66140100  0.84052900  1
  Cs  Cs35  1  0.53677300  0.87537200  0.84052900  1
  Re  Re36  1  0.22321033  0.65058467  0.20400367  1
  Re  Re37  1  0.31725133  0.76070767  0.12932967  1
  Re  Re38  1  0.44345633  0.68274867  0.12932967  1
  Re  Re39  1  0.57262567  0.34941533  0.29599633  1
  Re  Re40  1  0.88987700  0.90595900  0.03733700  1
  Re  Re41  1  0.65058467  0.22321033  0.29599633  1
  Re  Re42  1  0.23929233  0.55654367  0.12932967  1
  Re  Re43  1  0.01608200  0.11012300  0.03733700  1
  Re  Re44  1  0.42737433  0.77678967  0.20400367  1
  Re  Re45  1  0.34941533  0.57262567  0.20400367  1
  Re  Re46  1  0.09404100  0.98391800  0.03733700  1
  Re  Re47  1  0.77678967  0.42737433  0.29599633  1
  Re  Re48  1  0.88987700  0.98391800  0.53733700  1
  Re  Re49  1  0.98391800  0.09404100  0.46266300  1
  Re  Re50  1  0.11012300  0.01608200  0.46266300  1
  Re  Re51  1  0.23929233  0.68274867  0.62932967  1
  Re  Re52  1  0.55654367  0.23929233  0.37067033  1
  Re  Re53  1  0.31725133  0.55654367  0.62932967  1
  Re  Re54  1  0.90595900  0.88987700  0.46266300  1
  Re  Re55  1  0.68274867  0.44345633  0.37067033  1
  Re  Re56  1  0.09404100  0.11012300  0.53733700  1
  Re  Re57  1  0.01608200  0.90595900  0.53733700  1
  Re  Re58  1  0.76070767  0.31725133  0.37067033  1
  Re  Re59  1  0.44345633  0.76070767  0.62932967  1
  Re  Re60  1  0.55654367  0.31725133  0.87067033  1
  Re  Re61  1  0.65058467  0.42737433  0.79599633  1
  Re  Re62  1  0.77678967  0.34941533  0.79599633  1
  Re  Re63  1  0.90595900  0.01608200  0.96266300  1
  Re  Re64  1  0.22321033  0.57262567  0.70400367  1
  Re  Re65  1  0.98391800  0.88987700  0.96266300  1
  Re  Re66  1  0.57262567  0.22321033  0.79599633  1
  Re  Re67  1  0.34941533  0.77678967  0.70400367  1
  Re  Re68  1  0.76070767  0.44345633  0.87067033  1
  Re  Re69  1  0.68274867  0.23929233  0.87067033  1
  Re  Re70  1  0.42737433  0.65058467  0.70400367  1
  Re  Re71  1  0.11012300  0.09404100  0.96266300  1
  Se  Se72  1  0.45137433  0.36368067  0.23504867  1
  Se  Se73  1  0.12142300  0.63581200  0.13147400  1
  Se  Se74  1  0.91230633  0.54862567  0.23504867  1
  Se  Se75  1  0.75436033  0.78470767  0.09828467  1
  Se  Se76  1  0.33333333  0.66666667  0.27413967  1
  Se  Se77  1  0.69752133  0.54524367  0.29814067  1
  Se  Se78  1  0.36418800  0.48561100  0.13147400  1
  Se  Se79  1  0.08769367  0.63631933  0.26495133  1
  Se  Se80  1  0.96914533  0.78808967  0.03519267  1
  Se  Se81  1  0.81894433  0.03085467  0.03519267  1
  Se  Se82  1  0.84772233  0.30247867  0.29814067  1
  Se  Se83  1  0.15227767  0.45475633  0.20185933  1
  Se  Se84  1  0.54862567  0.91230633  0.26495133  1
  Se  Se85  1  0.33333333  0.66666667  0.05919367  1
  Se  Se86  1  0.21191033  0.18105567  0.03519267  1
  Se  Se87  1  0.33333333  0.66666667  0.77413967  1
  Se  Se88  1  0.57897300  0.69701400  0.06838200  1
  Se  Se89  1  0.45475633  0.15227767  0.29814067  1
  Se  Se90  1  0.30298600  0.88195900  0.06838200  1
  Se  Se91  1  0.03034733  0.24563967  0.09828467  1
  Se  Se92  1  0.11804100  0.42102700  0.06838200  1
  Se  Se93  1  0.33333333  0.66666667  0.55919367  1
  Se  Se94  1  0.36368067  0.45137433  0.26495133  1
  Se  Se95  1  0.30247867  0.84772233  0.20185933  1
  Se  Se96  1  0.54524367  0.69752133  0.20185933  1
  Se  Se97  1  0.51438900  0.87857700  0.13147400  1
  Se  Se98  1  0.33333333  0.66666667  0.91666667  1
  Se  Se99  1  0.21529233  0.96965267  0.09828467  1
  Se  Se100  1  0.63631933  0.08769367  0.23504867  1
  Se  Se101  1  0.33333333  0.66666667  0.41666667  1
  Se  Se102  1  0.11804100  0.69701400  0.56838200  1
  Se  Se103  1  0.78808967  0.96914533  0.46480733  1
  Se  Se104  1  0.57897300  0.88195900  0.56838200  1
  Se  Se105  1  0.42102700  0.11804100  0.43161800  1
  Se  Se106  1  0.00000000  0.00000000  0.60747300  1
  Se  Se107  1  0.36418800  0.87857700  0.63147400  1
  Se  Se108  1  0.03085467  0.81894433  0.46480733  1
  Se  Se109  1  0.75436033  0.96965267  0.59828467  1
  Se  Se110  1  0.63581200  0.12142300  0.36852600  1
  Se  Se111  1  0.48561100  0.36418800  0.36852600  1
  Se  Se112  1  0.51438900  0.63581200  0.63147400  1
  Se  Se113  1  0.81894433  0.78808967  0.53519267  1
  Se  Se114  1  0.21529233  0.24563967  0.59828467  1
  Se  Se115  1  0.00000000  0.00000000  0.39252700  1
  Se  Se116  1  0.87857700  0.51438900  0.36852600  1
  Se  Se117  1  0.00000000  0.00000000  0.10747300  1
  Se  Se118  1  0.24563967  0.03034733  0.40171533  1
  Se  Se119  1  0.12142300  0.48561100  0.63147400  1
  Se  Se120  1  0.96965267  0.21529233  0.40171533  1
  Se  Se121  1  0.69701400  0.57897300  0.43161800  1
  Se  Se122  1  0.78470767  0.75436033  0.40171533  1
  Se  Se123  1  1.00000000  0.00000000  0.89252700  1
  Se  Se124  1  0.03034733  0.78470767  0.59828467  1
  Se  Se125  1  0.96914533  0.18105567  0.53519267  1
  Se  Se126  1  0.21191033  0.03085467  0.53519267  1
  Se  Se127  1  0.18105567  0.21191033  0.46480733  1
  Se  Se128  1  0.00000000  0.00000000  0.25000000  1
  Se  Se129  1  0.88195900  0.30298600  0.43161800  1
  Se  Se130  1  0.30298600  0.42102700  0.56838200  1
  Se  Se131  1  0.00000000  0.00000000  0.75000000  1
  Se  Se132  1  0.78470767  0.03034733  0.90171533  1
  Se  Se133  1  0.45475633  0.30247867  0.79814067  1
  Se  Se134  1  0.24563967  0.21529233  0.90171533  1
  Se  Se135  1  0.08769367  0.45137433  0.76495133  1
  Se  Se136  1  0.66666667  0.33333333  0.94080633  1
  Se  Se137  1  0.03085467  0.21191033  0.96480733  1
  Se  Se138  1  0.69752133  0.15227767  0.79814067  1
  Se  Se139  1  0.42102700  0.30298600  0.93161800  1
  Se  Se140  1  0.30247867  0.45475633  0.70185933  1
  Se  Se141  1  0.15227767  0.69752133  0.70185933  1
  Se  Se142  1  0.18105567  0.96914533  0.96480733  1
  Se  Se143  1  0.48561100  0.12142300  0.86852600  1
  Se  Se144  1  0.88195900  0.57897300  0.93161800  1
  Se  Se145  1  0.66666667  0.33333333  0.72586033  1
  Se  Se146  1  0.54524367  0.84772233  0.70185933  1
  Se  Se147  1  0.66666667  0.33333333  0.44080633  1
  Se  Se148  1  0.91230633  0.36368067  0.73504867  1
  Se  Se149  1  0.78808967  0.81894433  0.96480733  1
  Se  Se150  1  0.63631933  0.54862567  0.73504867  1
  Se  Se151  1  0.36368067  0.91230633  0.76495133  1
  Se  Se152  1  0.45137433  0.08769367  0.73504867  1
  Se  Se153  1  0.66666667  0.33333333  0.22586033  1
  Se  Se154  1  0.69701400  0.11804100  0.93161800  1
  Se  Se155  1  0.63581200  0.51438900  0.86852600  1
  Se  Se156  1  0.87857700  0.36418800  0.86852600  1
  Se  Se157  1  0.84772233  0.54524367  0.79814067  1
  Se  Se158  1  0.66666667  0.33333333  0.58333333  1
  Se  Se159  1  0.54862567  0.63631933  0.76495133  1
  Se  Se160  1  0.96965267  0.75436033  0.90171533  1
  Se  Se161  1  0.66666667  0.33333333  0.08333333  1
