# generated using pymatgen
data_NaZr2(PO4)3
_symmetry_space_group_name_H-M   'P 1'
_cell_length_a   8.94368410
_cell_length_b   8.94368410
_cell_length_c   23.01463668
_cell_angle_alpha   90.00000000
_cell_angle_beta   90.00000000
_cell_angle_gamma   120.00000000
_symmetry_Int_Tables_number   1
_chemical_formula_structural   NaZr2(PO4)3
_chemical_formula_sum   'Na6 Zr12 P18 O72'
_cell_volume   1594.29123095
_cell_formula_units_Z   6
loop_
 _symmetry_equiv_pos_site_id
 _symmetry_equiv_pos_as_xyz
  1  'x, y, z'
loop_
 _atom_site_type_symbol
 _atom_site_label
 _atom_site_symmetry_multiplicity
 _atom_site_fract_x
 _atom_site_fract_y
 _atom_site_fract_z
 _atom_site_occupancy
  Na  Na0  1  0.33333333  0.66666667  0.16666667  1
  Na  Na1  1  0.00000000  0.00000000  0.00000000  1
  Na  Na2  1  1.00000000  0.00000000  0.50000000  1
  Na  Na3  1  0.66666667  0.33333333  0.33333333  1
  Na  Na4  1  0.66666667  0.33333333  0.83333333  1
  Na  Na5  1  0.33333333  0.66666667  0.66666667  1
  Zr  Zr6  1  0.00000000  0.00000000  0.14511100  1
  Zr  Zr7  1  0.33333333  0.66666667  0.02155567  1
  Zr  Zr8  1  0.33333333  0.66666667  0.31177767  1
  Zr  Zr9  1  0.66666667  0.33333333  0.18822233  1
  Zr  Zr10  1  0.66666667  0.33333333  0.47844433  1
  Zr  Zr11  1  0.00000000  0.00000000  0.35488900  1
  Zr  Zr12  1  0.00000000  0.00000000  0.64511100  1
  Zr  Zr13  1  0.33333333  0.66666667  0.52155567  1
  Zr  Zr14  1  0.33333333  0.66666667  0.81177767  1
  Zr  Zr15  1  0.66666667  0.33333333  0.68822233  1
  Zr  Zr16  1  0.66666667  0.33333333  0.97844433  1
  Zr  Zr17  1  0.00000000  0.00000000  0.85488900  1
  P  P18  1  0.66666667  0.62437833  0.08333333  1
  P  P19  1  0.95771167  0.33333333  0.08333333  1
  P  P20  1  0.00000000  0.70895500  0.25000000  1
  P  P21  1  0.70895500  0.00000000  0.25000000  1
  P  P22  1  0.37562167  0.04228833  0.08333333  1
  P  P23  1  0.29104500  0.29104500  0.25000000  1
  P  P24  1  0.33333333  0.95771167  0.41666667  1
  P  P25  1  0.62437833  0.66666667  0.41666667  1
  P  P26  1  0.66666667  0.04228833  0.58333333  1
  P  P27  1  0.37562167  0.33333333  0.58333333  1
  P  P28  1  0.04228833  0.37562167  0.41666667  1
  P  P29  1  0.95771167  0.62437833  0.58333333  1
  P  P30  1  0.00000000  0.29104500  0.75000000  1
  P  P31  1  0.29104500  0.00000000  0.75000000  1
  P  P32  1  0.33333333  0.37562167  0.91666667  1
  P  P33  1  0.04228833  0.66666667  0.91666667  1
  P  P34  1  0.70895500  0.70895500  0.75000000  1
  P  P35  1  0.62437833  0.95771167  0.91666667  1
  O  O36  1  0.47239600  0.30966000  0.24704200  1
  O  O37  1  0.83726400  0.52760400  0.24704200  1
  O  O38  1  0.69034000  0.16273600  0.24704200  1
  O  O39  1  0.30966000  0.47239600  0.25295800  1
  O  O40  1  0.16273600  0.69034000  0.25295800  1
  O  O41  1  0.52760400  0.83726400  0.25295800  1
  O  O42  1  0.19427067  0.02367333  0.08629133  1
  O  O43  1  0.82940267  0.80572933  0.08629133  1
  O  O44  1  0.97632667  0.17059733  0.08629133  1
  O  O45  1  0.35700667  0.86093733  0.08037533  1
  O  O46  1  0.50393067  0.64299333  0.08037533  1
  O  O47  1  0.13906267  0.49606933  0.08037533  1
  O  O48  1  0.81459500  0.01395900  0.30482800  1
  O  O49  1  0.98604100  0.80063600  0.30482800  1
  O  O50  1  0.19936400  0.18540500  0.30482800  1
  O  O51  1  0.80063600  0.98604100  0.19517200  1
  O  O52  1  0.01395900  0.81459500  0.19517200  1
  O  O53  1  0.18540500  0.19936400  0.19517200  1
  O  O54  1  0.85207167  0.31937433  0.02850533  1
  O  O55  1  0.68062567  0.53269733  0.02850533  1
  O  O56  1  0.46730267  0.14792833  0.02850533  1
  O  O57  1  0.86603067  0.34729233  0.13816133  1
  O  O58  1  0.65270767  0.51873833  0.13816133  1
  O  O59  1  0.48126167  0.13396933  0.13816133  1
  O  O60  1  0.13906267  0.64299333  0.58037533  1
  O  O61  1  0.50393067  0.86093733  0.58037533  1
  O  O62  1  0.35700667  0.49606933  0.58037533  1
  O  O63  1  0.97632667  0.80572933  0.58629133  1
  O  O64  1  0.82940267  0.02367333  0.58629133  1
  O  O65  1  0.19427067  0.17059733  0.58629133  1
  O  O66  1  0.86093733  0.35700667  0.41962467  1
  O  O67  1  0.49606933  0.13906267  0.41962467  1
  O  O68  1  0.64299333  0.50393067  0.41962467  1
  O  O69  1  0.02367333  0.19427067  0.41370867  1
  O  O70  1  0.17059733  0.97632667  0.41370867  1
  O  O71  1  0.80572933  0.82940267  0.41370867  1
  O  O72  1  0.48126167  0.34729233  0.63816133  1
  O  O73  1  0.65270767  0.13396933  0.63816133  1
  O  O74  1  0.86603067  0.51873833  0.63816133  1
  O  O75  1  0.46730267  0.31937433  0.52850533  1
  O  O76  1  0.68062567  0.14792833  0.52850533  1
  O  O77  1  0.85207167  0.53269733  0.52850533  1
  O  O78  1  0.51873833  0.65270767  0.36183867  1
  O  O79  1  0.34729233  0.86603067  0.36183867  1
  O  O80  1  0.13396933  0.48126167  0.36183867  1
  O  O81  1  0.53269733  0.68062567  0.47149467  1
  O  O82  1  0.31937433  0.85207167  0.47149467  1
  O  O83  1  0.14792833  0.46730267  0.47149467  1
  O  O84  1  0.80572933  0.97632667  0.91370867  1
  O  O85  1  0.17059733  0.19427067  0.91370867  1
  O  O86  1  0.02367333  0.82940267  0.91370867  1
  O  O87  1  0.64299333  0.13906267  0.91962467  1
  O  O88  1  0.49606933  0.35700667  0.91962467  1
  O  O89  1  0.86093733  0.50393067  0.91962467  1
  O  O90  1  0.52760400  0.69034000  0.75295800  1
  O  O91  1  0.16273600  0.47239600  0.75295800  1
  O  O92  1  0.30966000  0.83726400  0.75295800  1
  O  O93  1  0.69034000  0.52760400  0.74704200  1
  O  O94  1  0.83726400  0.30966000  0.74704200  1
  O  O95  1  0.47239600  0.16273600  0.74704200  1
  O  O96  1  0.14792833  0.68062567  0.97149467  1
  O  O97  1  0.31937433  0.46730267  0.97149467  1
  O  O98  1  0.53269733  0.85207167  0.97149467  1
  O  O99  1  0.13396933  0.65270767  0.86183867  1
  O  O100  1  0.34729233  0.48126167  0.86183867  1
  O  O101  1  0.51873833  0.86603067  0.86183867  1
  O  O102  1  0.18540500  0.98604100  0.69517200  1
  O  O103  1  0.01395900  0.19936400  0.69517200  1
  O  O104  1  0.80063600  0.81459500  0.69517200  1
  O  O105  1  0.19936400  0.01395900  0.80482800  1
  O  O106  1  0.98604100  0.18540500  0.80482800  1
  O  O107  1  0.81459500  0.80063600  0.80482800  1
