# generated using pymatgen
data_Dy2PbS4
_symmetry_space_group_name_H-M   'P 1'
_cell_length_a   8.54203400
_cell_length_b   8.54203400
_cell_length_c   8.51783600
_cell_angle_alpha   90.00000000
_cell_angle_beta   90.00000000
_cell_angle_gamma   90.00000000
_symmetry_Int_Tables_number   1
_chemical_formula_structural   Dy2PbS4
_chemical_formula_sum   'Dy8 Pb4 S16'
_cell_volume   621.51535901
_cell_formula_units_Z   4
loop_
 _symmetry_equiv_pos_site_id
 _symmetry_equiv_pos_as_xyz
  1  'x, y, z'
loop_
 _atom_site_type_symbol
 _atom_site_label
 _atom_site_symmetry_multiplicity
 _atom_site_fract_x
 _atom_site_fract_y
 _atom_site_fract_z
 _atom_site_occupancy
  Dy  Dy0  1  0.87146200  0.75000000  0.87500000  1
  Dy  Dy1  1  0.75000000  0.37146200  0.62500000  1
  Dy  Dy2  1  0.62853800  0.75000000  0.37500000  1
  Dy  Dy3  1  0.75000000  0.12853800  0.12500000  1
  Dy  Dy4  1  0.37146200  0.25000000  0.37500000  1
  Dy  Dy5  1  0.25000000  0.87146200  0.12500000  1
  Dy  Dy6  1  0.12853800  0.25000000  0.87500000  1
  Dy  Dy7  1  0.25000000  0.62853800  0.62500000  1
  Pb  Pb8  1  0.00000000  0.00000000  0.50000000  1
  Pb  Pb9  1  0.50000000  0.00000000  0.75000000  1
  Pb  Pb10  1  0.50000000  0.50000000  0.00000000  1
  Pb  Pb11  1  0.00000000  0.50000000  0.25000000  1
  S  S12  1  0.07238950  0.17290450  0.18359650  1
  S  S13  1  0.82709550  0.42761050  0.93359650  1
  S  S14  1  0.67290450  0.07238950  0.43359650  1
  S  S15  1  0.67290450  0.42761050  0.31640350  1
  S  S16  1  0.07238950  0.32709550  0.56640350  1
  S  S17  1  0.42761050  0.32709550  0.68359650  1
  S  S18  1  0.82709550  0.07238950  0.81640350  1
  S  S19  1  0.42761050  0.17290450  0.06640350  1
  S  S20  1  0.57238950  0.67290450  0.68359650  1
  S  S21  1  0.32709550  0.92761050  0.43359650  1
  S  S22  1  0.17290450  0.57238950  0.93359650  1
  S  S23  1  0.17290450  0.92761050  0.81640350  1
  S  S24  1  0.57238950  0.82709550  0.06640350  1
  S  S25  1  0.92761050  0.82709550  0.18359650  1
  S  S26  1  0.32709550  0.57238950  0.31640350  1
  S  S27  1  0.92761050  0.67290450  0.56640350  1
