# generated using pymatgen
data_V3O7
_symmetry_space_group_name_H-M   'P 1'
_cell_length_a   22.53716600
_cell_length_b   3.68722600
_cell_length_c   18.66971198
_cell_angle_alpha   90.00000000
_cell_angle_beta   95.22421823
_cell_angle_gamma   90.00000000
_symmetry_Int_Tables_number   1
_chemical_formula_structural   V3O7
_chemical_formula_sum   'V36 O84'
_cell_volume   1545.00134736
_cell_formula_units_Z   12
loop_
 _symmetry_equiv_pos_site_id
 _symmetry_equiv_pos_as_xyz
  1  'x, y, z'
loop_
 _atom_site_type_symbol
 _atom_site_label
 _atom_site_symmetry_multiplicity
 _atom_site_fract_x
 _atom_site_fract_y
 _atom_site_fract_z
 _atom_site_occupancy
  V  V0  1  0.96909950  0.74828950  0.55502900  1
  V  V1  1  0.53090050  0.75171050  0.44497100  1
  V  V2  1  0.69464300  0.70791600  0.44042700  1
  V  V3  1  0.53090050  0.24828950  0.94497100  1
  V  V4  1  0.66119200  0.75111900  0.25388200  1
  V  V5  1  0.66119200  0.24888100  0.75388200  1
  V  V6  1  0.00000000  0.21452900  0.25000000  1
  V  V7  1  0.67099450  0.74785450  0.62530600  1
  V  V8  1  0.69464300  0.29208400  0.94042700  1
  V  V9  1  0.83880800  0.25111900  0.24611800  1
  V  V10  1  0.67099450  0.25214550  0.12530600  1
  V  V11  1  0.96909950  0.25171050  0.05502900  1
  V  V12  1  0.83880800  0.74888100  0.74611800  1
  V  V13  1  0.80535700  0.79208400  0.55957300  1
  V  V14  1  0.80535700  0.20791600  0.05957300  1
  V  V15  1  0.82900550  0.75214550  0.37469400  1
  V  V16  1  0.00000000  0.78547100  0.75000000  1
  V  V17  1  0.82900550  0.24785450  0.87469400  1
  V  V18  1  0.46909950  0.24828950  0.55502900  1
  V  V19  1  0.03090050  0.25171050  0.44497100  1
  V  V20  1  0.19464300  0.20791600  0.44042700  1
  V  V21  1  0.03090050  0.74828950  0.94497100  1
  V  V22  1  0.16119200  0.25111900  0.25388200  1
  V  V23  1  0.16119200  0.74888100  0.75388200  1
  V  V24  1  0.50000000  0.71452900  0.25000000  1
  V  V25  1  0.17099450  0.24785450  0.62530600  1
  V  V26  1  0.19464300  0.79208400  0.94042700  1
  V  V27  1  0.33880800  0.75111900  0.24611800  1
  V  V28  1  0.17099450  0.75214550  0.12530600  1
  V  V29  1  0.46909950  0.75171050  0.05502900  1
  V  V30  1  0.33880800  0.24888100  0.74611800  1
  V  V31  1  0.30535700  0.29208400  0.55957300  1
  V  V32  1  0.30535700  0.70791600  0.05957300  1
  V  V33  1  0.32900550  0.25214550  0.37469400  1
  V  V34  1  0.50000000  0.28547100  0.75000000  1
  V  V35  1  0.32900550  0.74785450  0.87469400  1
  O  O36  1  0.89445050  0.75439850  0.56195200  1
  O  O37  1  0.50217950  0.25198050  0.64050900  1
  O  O38  1  0.82657150  0.74993250  0.26783700  1
  O  O39  1  0.71358950  0.75099050  0.54907500  1
  O  O40  1  0.70266650  0.25123250  0.83484600  1
  O  O41  1  0.68438250  0.24784050  0.65493400  1
  O  O42  1  0.78641050  0.74900950  0.45092500  1
  O  O43  1  0.81561750  0.74784050  0.84506600  1
  O  O44  1  0.91057650  0.74816750  0.73404100  1
  O  O45  1  0.79733350  0.75123250  0.66515400  1
  O  O46  1  0.00000000  0.25909400  0.75000000  1
  O  O47  1  0.80511300  0.73133900  0.05863200  1
  O  O48  1  0.67342850  0.24993250  0.23216300  1
  O  O49  1  0.60554950  0.74560150  0.43804800  1
  O  O50  1  0.89445050  0.24560150  0.06195200  1
  O  O51  1  0.89726600  0.75074600  0.40579400  1
  O  O52  1  0.60273400  0.74925400  0.59420600  1
  O  O53  1  0.69488700  0.23133900  0.44136800  1
  O  O54  1  0.91057650  0.25183250  0.23404100  1
  O  O55  1  0.82657150  0.25006750  0.76783700  1
  O  O56  1  0.00000000  0.74090600  0.25000000  1
  O  O57  1  0.50217950  0.74801950  0.14050900  1
  O  O58  1  0.52238300  0.24886400  0.47475400  1
  O  O59  1  0.99782050  0.24801950  0.35949100  1
  O  O60  1  0.68438250  0.75215950  0.15493400  1
  O  O61  1  0.71358950  0.24900950  0.04907500  1
  O  O62  1  0.79733350  0.24876750  0.16515400  1
  O  O63  1  0.81561750  0.25215950  0.34506600  1
  O  O64  1  0.58942350  0.24816750  0.76595900  1
  O  O65  1  0.60273400  0.25074600  0.09420600  1
  O  O66  1  0.52238300  0.75113600  0.97475400  1
  O  O67  1  0.67342850  0.75006750  0.73216300  1
  O  O68  1  0.78641050  0.25099050  0.95092500  1
  O  O69  1  0.80511300  0.26866100  0.55863200  1
  O  O70  1  0.97761700  0.25113600  0.52524600  1
  O  O71  1  0.60554950  0.25439850  0.93804800  1
  O  O72  1  0.97761700  0.74886400  0.02524600  1
  O  O73  1  0.69488700  0.76866100  0.94136800  1
  O  O74  1  0.99782050  0.75198050  0.85949100  1
  O  O75  1  0.89726600  0.24925400  0.90579400  1
  O  O76  1  0.70266650  0.74876750  0.33484600  1
  O  O77  1  0.58942350  0.75183250  0.26595900  1
  O  O78  1  0.39445050  0.25439850  0.56195200  1
  O  O79  1  0.00217950  0.75198050  0.64050900  1
  O  O80  1  0.32657150  0.24993250  0.26783700  1
  O  O81  1  0.21358950  0.25099050  0.54907500  1
  O  O82  1  0.20266650  0.75123250  0.83484600  1
  O  O83  1  0.18438250  0.74784050  0.65493400  1
  O  O84  1  0.28641050  0.24900950  0.45092500  1
  O  O85  1  0.31561750  0.24784050  0.84506600  1
  O  O86  1  0.41057650  0.24816750  0.73404100  1
  O  O87  1  0.29733350  0.25123250  0.66515400  1
  O  O88  1  0.50000000  0.75909400  0.75000000  1
  O  O89  1  0.30511300  0.23133900  0.05863200  1
  O  O90  1  0.17342850  0.74993250  0.23216300  1
  O  O91  1  0.10554950  0.24560150  0.43804800  1
  O  O92  1  0.39445050  0.74560150  0.06195200  1
  O  O93  1  0.39726600  0.25074600  0.40579400  1
  O  O94  1  0.10273400  0.24925400  0.59420600  1
  O  O95  1  0.19488700  0.73133900  0.44136800  1
  O  O96  1  0.41057650  0.75183250  0.23404100  1
  O  O97  1  0.32657150  0.75006750  0.76783700  1
  O  O98  1  0.50000000  0.24090600  0.25000000  1
  O  O99  1  0.00217950  0.24801950  0.14050900  1
  O  O100  1  0.02238300  0.74886400  0.47475400  1
  O  O101  1  0.49782050  0.74801950  0.35949100  1
  O  O102  1  0.18438250  0.25215950  0.15493400  1
  O  O103  1  0.21358950  0.74900950  0.04907500  1
  O  O104  1  0.29733350  0.74876750  0.16515400  1
  O  O105  1  0.31561750  0.75215950  0.34506600  1
  O  O106  1  0.08942350  0.74816750  0.76595900  1
  O  O107  1  0.10273400  0.75074600  0.09420600  1
  O  O108  1  0.02238300  0.25113600  0.97475400  1
  O  O109  1  0.17342850  0.25006750  0.73216300  1
  O  O110  1  0.28641050  0.75099050  0.95092500  1
  O  O111  1  0.30511300  0.76866100  0.55863200  1
  O  O112  1  0.47761700  0.75113600  0.52524600  1
  O  O113  1  0.10554950  0.75439850  0.93804800  1
  O  O114  1  0.47761700  0.24886400  0.02524600  1
  O  O115  1  0.19488700  0.26866100  0.94136800  1
  O  O116  1  0.49782050  0.25198050  0.85949100  1
  O  O117  1  0.39726600  0.74925400  0.90579400  1
  O  O118  1  0.20266650  0.24876750  0.33484600  1
  O  O119  1  0.08942350  0.25183250  0.26595900  1
