# generated using pymatgen
data_HfO2
_symmetry_space_group_name_H-M   'P 1'
_cell_length_a   5.04013800
_cell_length_b   5.07445100
_cell_length_c   5.26927600
_cell_angle_alpha   90.00000000
_cell_angle_beta   90.00000000
_cell_angle_gamma   90.00000000
_symmetry_Int_Tables_number   1
_chemical_formula_structural   HfO2
_chemical_formula_sum   'Hf4 O8'
_cell_volume   134.76665159
_cell_formula_units_Z   4
loop_
 _symmetry_equiv_pos_site_id
 _symmetry_equiv_pos_as_xyz
  1  'x, y, z'
loop_
 _atom_site_type_symbol
 _atom_site_label
 _atom_site_symmetry_multiplicity
 _atom_site_fract_x
 _atom_site_fract_y
 _atom_site_fract_z
 _atom_site_occupancy
  Hf  Hf0  1  0.26743600  0.24256900  0.03379500  1
  Hf  Hf1  1  0.26743600  0.74256900  0.46620500  1
  Hf  Hf2  1  0.73256400  0.24256900  0.53379500  1
  Hf  Hf3  1  0.73256400  0.74256900  0.96620500  1
  O  O4  1  0.07214300  0.37684700  0.36791100  1
  O  O5  1  0.07214300  0.87684700  0.13208900  1
  O  O6  1  0.45979700  0.49358400  0.73328800  1
  O  O7  1  0.45979700  0.99358400  0.76671200  1
  O  O8  1  0.54020300  0.99358400  0.26671200  1
  O  O9  1  0.54020300  0.49358400  0.23328800  1
  O  O10  1  0.92785700  0.37684700  0.86791100  1
  O  O11  1  0.92785700  0.87684700  0.63208900  1
