# generated using pymatgen
data_Ba5Tm8Zn4O21
_symmetry_space_group_name_H-M   'P 1'
_cell_length_a   13.75579800
_cell_length_b   13.75579800
_cell_length_c   5.70176000
_cell_angle_alpha   90.00000000
_cell_angle_beta   90.00000000
_cell_angle_gamma   90.00000000
_symmetry_Int_Tables_number   1
_chemical_formula_structural   Ba5Tm8Zn4O21
_chemical_formula_sum   'Ba10 Tm16 Zn8 O42'
_cell_volume   1078.89830880
_cell_formula_units_Z   2
loop_
 _symmetry_equiv_pos_site_id
 _symmetry_equiv_pos_as_xyz
  1  'x, y, z'
loop_
 _atom_site_type_symbol
 _atom_site_label
 _atom_site_symmetry_multiplicity
 _atom_site_fract_x
 _atom_site_fract_y
 _atom_site_fract_z
 _atom_site_occupancy
  Ba  Ba0  1  0.35972000  0.03603500  0.50000000  1
  Ba  Ba1  1  0.46396500  0.85972000  0.00000000  1
  Ba  Ba2  1  0.53603500  0.14028000  0.00000000  1
  Ba  Ba3  1  0.64028000  0.96396500  0.50000000  1
  Ba  Ba4  1  0.00000000  0.00000000  0.00000000  1
  Ba  Ba5  1  0.85972000  0.53603500  0.00000000  1
  Ba  Ba6  1  0.96396500  0.35972000  0.50000000  1
  Ba  Ba7  1  0.03603500  0.64028000  0.50000000  1
  Ba  Ba8  1  0.14028000  0.46396500  0.00000000  1
  Ba  Ba9  1  0.50000000  0.50000000  0.50000000  1
  Tm  Tm10  1  0.14140100  0.91128800  0.50000000  1
  Tm  Tm11  1  0.58871200  0.64140100  0.00000000  1
  Tm  Tm12  1  0.41128800  0.35859900  0.00000000  1
  Tm  Tm13  1  0.85859900  0.08871200  0.50000000  1
  Tm  Tm14  1  0.33156900  0.74762500  0.50000000  1
  Tm  Tm15  1  0.75237500  0.83156900  0.00000000  1
  Tm  Tm16  1  0.24762500  0.16843100  0.00000000  1
  Tm  Tm17  1  0.66843100  0.25237500  0.50000000  1
  Tm  Tm18  1  0.64140100  0.41128800  0.00000000  1
  Tm  Tm19  1  0.08871200  0.14140100  0.50000000  1
  Tm  Tm20  1  0.91128800  0.85859900  0.50000000  1
  Tm  Tm21  1  0.35859900  0.58871200  0.00000000  1
  Tm  Tm22  1  0.83156900  0.24762500  0.00000000  1
  Tm  Tm23  1  0.25237500  0.33156900  0.50000000  1
  Tm  Tm24  1  0.74762500  0.66843100  0.50000000  1
  Tm  Tm25  1  0.16843100  0.75237500  0.00000000  1
  Zn  Zn26  1  0.75064950  0.04052050  0.00000000  1
  Zn  Zn27  1  0.45947950  0.25064950  0.50000000  1
  Zn  Zn28  1  0.54052050  0.74935050  0.50000000  1
  Zn  Zn29  1  0.24935050  0.95947950  0.00000000  1
  Zn  Zn30  1  0.25064950  0.54052050  0.50000000  1
  Zn  Zn31  1  0.95947950  0.75064950  0.00000000  1
  Zn  Zn32  1  0.04052050  0.24935050  0.00000000  1
  Zn  Zn33  1  0.74935050  0.45947950  0.50000000  1
  O  O34  1  0.74388150  0.14901850  0.24988150  1
  O  O35  1  0.35098150  0.24388150  0.74988150  1
  O  O36  1  0.64901850  0.75611850  0.74988150  1
  O  O37  1  0.25611850  0.85098150  0.24988150  1
  O  O38  1  0.25611850  0.85098150  0.75011850  1
  O  O39  1  0.64901850  0.75611850  0.25011850  1
  O  O40  1  0.35098150  0.24388150  0.25011850  1
  O  O41  1  0.74388150  0.14901850  0.75011850  1
  O  O42  1  0.54867400  0.32284900  0.24849600  1
  O  O43  1  0.17715100  0.04867400  0.74849600  1
  O  O44  1  0.82284900  0.95132600  0.74849600  1
  O  O45  1  0.45132600  0.67715100  0.24849600  1
  O  O46  1  0.45132600  0.67715100  0.75150400  1
  O  O47  1  0.82284900  0.95132600  0.25150400  1
  O  O48  1  0.17715100  0.04867400  0.25150400  1
  O  O49  1  0.54867400  0.32284900  0.75150400  1
  O  O50  1  0.53981000  0.12960100  0.50000000  1
  O  O51  1  0.00000000  0.00000000  0.50000000  1
  O  O52  1  0.46019000  0.87039900  0.50000000  1
  O  O53  1  0.62960100  0.96019000  0.00000000  1
  O  O54  1  0.37039900  0.03981000  0.00000000  1
  O  O55  1  0.24388150  0.64901850  0.74988150  1
  O  O56  1  0.85098150  0.74388150  0.24988150  1
  O  O57  1  0.14901850  0.25611850  0.24988150  1
  O  O58  1  0.75611850  0.35098150  0.74988150  1
  O  O59  1  0.75611850  0.35098150  0.25011850  1
  O  O60  1  0.14901850  0.25611850  0.75011850  1
  O  O61  1  0.85098150  0.74388150  0.75011850  1
  O  O62  1  0.24388150  0.64901850  0.25011850  1
  O  O63  1  0.04867400  0.82284900  0.74849600  1
  O  O64  1  0.67715100  0.54867400  0.24849600  1
  O  O65  1  0.32284900  0.45132600  0.24849600  1
  O  O66  1  0.95132600  0.17715100  0.74849600  1
  O  O67  1  0.95132600  0.17715100  0.25150400  1
  O  O68  1  0.32284900  0.45132600  0.75150400  1
  O  O69  1  0.67715100  0.54867400  0.75150400  1
  O  O70  1  0.04867400  0.82284900  0.25150400  1
  O  O71  1  0.03981000  0.62960100  0.00000000  1
  O  O72  1  0.50000000  0.50000000  0.00000000  1
  O  O73  1  0.96019000  0.37039900  0.00000000  1
  O  O74  1  0.12960100  0.46019000  0.50000000  1
  O  O75  1  0.87039900  0.53981000  0.50000000  1
