# generated using pymatgen
data_KLa(PO3)4
_symmetry_space_group_name_H-M   'P 1'
_cell_length_a   8.00285000
_cell_length_b   11.70068200
_cell_length_c   13.88453400
_cell_angle_alpha   90.00000000
_cell_angle_beta   90.00000000
_cell_angle_gamma   90.00000000
_symmetry_Int_Tables_number   1
_chemical_formula_structural   KLa(PO3)4
_chemical_formula_sum   'K4 La4 P16 O48'
_cell_volume   1300.13114319
_cell_formula_units_Z   4
loop_
 _symmetry_equiv_pos_site_id
 _symmetry_equiv_pos_as_xyz
  1  'x, y, z'
loop_
 _atom_site_type_symbol
 _atom_site_label
 _atom_site_symmetry_multiplicity
 _atom_site_fract_x
 _atom_site_fract_y
 _atom_site_fract_z
 _atom_site_occupancy
  K  K0  1  0.50000000  0.31055800  0.76415400  1
  K  K1  1  0.50000000  0.68944200  0.26415400  1
  K  K2  1  0.00000000  0.81055800  0.76415400  1
  K  K3  1  0.00000000  0.18944200  0.26415400  1
  La  La4  1  0.50000000  0.11261200  0.24443000  1
  La  La5  1  0.50000000  0.88738800  0.74443000  1
  La  La6  1  0.00000000  0.61261200  0.24443000  1
  La  La7  1  0.00000000  0.38738800  0.74443000  1
  P  P8  1  0.80760750  0.05471450  0.05353900  1
  P  P9  1  0.18175400  0.11603600  0.84494200  1
  P  P10  1  0.80760750  0.94528550  0.55353900  1
  P  P11  1  0.18175400  0.88396400  0.34494200  1
  P  P12  1  0.81824600  0.88396400  0.34494200  1
  P  P13  1  0.19239250  0.05471450  0.05353900  1
  P  P14  1  0.81824600  0.11603600  0.84494200  1
  P  P15  1  0.19239250  0.94528550  0.55353900  1
  P  P16  1  0.30760750  0.55471450  0.05353900  1
  P  P17  1  0.68175400  0.61603600  0.84494200  1
  P  P18  1  0.30760750  0.44528550  0.55353900  1
  P  P19  1  0.68175400  0.38396400  0.34494200  1
  P  P20  1  0.31824600  0.38396400  0.34494200  1
  P  P21  1  0.69239250  0.55471450  0.05353900  1
  P  P22  1  0.31824600  0.61603600  0.84494200  1
  P  P23  1  0.69239250  0.44528550  0.55353900  1
  O  O24  1  0.68326850  0.73341250  0.80046100  1
  O  O25  1  0.24088150  0.06374450  0.53113800  1
  O  O26  1  0.30803050  0.03112850  0.80937500  1
  O  O27  1  0.24088150  0.93625550  0.03113800  1
  O  O28  1  0.19025900  0.86285900  0.45778100  1
  O  O29  1  0.28876900  0.87536400  0.62715000  1
  O  O30  1  0.28876900  0.12463600  0.12715000  1
  O  O31  1  0.75911850  0.93625550  0.03113800  1
  O  O32  1  0.71123100  0.12463600  0.12715000  1
  O  O33  1  0.80974100  0.86285900  0.45778100  1
  O  O34  1  0.19025900  0.13714100  0.95778100  1
  O  O35  1  0.30803050  0.96887150  0.30937500  1
  O  O36  1  0.50000000  0.56972900  0.09069200  1
  O  O37  1  0.75911850  0.06374450  0.53113800  1
  O  O38  1  0.71123100  0.87536400  0.62715000  1
  O  O39  1  0.69196950  0.03112850  0.80937500  1
  O  O40  1  0.50000000  0.55623800  0.82725000  1
  O  O41  1  0.31673150  0.26658750  0.30046100  1
  O  O42  1  0.31673150  0.73341250  0.80046100  1
  O  O43  1  0.50000000  0.44376200  0.32725000  1
  O  O44  1  0.50000000  0.43027100  0.59069200  1
  O  O45  1  0.80974100  0.13714100  0.95778100  1
  O  O46  1  0.68326850  0.26658750  0.30046100  1
  O  O47  1  0.69196950  0.96887150  0.30937500  1
  O  O48  1  0.18326850  0.23341250  0.80046100  1
  O  O49  1  0.74088150  0.56374450  0.53113800  1
  O  O50  1  0.80803050  0.53112850  0.80937500  1
  O  O51  1  0.74088150  0.43625550  0.03113800  1
  O  O52  1  0.69025900  0.36285900  0.45778100  1
  O  O53  1  0.78876900  0.37536400  0.62715000  1
  O  O54  1  0.78876900  0.62463600  0.12715000  1
  O  O55  1  0.25911850  0.43625550  0.03113800  1
  O  O56  1  0.21123100  0.62463600  0.12715000  1
  O  O57  1  0.30974100  0.36285900  0.45778100  1
  O  O58  1  0.69025900  0.63714100  0.95778100  1
  O  O59  1  0.80803050  0.46887150  0.30937500  1
  O  O60  1  0.00000000  0.06972900  0.09069200  1
  O  O61  1  0.25911850  0.56374450  0.53113800  1
  O  O62  1  0.21123100  0.37536400  0.62715000  1
  O  O63  1  0.19196950  0.53112850  0.80937500  1
  O  O64  1  0.00000000  0.05623800  0.82725000  1
  O  O65  1  0.81673150  0.76658750  0.30046100  1
  O  O66  1  0.81673150  0.23341250  0.80046100  1
  O  O67  1  0.00000000  0.94376200  0.32725000  1
  O  O68  1  0.00000000  0.93027100  0.59069200  1
  O  O69  1  0.30974100  0.63714100  0.95778100  1
  O  O70  1  0.18326850  0.76658750  0.30046100  1
  O  O71  1  0.19196950  0.46887150  0.30937500  1
