# generated using pymatgen
data_Na4V2O7
_symmetry_space_group_name_H-M   'P 1'
_cell_length_a   15.58966400
_cell_length_b   5.84112800
_cell_length_c   32.97887239
_cell_angle_alpha   90.00000000
_cell_angle_beta   95.05384754
_cell_angle_gamma   90.00000000
_symmetry_Int_Tables_number   1
_chemical_formula_structural   Na4V2O7
_chemical_formula_sum   'Na64 V32 O112'
_cell_volume   2991.42145483
_cell_formula_units_Z   16
loop_
 _symmetry_equiv_pos_site_id
 _symmetry_equiv_pos_as_xyz
  1  'x, y, z'
loop_
 _atom_site_type_symbol
 _atom_site_label
 _atom_site_symmetry_multiplicity
 _atom_site_fract_x
 _atom_site_fract_y
 _atom_site_fract_z
 _atom_site_occupancy
  Na  Na0  1  0.00000000  0.18714000  0.75000000  1
  Na  Na1  1  0.76134200  0.32575600  0.89614600  1
  Na  Na2  1  0.73865800  0.17424400  0.10385400  1
  Na  Na3  1  0.64146950  0.68014250  0.02291100  1
  Na  Na4  1  0.99275450  0.19799750  0.65012100  1
  Na  Na5  1  0.85853050  0.81985750  0.97708900  1
  Na  Na6  1  0.69217300  0.27173500  0.31127600  1
  Na  Na7  1  0.60305000  0.27606300  0.62797900  1
  Na  Na8  1  0.80782700  0.77173500  0.18872400  1
  Na  Na9  1  0.76134200  0.67424400  0.39614600  1
  Na  Na10  1  0.85853050  0.18014250  0.47708900  1
  Na  Na11  1  0.64146950  0.31985750  0.52291100  1
  Na  Na12  1  0.93198200  0.77079300  0.56068600  1
  Na  Na13  1  0.56801800  0.27079300  0.93931400  1
  Na  Na14  1  0.89695000  0.77606300  0.87202100  1
  Na  Na15  1  0.89695000  0.22393700  0.37202100  1
  Na  Na16  1  0.61979500  0.78586200  0.23102800  1
  Na  Na17  1  0.93198200  0.22920700  0.06068600  1
  Na  Na18  1  0.50724550  0.69799750  0.84987900  1
  Na  Na19  1  0.75000000  0.75000000  0.50000000  1
  Na  Na20  1  0.75000000  0.25000000  0.00000000  1
  Na  Na21  1  0.88020500  0.71413800  0.76897200  1
  Na  Na22  1  0.69217300  0.72826500  0.81127600  1
  Na  Na23  1  0.50724550  0.30200250  0.34987900  1
  Na  Na24  1  0.88020500  0.28586200  0.26897200  1
  Na  Na25  1  0.99275450  0.80200250  0.15012100  1
  Na  Na26  1  0.73865800  0.82575600  0.60385400  1
  Na  Na27  1  0.80782700  0.22826500  0.68872400  1
  Na  Na28  1  0.61979500  0.21413800  0.73102800  1
  Na  Na29  1  0.56801800  0.72920700  0.43931400  1
  Na  Na30  1  0.60305000  0.72393700  0.12797900  1
  Na  Na31  1  0.00000000  0.81286000  0.25000000  1
  Na  Na32  1  0.50000000  0.68714000  0.75000000  1
  Na  Na33  1  0.26134200  0.82575600  0.89614600  1
  Na  Na34  1  0.23865800  0.67424400  0.10385400  1
  Na  Na35  1  0.14146950  0.18014250  0.02291100  1
  Na  Na36  1  0.49275450  0.69799750  0.65012100  1
  Na  Na37  1  0.35853050  0.31985750  0.97708900  1
  Na  Na38  1  0.19217300  0.77173500  0.31127600  1
  Na  Na39  1  0.10305000  0.77606300  0.62797900  1
  Na  Na40  1  0.30782700  0.27173500  0.18872400  1
  Na  Na41  1  0.26134200  0.17424400  0.39614600  1
  Na  Na42  1  0.35853050  0.68014250  0.47708900  1
  Na  Na43  1  0.14146950  0.81985750  0.52291100  1
  Na  Na44  1  0.43198200  0.27079300  0.56068600  1
  Na  Na45  1  0.06801800  0.77079300  0.93931400  1
  Na  Na46  1  0.39695000  0.27606300  0.87202100  1
  Na  Na47  1  0.39695000  0.72393700  0.37202100  1
  Na  Na48  1  0.11979500  0.28586200  0.23102800  1
  Na  Na49  1  0.43198200  0.72920700  0.06068600  1
  Na  Na50  1  0.00724550  0.19799750  0.84987900  1
  Na  Na51  1  0.25000000  0.25000000  0.50000000  1
  Na  Na52  1  0.25000000  0.75000000  0.00000000  1
  Na  Na53  1  0.38020500  0.21413800  0.76897200  1
  Na  Na54  1  0.19217300  0.22826500  0.81127600  1
  Na  Na55  1  0.00724550  0.80200250  0.34987900  1
  Na  Na56  1  0.38020500  0.78586200  0.26897200  1
  Na  Na57  1  0.49275450  0.30200250  0.15012100  1
  Na  Na58  1  0.23865800  0.32575600  0.60385400  1
  Na  Na59  1  0.30782700  0.72826500  0.68872400  1
  Na  Na60  1  0.11979500  0.71413800  0.73102800  1
  Na  Na61  1  0.06801800  0.22920700  0.43931400  1
  Na  Na62  1  0.10305000  0.22393700  0.12797900  1
  Na  Na63  1  0.50000000  0.31286000  0.25000000  1
  V  V64  1  0.55090750  0.79568350  0.55395000  1
  V  V65  1  0.90663200  0.70270800  0.67664500  1
  V  V66  1  0.80439950  0.75246050  0.30423200  1
  V  V67  1  0.90663200  0.29729200  0.17664500  1
  V  V68  1  0.82915850  0.27423950  0.57060300  1
  V  V69  1  0.59336800  0.20270800  0.82335500  1
  V  V70  1  0.55090750  0.20431650  0.05395000  1
  V  V71  1  0.59336800  0.79729200  0.32335500  1
  V  V72  1  0.80439950  0.24753950  0.80423200  1
  V  V73  1  0.69560050  0.74753950  0.69576800  1
  V  V74  1  0.67084150  0.22576050  0.42939700  1
  V  V75  1  0.67084150  0.77423950  0.92939700  1
  V  V76  1  0.94909250  0.70431650  0.44605000  1
  V  V77  1  0.82915850  0.72576050  0.07060300  1
  V  V78  1  0.94909250  0.29568350  0.94605000  1
  V  V79  1  0.69560050  0.25246050  0.19576800  1
  V  V80  1  0.05090750  0.29568350  0.55395000  1
  V  V81  1  0.40663200  0.20270800  0.67664500  1
  V  V82  1  0.30439950  0.25246050  0.30423200  1
  V  V83  1  0.40663200  0.79729200  0.17664500  1
  V  V84  1  0.32915850  0.77423950  0.57060300  1
  V  V85  1  0.09336800  0.70270800  0.82335500  1
  V  V86  1  0.05090750  0.70431650  0.05395000  1
  V  V87  1  0.09336800  0.29729200  0.32335500  1
  V  V88  1  0.30439950  0.74753950  0.80423200  1
  V  V89  1  0.19560050  0.24753950  0.69576800  1
  V  V90  1  0.17084150  0.72576050  0.42939700  1
  V  V91  1  0.17084150  0.27423950  0.92939700  1
  V  V92  1  0.44909250  0.20431650  0.44605000  1
  V  V93  1  0.32915850  0.22576050  0.07060300  1
  V  V94  1  0.44909250  0.79568350  0.94605000  1
  V  V95  1  0.19560050  0.75246050  0.19576800  1
  O  O96  1  0.70956400  0.95704800  0.43742600  1
  O  O97  1  0.56592450  0.74467650  0.95077500  1
  O  O98  1  0.59178600  0.62909500  0.59373000  1
  O  O99  1  0.88427750  0.04536050  0.80970900  1
  O  O100  1  0.54431650  0.02580350  0.29797800  1
  O  O101  1  0.61572250  0.54536050  0.69029100  1
  O  O102  1  0.61572250  0.45463950  0.19029100  1
  O  O103  1  0.78084800  0.68536000  0.25446100  1
  O  O104  1  0.66783950  0.99843150  0.67025700  1
  O  O105  1  0.71030150  0.86136650  0.32948400  1
  O  O106  1  0.83216050  0.49843150  0.82974300  1
  O  O107  1  0.92055500  0.06485800  0.20831300  1
  O  O108  1  0.90821400  0.87090500  0.40627000  1
  O  O109  1  0.54882450  0.25378550  0.86828400  1
  O  O110  1  0.79043600  0.54295200  0.56257400  1
  O  O111  1  0.93407550  0.75532350  0.04922500  1
  O  O112  1  0.71915200  0.81464000  0.74553900  1
  O  O113  1  0.90821400  0.12909500  0.90627000  1
  O  O114  1  0.90543050  0.20681950  0.98945600  1
  O  O115  1  0.79043600  0.45704800  0.06257400  1
  O  O116  1  0.70956400  0.04295200  0.93742600  1
  O  O117  1  0.78084800  0.31464000  0.75446100  1
  O  O118  1  0.88427750  0.95463950  0.30970900  1
  O  O119  1  0.66509250  0.69346750  0.87954700  1
  O  O120  1  0.56592450  0.25532350  0.45077500  1
  O  O121  1  0.71915200  0.18536000  0.24553900  1
  O  O122  1  0.95117550  0.75378550  0.63171600  1
  O  O123  1  0.92055500  0.93514200  0.70831300  1
  O  O124  1  0.83490750  0.80653250  0.12045300  1
  O  O125  1  0.66783950  0.00156850  0.17025700  1
  O  O126  1  0.54431650  0.97419650  0.79797800  1
  O  O127  1  0.95117550  0.24621450  0.13171600  1
  O  O128  1  0.83216050  0.50156850  0.32974300  1
  O  O129  1  0.95568350  0.52580350  0.20202200  1
  O  O130  1  0.71030150  0.13863350  0.82948400  1
  O  O131  1  0.83490750  0.19346750  0.62045300  1
  O  O132  1  0.59456950  0.29318050  0.01054400  1
  O  O133  1  0.73580700  0.42172600  0.45760600  1
  O  O134  1  0.95568350  0.47419650  0.70202200  1
  O  O135  1  0.93407550  0.24467650  0.54922500  1
  O  O136  1  0.59456950  0.70681950  0.51054400  1
  O  O137  1  0.57944500  0.56485800  0.29168700  1
  O  O138  1  0.93085050  0.41706550  0.43652000  1
  O  O139  1  0.56914950  0.08293450  0.56348000  1
  O  O140  1  0.76419300  0.92172600  0.04239400  1
  O  O141  1  0.57944500  0.43514200  0.79168700  1
  O  O142  1  0.76419300  0.07827400  0.54239400  1
  O  O143  1  0.66509250  0.30653250  0.37954700  1
  O  O144  1  0.78969850  0.36136650  0.17051600  1
  O  O145  1  0.90543050  0.79318050  0.48945600  1
  O  O146  1  0.73580700  0.57827400  0.95760600  1
  O  O147  1  0.78969850  0.63863350  0.67051600  1
  O  O148  1  0.59178600  0.37090500  0.09373000  1
  O  O149  1  0.54882450  0.74621450  0.36828400  1
  O  O150  1  0.93085050  0.58293450  0.93652000  1
  O  O151  1  0.56914950  0.91706550  0.06348000  1
  O  O152  1  0.20956400  0.45704800  0.43742600  1
  O  O153  1  0.06592450  0.24467650  0.95077500  1
  O  O154  1  0.09178600  0.12909500  0.59373000  1
  O  O155  1  0.38427750  0.54536050  0.80970900  1
  O  O156  1  0.04431650  0.52580350  0.29797800  1
  O  O157  1  0.11572250  0.04536050  0.69029100  1
  O  O158  1  0.11572250  0.95463950  0.19029100  1
  O  O159  1  0.28084800  0.18536000  0.25446100  1
  O  O160  1  0.16783950  0.49843150  0.67025700  1
  O  O161  1  0.21030150  0.36136650  0.32948400  1
  O  O162  1  0.33216050  0.99843150  0.82974300  1
  O  O163  1  0.42055500  0.56485800  0.20831300  1
  O  O164  1  0.40821400  0.37090500  0.40627000  1
  O  O165  1  0.04882450  0.75378550  0.86828400  1
  O  O166  1  0.29043600  0.04295200  0.56257400  1
  O  O167  1  0.43407550  0.25532350  0.04922500  1
  O  O168  1  0.21915200  0.31464000  0.74553900  1
  O  O169  1  0.40821400  0.62909500  0.90627000  1
  O  O170  1  0.40543050  0.70681950  0.98945600  1
  O  O171  1  0.29043600  0.95704800  0.06257400  1
  O  O172  1  0.20956400  0.54295200  0.93742600  1
  O  O173  1  0.28084800  0.81464000  0.75446100  1
  O  O174  1  0.38427750  0.45463950  0.30970900  1
  O  O175  1  0.16509250  0.19346750  0.87954700  1
  O  O176  1  0.06592450  0.75532350  0.45077500  1
  O  O177  1  0.21915200  0.68536000  0.24553900  1
  O  O178  1  0.45117550  0.25378550  0.63171600  1
  O  O179  1  0.42055500  0.43514200  0.70831300  1
  O  O180  1  0.33490750  0.30653250  0.12045300  1
  O  O181  1  0.16783950  0.50156850  0.17025700  1
  O  O182  1  0.04431650  0.47419650  0.79797800  1
  O  O183  1  0.45117550  0.74621450  0.13171600  1
  O  O184  1  0.33216050  0.00156850  0.32974300  1
  O  O185  1  0.45568350  0.02580350  0.20202200  1
  O  O186  1  0.21030150  0.63863350  0.82948400  1
  O  O187  1  0.33490750  0.69346750  0.62045300  1
  O  O188  1  0.09456950  0.79318050  0.01054400  1
  O  O189  1  0.23580700  0.92172600  0.45760600  1
  O  O190  1  0.45568350  0.97419650  0.70202200  1
  O  O191  1  0.43407550  0.74467650  0.54922500  1
  O  O192  1  0.09456950  0.20681950  0.51054400  1
  O  O193  1  0.07944500  0.06485800  0.29168700  1
  O  O194  1  0.43085050  0.91706550  0.43652000  1
  O  O195  1  0.06914950  0.58293450  0.56348000  1
  O  O196  1  0.26419300  0.42172600  0.04239400  1
  O  O197  1  0.07944500  0.93514200  0.79168700  1
  O  O198  1  0.26419300  0.57827400  0.54239400  1
  O  O199  1  0.16509250  0.80653250  0.37954700  1
  O  O200  1  0.28969850  0.86136650  0.17051600  1
  O  O201  1  0.40543050  0.29318050  0.48945600  1
  O  O202  1  0.23580700  0.07827400  0.95760600  1
  O  O203  1  0.28969850  0.13863350  0.67051600  1
  O  O204  1  0.09178600  0.87090500  0.09373000  1
  O  O205  1  0.04882450  0.24621450  0.36828400  1
  O  O206  1  0.43085050  0.08293450  0.93652000  1
  O  O207  1  0.06914950  0.41706550  0.06348000  1
