# generated using pymatgen
data_H3BrO
_symmetry_space_group_name_H-M   'P 1'
_cell_length_a   5.08916206
_cell_length_b   5.08916206
_cell_length_c   9.41567445
_cell_angle_alpha   90.00000000
_cell_angle_beta   90.00000000
_cell_angle_gamma   120.00000000
_symmetry_Int_Tables_number   1
_chemical_formula_structural   H3BrO
_chemical_formula_sum   'H9 Br3 O3'
_cell_volume   211.19062103
_cell_formula_units_Z   3
loop_
 _symmetry_equiv_pos_site_id
 _symmetry_equiv_pos_as_xyz
  1  'x, y, z'
loop_
 _atom_site_type_symbol
 _atom_site_label
 _atom_site_symmetry_multiplicity
 _atom_site_fract_x
 _atom_site_fract_y
 _atom_site_fract_z
 _atom_site_occupancy
  H  H0  1  0.22295767  0.44591533  0.07922233  1
  H  H1  1  0.22295767  0.77704233  0.07922233  1
  H  H2  1  0.55408467  0.77704233  0.07922233  1
  H  H3  1  0.88962433  0.77924867  0.41255567  1
  H  H4  1  0.88962433  0.11037567  0.41255567  1
  H  H5  1  0.22075133  0.11037567  0.41255567  1
  H  H6  1  0.55629100  0.11258200  0.74588900  1
  H  H7  1  0.55629100  0.44370900  0.74588900  1
  H  H8  1  0.88741800  0.44370900  0.74588900  1
  Br  Br9  1  0.33333333  0.66666667  0.67317767  1
  Br  Br10  1  0.00000000  0.00000000  0.00651100  1
  Br  Br11  1  0.66666667  0.33333333  0.33984433  1
  O  O12  1  0.33333333  0.66666667  0.11333967  1
  O  O13  1  0.00000000  0.00000000  0.44667300  1
  O  O14  1  0.66666667  0.33333333  0.78000633  1
