# generated using pymatgen
data_Ge6Bi7O22
_symmetry_space_group_name_H-M   'P 1'
_cell_length_a   9.13807200
_cell_length_b   9.24570445
_cell_length_c   9.26325696
_cell_angle_alpha   107.84723580
_cell_angle_beta   110.32254898
_cell_angle_gamma   109.36182821
_symmetry_Int_Tables_number   1
_chemical_formula_structural   Ge6Bi7O22
_chemical_formula_sum   'Ge6 Bi7 O22'
_cell_volume   608.72438435
_cell_formula_units_Z   1
loop_
 _symmetry_equiv_pos_site_id
 _symmetry_equiv_pos_as_xyz
  1  'x, y, z'
loop_
 _atom_site_type_symbol
 _atom_site_label
 _atom_site_symmetry_multiplicity
 _atom_site_fract_x
 _atom_site_fract_y
 _atom_site_fract_z
 _atom_site_occupancy
  Ge  Ge0  1  0.92016700  0.23853500  0.12305300  1
  Ge  Ge1  1  0.26386000  0.88035100  0.62666900  1
  Ge  Ge2  1  0.62083200  0.73903500  0.36853200  1
  Ge  Ge3  1  0.12422100  0.37250700  0.75229800  1
  Ge  Ge4  1  0.75084200  0.62267600  0.87970700  1
  Ge  Ge5  1  0.37354400  0.13738400  0.24384100  1
  Bi  Bi6  1  0.83456500  0.50891600  0.51870700  1
  Bi  Bi7  1  0.99509300  0.99229600  0.80574800  1
  Bi  Bi8  1  0.99903600  0.99336900  0.33190300  1
  Bi  Bi9  1  0.17132200  0.68200700  0.16952600  1
  Bi  Bi10  1  0.65956200  0.18284600  0.68128300  1
  Bi  Bi11  1  0.33418200  0.50738300  0.51593000  1
  Bi  Bi12  1  0.48876300  0.81521600  0.99271000  1
  O  O13  1  0.06267000  0.45083100  0.28307800  1
  O  O14  1  0.28776400  0.70465400  0.65583600  1
  O  O15  1  0.64659300  0.55655900  0.34735800  1
  O  O16  1  0.06504400  0.83694200  0.64191700  1
  O  O17  1  0.87383400  0.19038900  0.91218600  1
  O  O18  1  0.19324800  0.86509700  0.41236700  1
  O  O19  1  0.46514200  0.06910400  0.77824900  1
  O  O20  1  0.93944700  0.78987700  0.08633200  1
  O  O21  1  0.40760200  0.68904200  0.35149600  1
  O  O22  1  0.76932100  0.93464100  0.57561500  1
  O  O23  1  0.66696400  0.80744000  0.22075500  1
  O  O24  1  0.71807300  0.42437200  0.87659100  1
  O  O25  1  0.15773500  0.21339800  0.80070300  1
  O  O26  1  0.20196200  0.16506200  0.28580300  1
  O  O27  1  0.81956500  0.07108200  0.15790300  1
  O  O28  1  0.35264000  0.92238000  0.18175000  1
  O  O29  1  0.14865300  0.33534500  0.56244400  1
  O  O30  1  0.91449600  0.36391200  0.69317100  1
  O  O31  1  0.27226400  0.58207300  0.94468200  1
  O  O32  1  0.55353100  0.64181700  0.82475200  1
  O  O33  1  0.57800600  0.27976100  0.45064300  1
  O  O34  1  0.81255600  0.66520300  0.72746300  1
