# generated using pymatgen
data_ScNb6Cl13O3
_symmetry_space_group_name_H-M   'P 1'
_cell_length_a   9.23212000
_cell_length_b   9.23212000
_cell_length_c   53.20702400
_cell_angle_alpha   90.00000000
_cell_angle_beta   90.00000000
_cell_angle_gamma   90.00000000
_symmetry_Int_Tables_number   1
_chemical_formula_structural   ScNb6Cl13O3
_chemical_formula_sum   'Sc8 Nb48 Cl104 O24'
_cell_volume   4534.94318159
_cell_formula_units_Z   8
loop_
 _symmetry_equiv_pos_site_id
 _symmetry_equiv_pos_as_xyz
  1  'x, y, z'
loop_
 _atom_site_type_symbol
 _atom_site_label
 _atom_site_symmetry_multiplicity
 _atom_site_fract_x
 _atom_site_fract_y
 _atom_site_fract_z
 _atom_site_occupancy
  Sc  Sc0  1  0.00000000  0.00000000  0.09415600  1
  Sc  Sc1  1  0.50000000  0.50000000  0.40584400  1
  Sc  Sc2  1  0.00000000  0.50000000  0.34415600  1
  Sc  Sc3  1  0.00000000  0.50000000  0.15584400  1
  Sc  Sc4  1  0.50000000  0.50000000  0.59415600  1
  Sc  Sc5  1  0.00000000  0.00000000  0.90584400  1
  Sc  Sc6  1  0.50000000  0.00000000  0.84415600  1
  Sc  Sc7  1  0.50000000  0.00000000  0.65584400  1
  Nb  Nb8  1  0.91854600  0.35802200  0.46604700  1
  Nb  Nb9  1  0.59207450  0.37313950  0.34074050  1
  Nb  Nb10  1  0.12686050  0.59207450  0.09074050  1
  Nb  Nb11  1  0.69242850  0.61644050  0.31337850  1
  Nb  Nb12  1  0.90792550  0.37313950  0.40925950  1
  Nb  Nb13  1  0.80757150  0.61644050  0.43662150  1
  Nb  Nb14  1  0.85802200  0.08145400  0.21604700  1
  Nb  Nb15  1  0.88355950  0.69242850  0.06337850  1
  Nb  Nb16  1  0.14197800  0.58145400  0.03395300  1
  Nb  Nb17  1  0.08145400  0.64197800  0.46604700  1
  Nb  Nb18  1  0.12686050  0.90792550  0.15925950  1
  Nb  Nb19  1  0.41854600  0.64197800  0.28395300  1
  Nb  Nb20  1  0.87313950  0.09207450  0.15925950  1
  Nb  Nb21  1  0.19242850  0.38355950  0.43662150  1
  Nb  Nb22  1  0.11644050  0.30757150  0.06337850  1
  Nb  Nb23  1  0.58145400  0.35802200  0.28395300  1
  Nb  Nb24  1  0.40792550  0.62686050  0.34074050  1
  Nb  Nb25  1  0.85802200  0.41854600  0.03395300  1
  Nb  Nb26  1  0.30757150  0.38355950  0.31337850  1
  Nb  Nb27  1  0.09207450  0.62686050  0.40925950  1
  Nb  Nb28  1  0.88355950  0.80757150  0.18662150  1
  Nb  Nb29  1  0.14197800  0.91854600  0.21604700  1
  Nb  Nb30  1  0.87313950  0.40792550  0.09074050  1
  Nb  Nb31  1  0.11644050  0.19242850  0.18662150  1
  Nb  Nb32  1  0.41854600  0.85802200  0.96604700  1
  Nb  Nb33  1  0.09207450  0.87313950  0.84074050  1
  Nb  Nb34  1  0.62686050  0.09207450  0.59074050  1
  Nb  Nb35  1  0.19242850  0.11644050  0.81337850  1
  Nb  Nb36  1  0.40792550  0.87313950  0.90925950  1
  Nb  Nb37  1  0.30757150  0.11644050  0.93662150  1
  Nb  Nb38  1  0.35802200  0.58145400  0.71604700  1
  Nb  Nb39  1  0.38355950  0.19242850  0.56337850  1
  Nb  Nb40  1  0.64197800  0.08145400  0.53395300  1
  Nb  Nb41  1  0.58145400  0.14197800  0.96604700  1
  Nb  Nb42  1  0.62686050  0.40792550  0.65925950  1
  Nb  Nb43  1  0.91854600  0.14197800  0.78395300  1
  Nb  Nb44  1  0.37313950  0.59207450  0.65925950  1
  Nb  Nb45  1  0.69242850  0.88355950  0.93662150  1
  Nb  Nb46  1  0.61644050  0.80757150  0.56337850  1
  Nb  Nb47  1  0.08145400  0.85802200  0.78395300  1
  Nb  Nb48  1  0.90792550  0.12686050  0.84074050  1
  Nb  Nb49  1  0.35802200  0.91854600  0.53395300  1
  Nb  Nb50  1  0.80757150  0.88355950  0.81337850  1
  Nb  Nb51  1  0.59207450  0.12686050  0.90925950  1
  Nb  Nb52  1  0.38355950  0.30757150  0.68662150  1
  Nb  Nb53  1  0.64197800  0.41854600  0.71604700  1
  Nb  Nb54  1  0.37313950  0.90792550  0.59074050  1
  Nb  Nb55  1  0.61644050  0.69242850  0.68662150  1
  Cl  Cl56  1  0.30149100  0.36606400  0.03138300  1
  Cl  Cl57  1  0.31666900  0.52114900  0.47046400  1
  Cl  Cl58  1  0.44992100  0.26864200  0.42870300  1
  Cl  Cl59  1  0.70535600  0.61967800  0.09624000  1
  Cl  Cl60  1  0.69131600  0.18133800  0.31258700  1
  Cl  Cl61  1  0.50000000  0.00000000  0.00259100  1
  Cl  Cl62  1  0.80868400  0.18133800  0.43741300  1
  Cl  Cl63  1  0.02114900  0.81666900  0.02953600  1
  Cl  Cl64  1  0.55007900  0.73135800  0.42870300  1
  Cl  Cl65  1  0.13393600  0.19850900  0.46861700  1
  Cl  Cl66  1  0.19131600  0.81866200  0.43741300  1
  Cl  Cl67  1  0.32764700  0.67235300  0.00000000  1
  Cl  Cl68  1  0.68133800  0.19131600  0.18741300  1
  Cl  Cl69  1  0.63393600  0.80149100  0.28138300  1
  Cl  Cl70  1  0.76864200  0.55007900  0.17870300  1
  Cl  Cl71  1  0.75000000  0.23099000  0.37500000  1
  Cl  Cl72  1  0.31866200  0.80868400  0.18741300  1
  Cl  Cl73  1  0.69850900  0.63393600  0.03138300  1
  Cl  Cl74  1  0.23135800  0.44992100  0.17870300  1
  Cl  Cl75  1  0.18333100  0.52114900  0.27953600  1
  Cl  Cl76  1  0.50000000  0.00000000  0.49740900  1
  Cl  Cl77  1  0.68333100  0.47885100  0.47046400  1
  Cl  Cl78  1  0.30868400  0.81866200  0.31258700  1
  Cl  Cl79  1  0.29464400  0.38032200  0.09624000  1
  Cl  Cl80  1  0.38032200  0.20535600  0.34624000  1
  Cl  Cl81  1  0.29464400  0.11967800  0.15376000  1
  Cl  Cl82  1  0.88032200  0.79464400  0.40376000  1
  Cl  Cl83  1  0.31866200  0.69131600  0.06258700  1
  Cl  Cl84  1  0.94992100  0.73135800  0.32129700  1
  Cl  Cl85  1  0.30149100  0.13393600  0.21861700  1
  Cl  Cl86  1  0.00000000  0.00000000  0.25259100  1
  Cl  Cl87  1  0.67235300  0.17235300  0.25000000  1
  Cl  Cl88  1  0.26901000  0.75000000  0.12500000  1
  Cl  Cl89  1  0.97885100  0.18333100  0.02953600  1
  Cl  Cl90  1  0.69850900  0.86606400  0.21861700  1
  Cl  Cl91  1  0.97885100  0.31666900  0.22046400  1
  Cl  Cl92  1  0.11967800  0.20535600  0.40376000  1
  Cl  Cl93  1  0.68133800  0.30868400  0.06258700  1
  Cl  Cl94  1  0.61967800  0.79464400  0.34624000  1
  Cl  Cl95  1  0.25000000  0.76901000  0.37500000  1
  Cl  Cl96  1  0.76864200  0.94992100  0.07129700  1
  Cl  Cl97  1  0.81666900  0.47885100  0.27953600  1
  Cl  Cl98  1  0.02114900  0.68333100  0.22046400  1
  Cl  Cl99  1  0.23135800  0.05007900  0.07129700  1
  Cl  Cl100  1  0.32764700  0.82764700  0.25000000  1
  Cl  Cl101  1  0.70535600  0.88032200  0.15376000  1
  Cl  Cl102  1  0.05007900  0.26864200  0.32129700  1
  Cl  Cl103  1  0.67235300  0.32764700  0.00000000  1
  Cl  Cl104  1  0.86606400  0.80149100  0.46861700  1
  Cl  Cl105  1  0.73099000  0.25000000  0.12500000  1
  Cl  Cl106  1  0.36606400  0.19850900  0.28138300  1
  Cl  Cl107  1  0.50000000  0.50000000  0.24740900  1
  Cl  Cl108  1  0.80149100  0.86606400  0.53138300  1
  Cl  Cl109  1  0.81666900  0.02114900  0.97046400  1
  Cl  Cl110  1  0.94992100  0.76864200  0.92870300  1
  Cl  Cl111  1  0.20535600  0.11967800  0.59624000  1
  Cl  Cl112  1  0.19131600  0.68133800  0.81258700  1
  Cl  Cl113  1  0.00000000  0.50000000  0.50259100  1
  Cl  Cl114  1  0.30868400  0.68133800  0.93741300  1
  Cl  Cl115  1  0.52114900  0.31666900  0.52953600  1
  Cl  Cl116  1  0.05007900  0.23135800  0.92870300  1
  Cl  Cl117  1  0.63393600  0.69850900  0.96861700  1
  Cl  Cl118  1  0.69131600  0.31866200  0.93741300  1
  Cl  Cl119  1  0.82764700  0.17235300  0.50000000  1
  Cl  Cl120  1  0.18133800  0.69131600  0.68741300  1
  Cl  Cl121  1  0.13393600  0.30149100  0.78138300  1
  Cl  Cl122  1  0.26864200  0.05007900  0.67870300  1
  Cl  Cl123  1  0.25000000  0.73099000  0.87500000  1
  Cl  Cl124  1  0.81866200  0.30868400  0.68741300  1
  Cl  Cl125  1  0.19850900  0.13393600  0.53138300  1
  Cl  Cl126  1  0.73135800  0.94992100  0.67870300  1
  Cl  Cl127  1  0.68333100  0.02114900  0.77953600  1
  Cl  Cl128  1  0.00000000  0.50000000  0.99740900  1
  Cl  Cl129  1  0.18333100  0.97885100  0.97046400  1
  Cl  Cl130  1  0.80868400  0.31866200  0.81258700  1
  Cl  Cl131  1  0.79464400  0.88032200  0.59624000  1
  Cl  Cl132  1  0.88032200  0.70535600  0.84624000  1
  Cl  Cl133  1  0.79464400  0.61967800  0.65376000  1
  Cl  Cl134  1  0.38032200  0.29464400  0.90376000  1
  Cl  Cl135  1  0.81866200  0.19131600  0.56258700  1
  Cl  Cl136  1  0.44992100  0.23135800  0.82129700  1
  Cl  Cl137  1  0.80149100  0.63393600  0.71861700  1
  Cl  Cl138  1  0.50000000  0.50000000  0.75259100  1
  Cl  Cl139  1  0.17235300  0.67235300  0.75000000  1
  Cl  Cl140  1  0.76901000  0.25000000  0.62500000  1
  Cl  Cl141  1  0.47885100  0.68333100  0.52953600  1
  Cl  Cl142  1  0.19850900  0.36606400  0.71861700  1
  Cl  Cl143  1  0.47885100  0.81666900  0.72046400  1
  Cl  Cl144  1  0.61967800  0.70535600  0.90376000  1
  Cl  Cl145  1  0.18133800  0.80868400  0.56258700  1
  Cl  Cl146  1  0.11967800  0.29464400  0.84624000  1
  Cl  Cl147  1  0.75000000  0.26901000  0.87500000  1
  Cl  Cl148  1  0.26864200  0.44992100  0.57129700  1
  Cl  Cl149  1  0.31666900  0.97885100  0.77953600  1
  Cl  Cl150  1  0.52114900  0.18333100  0.72046400  1
  Cl  Cl151  1  0.73135800  0.55007900  0.57129700  1
  Cl  Cl152  1  0.82764700  0.32764700  0.75000000  1
  Cl  Cl153  1  0.20535600  0.38032200  0.65376000  1
  Cl  Cl154  1  0.55007900  0.76864200  0.82129700  1
  Cl  Cl155  1  0.17235300  0.82764700  0.50000000  1
  Cl  Cl156  1  0.36606400  0.30149100  0.96861700  1
  Cl  Cl157  1  0.23099000  0.75000000  0.62500000  1
  Cl  Cl158  1  0.86606400  0.69850900  0.78138300  1
  Cl  Cl159  1  0.00000000  0.00000000  0.74740900  1
  O  O160  1  0.27883400  0.51690600  0.41078400  1
  O  O161  1  0.77883400  0.48309400  0.33921600  1
  O  O162  1  0.01690600  0.77883400  0.08921600  1
  O  O163  1  0.00000000  0.00000000  0.13178900  1
  O  O164  1  0.98309400  0.22116600  0.08921600  1
  O  O165  1  0.50000000  0.50000000  0.36821100  1
  O  O166  1  0.00000000  0.50000000  0.11821100  1
  O  O167  1  0.98309400  0.27883400  0.16078400  1
  O  O168  1  0.22116600  0.51690600  0.33921600  1
  O  O169  1  0.00000000  0.50000000  0.38178900  1
  O  O170  1  0.01690600  0.72116600  0.16078400  1
  O  O171  1  0.72116600  0.48309400  0.41078400  1
  O  O172  1  0.77883400  0.01690600  0.91078400  1
  O  O173  1  0.27883400  0.98309400  0.83921600  1
  O  O174  1  0.51690600  0.27883400  0.58921600  1
  O  O175  1  0.50000000  0.50000000  0.63178900  1
  O  O176  1  0.48309400  0.72116600  0.58921600  1
  O  O177  1  0.00000000  0.00000000  0.86821100  1
  O  O178  1  0.50000000  0.00000000  0.61821100  1
  O  O179  1  0.48309400  0.77883400  0.66078400  1
  O  O180  1  0.72116600  0.01690600  0.83921600  1
  O  O181  1  0.50000000  0.00000000  0.88178900  1
  O  O182  1  0.51690600  0.22116600  0.66078400  1
  O  O183  1  0.22116600  0.98309400  0.91078400  1
