# generated using pymatgen
data_PbN6
_symmetry_space_group_name_H-M   'P 1'
_cell_length_a   6.69631700
_cell_length_b   11.81823100
_cell_length_c   16.38686700
_cell_angle_alpha   90.00000000
_cell_angle_beta   90.00000000
_cell_angle_gamma   90.00000000
_symmetry_Int_Tables_number   1
_chemical_formula_structural   PbN6
_chemical_formula_sum   'Pb12 N72'
_cell_volume   1296.83405943
_cell_formula_units_Z   12
loop_
 _symmetry_equiv_pos_site_id
 _symmetry_equiv_pos_as_xyz
  1  'x, y, z'
loop_
 _atom_site_type_symbol
 _atom_site_label
 _atom_site_symmetry_multiplicity
 _atom_site_fract_x
 _atom_site_fract_y
 _atom_site_fract_z
 _atom_site_occupancy
  Pb  Pb0  1  0.14984600  0.62377900  0.90642700  1
  Pb  Pb1  1  0.16393900  0.62703600  0.58363500  1
  Pb  Pb2  1  0.66393900  0.87296400  0.58363500  1
  Pb  Pb3  1  0.94077800  0.13126300  0.74155800  1
  Pb  Pb4  1  0.83606100  0.37296400  0.08363500  1
  Pb  Pb5  1  0.64984600  0.87622100  0.90642700  1
  Pb  Pb6  1  0.33606100  0.12703600  0.08363500  1
  Pb  Pb7  1  0.44077800  0.36873700  0.74155800  1
  Pb  Pb8  1  0.35015400  0.12377900  0.40642700  1
  Pb  Pb9  1  0.55922200  0.63126300  0.24155800  1
  Pb  Pb10  1  0.85015400  0.37622100  0.40642700  1
  Pb  Pb11  1  0.05922200  0.86873700  0.24155800  1
  N  N12  1  0.65125800  0.22782100  0.32186900  1
  N  N13  1  0.21033000  0.50271000  0.44380400  1
  N  N14  1  0.63450400  0.21981200  0.85415900  1
  N  N15  1  0.99441100  0.99727900  0.86406200  1
  N  N16  1  0.11147900  0.26327800  0.56209900  1
  N  N17  1  0.17273000  0.58825500  0.24160700  1
  N  N18  1  0.71033000  0.99729000  0.44380400  1
  N  N19  1  0.58177400  0.26357500  0.49275200  1
  N  N20  1  0.17101200  0.99469800  0.58294100  1
  N  N21  1  0.82457200  0.50219400  0.54701300  1
  N  N22  1  0.82898800  0.00530200  0.08294100  1
  N  N23  1  0.10552400  0.26344200  0.92396400  1
  N  N24  1  0.89447600  0.73655800  0.42396400  1
  N  N25  1  0.15528000  0.27483100  0.24941300  1
  N  N26  1  0.82727000  0.41174500  0.74160700  1
  N  N27  1  0.86356500  0.71058500  0.13053700  1
  N  N28  1  0.28967000  0.00271000  0.94380400  1
  N  N29  1  0.17542800  0.49780600  0.04701300  1
  N  N30  1  0.08177400  0.23642500  0.49275200  1
  N  N31  1  0.65693900  0.21997400  0.17745500  1
  N  N32  1  0.67273000  0.91174500  0.24160700  1
  N  N33  1  0.15125800  0.27217900  0.32186900  1
  N  N34  1  0.48198800  0.49179800  0.11923100  1
  N  N35  1  0.34874200  0.77217900  0.82186900  1
  N  N36  1  0.84306100  0.71997400  0.67745500  1
  N  N37  1  0.13450400  0.28018800  0.85415900  1
  N  N38  1  0.78967000  0.49729000  0.94380400  1
  N  N39  1  0.32457200  0.99780600  0.54701300  1
  N  N40  1  0.00558900  0.00272100  0.36406200  1
  N  N41  1  0.65528000  0.22516900  0.24941300  1
  N  N42  1  0.67101200  0.50530200  0.58294100  1
  N  N43  1  0.36356500  0.78941500  0.13053700  1
  N  N44  1  0.86911100  0.48519800  0.24322600  1
  N  N45  1  0.85774700  0.99949400  0.40425400  1
  N  N46  1  0.36911100  0.01480200  0.24322600  1
  N  N47  1  0.13088900  0.51480200  0.74322600  1
  N  N48  1  0.47554700  0.03634000  0.74234300  1
  N  N49  1  0.02445300  0.53634000  0.24234300  1
  N  N50  1  0.50558900  0.49727900  0.36406200  1
  N  N51  1  0.86549600  0.71981200  0.35415900  1
  N  N52  1  0.97554700  0.46366000  0.74234300  1
  N  N53  1  0.61147900  0.23672200  0.56209900  1
  N  N54  1  0.13643500  0.28941500  0.63053700  1
  N  N55  1  0.64225300  0.49949400  0.90425400  1
  N  N56  1  0.32898800  0.49469800  0.08294100  1
  N  N57  1  0.84472000  0.72516900  0.74941300  1
  N  N58  1  0.63643500  0.21058500  0.63053700  1
  N  N59  1  0.07486600  0.24532500  0.99464900  1
  N  N60  1  0.92513400  0.75467500  0.49464900  1
  N  N61  1  0.34306100  0.78002600  0.67745500  1
  N  N62  1  0.51801200  0.50820200  0.61923100  1
  N  N63  1  0.42513400  0.74532500  0.49464900  1
  N  N64  1  0.84874200  0.72782100  0.82186900  1
  N  N65  1  0.39447600  0.76344200  0.42396400  1
  N  N66  1  0.14225300  0.00050600  0.90425400  1
  N  N67  1  0.35774700  0.50050600  0.40425400  1
  N  N68  1  0.98198800  0.00820200  0.11923100  1
  N  N69  1  0.41822600  0.73642500  0.99275200  1
  N  N70  1  0.63088900  0.98519800  0.74322600  1
  N  N71  1  0.52445300  0.96366000  0.24234300  1
  N  N72  1  0.57486600  0.25467500  0.99464900  1
  N  N73  1  0.91822600  0.76357500  0.99275200  1
  N  N74  1  0.36549600  0.78018800  0.35415900  1
  N  N75  1  0.32727000  0.08825500  0.74160700  1
  N  N76  1  0.67542800  0.00219400  0.04701300  1
  N  N77  1  0.49441100  0.50272100  0.86406200  1
  N  N78  1  0.38852100  0.76327800  0.06209900  1
  N  N79  1  0.88852100  0.73672200  0.06209900  1
  N  N80  1  0.34472000  0.77483100  0.74941300  1
  N  N81  1  0.60552400  0.23655800  0.92396400  1
  N  N82  1  0.15693900  0.28002600  0.17745500  1
  N  N83  1  0.01801200  0.99179800  0.61923100  1
