# generated using pymatgen
data_Na3Ca7Ti7Nb3O30
_symmetry_space_group_name_H-M   'P 1'
_cell_length_a   7.86796500
_cell_length_b   3.93422200
_cell_length_c   19.63077850
_cell_angle_alpha   90.00000000
_cell_angle_beta   90.02238912
_cell_angle_gamma   90.00000000
_symmetry_Int_Tables_number   1
_chemical_formula_structural   Na3Ca7Ti7Nb3O30
_chemical_formula_sum   'Na3 Ca7 Ti7 Nb3 O30'
_cell_volume   607.65737270
_cell_formula_units_Z   1
loop_
 _symmetry_equiv_pos_site_id
 _symmetry_equiv_pos_as_xyz
  1  'x, y, z'
loop_
 _atom_site_type_symbol
 _atom_site_label
 _atom_site_symmetry_multiplicity
 _atom_site_fract_x
 _atom_site_fract_y
 _atom_site_fract_z
 _atom_site_occupancy
  Na  Na0  1  0.00301500  0.00000000  0.00739900  1
  Na  Na1  1  0.00901900  0.00000000  0.79608400  1
  Na  Na2  1  0.49141300  0.00000000  0.79695300  1
  Ca  Ca3  1  0.00346700  0.00000000  0.19802700  1
  Ca  Ca4  1  0.49343800  0.00000000  0.01422900  1
  Ca  Ca5  1  0.00210300  0.00000000  0.39794400  1
  Ca  Ca6  1  0.49787400  0.00000000  0.39797900  1
  Ca  Ca7  1  0.01555000  0.00000000  0.59610300  1
  Ca  Ca8  1  0.49671600  0.00000000  0.19769800  1
  Ca  Ca9  1  0.48444400  0.00000000  0.59608700  1
  Ti  Ti10  1  0.24669400  0.50000000  0.10094800  1
  Ti  Ti11  1  0.25029800  0.50000000  0.29938300  1
  Ti  Ti12  1  0.75172200  0.50000000  0.10390200  1
  Ti  Ti13  1  0.24997200  0.50000000  0.49809900  1
  Ti  Ti14  1  0.74968200  0.50000000  0.30046000  1
  Ti  Ti15  1  0.25016400  0.50000000  0.69726300  1
  Ti  Ti16  1  0.74999900  0.50000000  0.49780800  1
  Nb  Nb17  1  0.25055800  0.50000000  0.89804200  1
  Nb  Nb18  1  0.74974600  0.50000000  0.69891100  1
  Nb  Nb19  1  0.74996500  0.50000000  0.90329000  1
  O  O20  1  0.25885400  0.00000000  0.10410200  1
  O  O21  1  0.74148700  0.00000000  0.10373000  1
  O  O22  1  0.24969300  0.00000000  0.30134900  1
  O  O23  1  0.75031900  0.00000000  0.30086300  1
  O  O24  1  0.24999600  0.00000000  0.50061800  1
  O  O25  1  0.75001000  0.00000000  0.49879400  1
  O  O26  1  0.25792700  0.00000000  0.90348800  1
  O  O27  1  0.75016600  0.00000000  0.69365000  1
  O  O28  1  0.74289100  0.00000000  0.90212400  1
  O  O29  1  0.00037300  0.50000000  0.10648600  1
  O  O30  1  0.26293600  0.50000000  0.00296200  1
  O  O31  1  0.00023000  0.50000000  0.30083900  1
  O  O32  1  0.25235500  0.50000000  0.20146500  1
  O  O33  1  0.50012100  0.50000000  0.10222500  1
  O  O34  1  0.73912200  0.50000000  0.00315200  1
  O  O35  1  0.00077600  0.50000000  0.49975400  1
  O  O36  1  0.24990400  0.50000000  0.40012000  1
  O  O37  1  0.49979900  0.50000000  0.30151600  1
  O  O38  1  0.74769200  0.50000000  0.20140300  1
  O  O39  1  0.00230800  0.50000000  0.69332500  1
  O  O40  1  0.24997400  0.50000000  0.59770000  1
  O  O41  1  0.49922200  0.50000000  0.49972600  1
  O  O42  1  0.75011900  0.50000000  0.39964600  1
  O  O43  1  0.00078300  0.50000000  0.90181500  1
  O  O44  1  0.25131000  0.50000000  0.79838700  1
  O  O45  1  0.49766300  0.50000000  0.69293100  1
  O  O46  1  0.74998500  0.50000000  0.59701800  1
  O  O47  1  0.49973000  0.50000000  0.90288300  1
  O  O48  1  0.74859600  0.50000000  0.79915200  1
  O  O49  1  0.24982500  0.00000000  0.69216600  1
