# generated using pymatgen
data_VAgO3
_symmetry_space_group_name_H-M   'P 1'
_cell_length_a   10.60599200
_cell_length_b   10.02690200
_cell_length_c   5.60195675
_cell_angle_alpha   90.00000000
_cell_angle_beta   99.80645334
_cell_angle_gamma   90.00000000
_symmetry_Int_Tables_number   1
_chemical_formula_structural   VAgO3
_chemical_formula_sum   'V8 Ag8 O24'
_cell_volume   587.03690428
_cell_formula_units_Z   8
loop_
 _symmetry_equiv_pos_site_id
 _symmetry_equiv_pos_as_xyz
  1  'x, y, z'
loop_
 _atom_site_type_symbol
 _atom_site_label
 _atom_site_symmetry_multiplicity
 _atom_site_fract_x
 _atom_site_fract_y
 _atom_site_fract_z
 _atom_site_occupancy
  V  V0  1  0.69903050  0.58614050  0.28549400  1
  V  V1  1  0.69903050  0.41385950  0.78549400  1
  V  V2  1  0.30096950  0.41385950  0.71450600  1
  V  V3  1  0.30096950  0.58614050  0.21450600  1
  V  V4  1  0.19903050  0.08614050  0.28549400  1
  V  V5  1  0.19903050  0.91385950  0.78549400  1
  V  V6  1  0.80096950  0.91385950  0.71450600  1
  V  V7  1  0.80096950  0.08614050  0.21450600  1
  Ag  Ag8  1  0.00000000  0.78130700  0.25000000  1
  Ag  Ag9  1  0.00000000  0.58923800  0.75000000  1
  Ag  Ag10  1  0.00000000  0.41076200  0.25000000  1
  Ag  Ag11  1  0.00000000  0.21869300  0.75000000  1
  Ag  Ag12  1  0.50000000  0.28130700  0.25000000  1
  Ag  Ag13  1  0.50000000  0.08923800  0.75000000  1
  Ag  Ag14  1  0.50000000  0.91076200  0.25000000  1
  Ag  Ag15  1  0.50000000  0.71869300  0.75000000  1
  O  O16  1  0.86658600  0.22876500  0.33511100  1
  O  O17  1  0.35310600  0.44942400  0.42606300  1
  O  O18  1  0.64689400  0.55057600  0.57393700  1
  O  O19  1  0.35310600  0.55057600  0.92606300  1
  O  O20  1  0.86205900  0.59555400  0.32971800  1
  O  O21  1  0.13794100  0.40444600  0.67028200  1
  O  O22  1  0.86205900  0.40444600  0.82971800  1
  O  O23  1  0.13341400  0.77123500  0.66488900  1
  O  O24  1  0.13794100  0.59555400  0.17028200  1
  O  O25  1  0.13341400  0.22876500  0.16488900  1
  O  O26  1  0.64689400  0.44942400  0.07393700  1
  O  O27  1  0.86658600  0.77123500  0.83511100  1
  O  O28  1  0.36658600  0.72876500  0.33511100  1
  O  O29  1  0.85310600  0.94942400  0.42606300  1
  O  O30  1  0.14689400  0.05057600  0.57393700  1
  O  O31  1  0.85310600  0.05057600  0.92606300  1
  O  O32  1  0.36205900  0.09555400  0.32971800  1
  O  O33  1  0.63794100  0.90444600  0.67028200  1
  O  O34  1  0.36205900  0.90444600  0.82971800  1
  O  O35  1  0.63341400  0.27123500  0.66488900  1
  O  O36  1  0.63794100  0.09555400  0.17028200  1
  O  O37  1  0.63341400  0.72876500  0.16488900  1
  O  O38  1  0.14689400  0.94942400  0.07393700  1
  O  O39  1  0.36658600  0.27123500  0.83511100  1
