# generated using pymatgen
data_Sb2OsC6(OF2)6
_symmetry_space_group_name_H-M   'P 1'
_cell_length_a   8.44550700
_cell_length_b   8.44550700
_cell_length_c   12.66606200
_cell_angle_alpha   90.00000000
_cell_angle_beta   90.00000000
_cell_angle_gamma   90.00000000
_symmetry_Int_Tables_number   1
_chemical_formula_structural   Sb2OsC6(OF2)6
_chemical_formula_sum   'Sb4 Os2 C12 O12 F24'
_cell_volume   903.42699203
_cell_formula_units_Z   2
loop_
 _symmetry_equiv_pos_site_id
 _symmetry_equiv_pos_as_xyz
  1  'x, y, z'
loop_
 _atom_site_type_symbol
 _atom_site_label
 _atom_site_symmetry_multiplicity
 _atom_site_fract_x
 _atom_site_fract_y
 _atom_site_fract_z
 _atom_site_occupancy
  Sb  Sb0  1  0.00000000  0.50000000  0.75000000  1
  Sb  Sb1  1  0.50000000  0.00000000  0.75000000  1
  Sb  Sb2  1  0.50000000  0.00000000  0.25000000  1
  Sb  Sb3  1  0.00000000  0.50000000  0.25000000  1
  Os  Os4  1  0.50000000  0.50000000  0.50000000  1
  Os  Os5  1  0.00000000  0.00000000  0.00000000  1
  C  C6  1  0.62893400  0.70127100  0.50000000  1
  C  C7  1  0.37106600  0.29872900  0.50000000  1
  C  C8  1  0.00000000  0.00000000  0.15898300  1
  C  C9  1  0.50000000  0.50000000  0.34101700  1
  C  C10  1  0.00000000  0.00000000  0.84101700  1
  C  C11  1  0.50000000  0.50000000  0.65898300  1
  C  C12  1  0.20127100  0.12893400  0.00000000  1
  C  C13  1  0.87106600  0.20127100  0.00000000  1
  C  C14  1  0.12893400  0.79872900  0.00000000  1
  C  C15  1  0.70127100  0.37106600  0.50000000  1
  C  C16  1  0.29872900  0.62893400  0.50000000  1
  C  C17  1  0.79872900  0.87106600  0.00000000  1
  O  O18  1  0.29971400  0.18461900  0.50000000  1
  O  O19  1  0.70028600  0.81538100  0.50000000  1
  O  O20  1  0.00000000  0.00000000  0.24879000  1
  O  O21  1  0.50000000  0.50000000  0.25121000  1
  O  O22  1  0.00000000  0.00000000  0.75121000  1
  O  O23  1  0.50000000  0.50000000  0.74879000  1
  O  O24  1  0.31538100  0.20028600  0.00000000  1
  O  O25  1  0.79971400  0.31538100  0.00000000  1
  O  O26  1  0.20028600  0.68461900  0.00000000  1
  O  O27  1  0.81538100  0.29971400  0.50000000  1
  O  O28  1  0.18461900  0.70028600  0.50000000  1
  O  O29  1  0.68461900  0.79971400  0.00000000  1
  F  F30  1  0.33959900  0.16040100  0.75000000  1
  F  F31  1  0.83959900  0.33959900  0.75000000  1
  F  F32  1  0.66040100  0.83959900  0.75000000  1
  F  F33  1  0.38087000  0.89301700  0.85814500  1
  F  F34  1  0.66040100  0.83959900  0.25000000  1
  F  F35  1  0.16040100  0.66040100  0.25000000  1
  F  F36  1  0.61913000  0.10698300  0.14185500  1
  F  F37  1  0.89301700  0.61913000  0.14185500  1
  F  F38  1  0.10698300  0.38087000  0.14185500  1
  F  F39  1  0.11913000  0.39301700  0.35814500  1
  F  F40  1  0.88087000  0.60698300  0.35814500  1
  F  F41  1  0.38087000  0.89301700  0.14185500  1
  F  F42  1  0.60698300  0.11913000  0.35814500  1
  F  F43  1  0.39301700  0.88087000  0.35814500  1
  F  F44  1  0.83959900  0.33959900  0.25000000  1
  F  F45  1  0.10698300  0.38087000  0.85814500  1
  F  F46  1  0.89301700  0.61913000  0.85814500  1
  F  F47  1  0.88087000  0.60698300  0.64185500  1
  F  F48  1  0.11913000  0.39301700  0.64185500  1
  F  F49  1  0.61913000  0.10698300  0.85814500  1
  F  F50  1  0.39301700  0.88087000  0.64185500  1
  F  F51  1  0.60698300  0.11913000  0.64185500  1
  F  F52  1  0.33959900  0.16040100  0.25000000  1
  F  F53  1  0.16040100  0.66040100  0.75000000  1
