# generated using pymatgen
data_Cs2MgH4
_symmetry_space_group_name_H-M   'P 1'
_cell_length_a   6.63419700
_cell_length_b   8.65690800
_cell_length_c   11.70448500
_cell_angle_alpha   90.00000000
_cell_angle_beta   90.00000000
_cell_angle_gamma   90.00000000
_symmetry_Int_Tables_number   1
_chemical_formula_structural   Cs2MgH4
_chemical_formula_sum   'Cs8 Mg4 H16'
_cell_volume   672.20768794
_cell_formula_units_Z   4
loop_
 _symmetry_equiv_pos_site_id
 _symmetry_equiv_pos_as_xyz
  1  'x, y, z'
loop_
 _atom_site_type_symbol
 _atom_site_label
 _atom_site_symmetry_multiplicity
 _atom_site_fract_x
 _atom_site_fract_y
 _atom_site_fract_z
 _atom_site_occupancy
  Cs  Cs0  1  0.25000000  0.65888400  0.41809400  1
  Cs  Cs1  1  0.25000000  0.15888400  0.08190600  1
  Cs  Cs2  1  0.75000000  0.34111600  0.58190600  1
  Cs  Cs3  1  0.75000000  0.84111600  0.91809400  1
  Cs  Cs4  1  0.25000000  0.99162400  0.69059900  1
  Cs  Cs5  1  0.25000000  0.49162400  0.80940100  1
  Cs  Cs6  1  0.75000000  0.00837600  0.30940100  1
  Cs  Cs7  1  0.75000000  0.50837600  0.19059900  1
  Mg  Mg8  1  0.25000000  0.23581000  0.41150900  1
  Mg  Mg9  1  0.25000000  0.73581000  0.08849100  1
  Mg  Mg10  1  0.75000000  0.76419000  0.58849100  1
  Mg  Mg11  1  0.75000000  0.26419000  0.91150900  1
  H  H12  1  0.25000000  0.02185300  0.41271300  1
  H  H13  1  0.25000000  0.52185300  0.08728700  1
  H  H14  1  0.75000000  0.97814700  0.58728700  1
  H  H15  1  0.75000000  0.47814700  0.91271300  1
  H  H16  1  0.25000000  0.31815100  0.55964700  1
  H  H17  1  0.25000000  0.81815100  0.94035300  1
  H  H18  1  0.75000000  0.68184900  0.44035300  1
  H  H19  1  0.75000000  0.18184900  0.05964700  1
  H  H20  1  0.47946600  0.31280900  0.34062800  1
  H  H21  1  0.02053400  0.81280900  0.15937200  1
  H  H22  1  0.97946600  0.68719100  0.65937200  1
  H  H23  1  0.52053400  0.18719100  0.84062800  1
  H  H24  1  0.52053400  0.68719100  0.65937200  1
  H  H25  1  0.97946600  0.18719100  0.84062800  1
  H  H26  1  0.02053400  0.31280900  0.34062800  1
  H  H27  1  0.47946600  0.81280900  0.15937200  1
