# generated using pymatgen
data_Li2MnBr4
_symmetry_space_group_name_H-M   'P 1'
_cell_length_a   5.53442800
_cell_length_b   5.53931800
_cell_length_c   10.94689800
_cell_angle_alpha   90.00000000
_cell_angle_beta   90.00000000
_cell_angle_gamma   90.00000000
_symmetry_Int_Tables_number   1
_chemical_formula_structural   Li2MnBr4
_chemical_formula_sum   'Li4 Mn2 Br8'
_cell_volume   335.59857733
_cell_formula_units_Z   2
loop_
 _symmetry_equiv_pos_site_id
 _symmetry_equiv_pos_as_xyz
  1  'x, y, z'
loop_
 _atom_site_type_symbol
 _atom_site_label
 _atom_site_symmetry_multiplicity
 _atom_site_fract_x
 _atom_site_fract_y
 _atom_site_fract_z
 _atom_site_occupancy
  Li  Li0  1  0.00000000  0.50560200  0.25158000  1
  Li  Li1  1  0.50000000  0.00560200  0.24842000  1
  Li  Li2  1  0.50000000  0.00560200  0.75158000  1
  Li  Li3  1  0.00000000  0.50560200  0.74842000  1
  Mn  Mn4  1  0.50000000  0.49219700  0.00000000  1
  Mn  Mn5  1  0.00000000  0.99219700  0.50000000  1
  Br  Br6  1  0.00000000  0.00458100  0.26233000  1
  Br  Br7  1  0.50000000  0.50458100  0.23767000  1
  Br  Br8  1  0.50000000  0.00287800  0.00000000  1
  Br  Br9  1  0.00000000  0.50130700  0.00000000  1
  Br  Br10  1  0.50000000  0.50458100  0.76233000  1
  Br  Br11  1  0.00000000  0.00458100  0.73767000  1
  Br  Br12  1  0.00000000  0.50287800  0.50000000  1
  Br  Br13  1  0.50000000  0.00130700  0.50000000  1
