# generated using pymatgen
data_Na2SrLa2Ti5O15
_symmetry_space_group_name_H-M   'P 1'
_cell_length_a   39.46545200
_cell_length_b   5.53056000
_cell_length_c   5.52378409
_cell_angle_alpha   90.00000000
_cell_angle_beta   97.85879498
_cell_angle_gamma   90.00000000
_symmetry_Int_Tables_number   1
_chemical_formula_structural   Na2SrLa2Ti5O15
_chemical_formula_sum   'Na8 Sr4 La8 Ti20 O60'
_cell_volume   1194.33109149
_cell_formula_units_Z   4
loop_
 _symmetry_equiv_pos_site_id
 _symmetry_equiv_pos_as_xyz
  1  'x, y, z'
loop_
 _atom_site_type_symbol
 _atom_site_label
 _atom_site_symmetry_multiplicity
 _atom_site_fract_x
 _atom_site_fract_y
 _atom_site_fract_z
 _atom_site_occupancy
  Na  Na0  1  0.09980300  0.15139800  0.59870800  1
  Na  Na1  1  0.19997250  0.64744150  0.19854000  1
  Na  Na2  1  0.30002750  0.14744150  0.80146000  1
  Na  Na3  1  0.40019700  0.65139800  0.40129200  1
  Na  Na4  1  0.59980300  0.65139800  0.59870800  1
  Na  Na5  1  0.69997250  0.14744150  0.19854000  1
  Na  Na6  1  0.80002750  0.64744150  0.80146000  1
  Na  Na7  1  0.90019700  0.15139800  0.40129200  1
  Sr  Sr8  1  0.00000000  0.64990900  0.00000000  1
  Sr  Sr9  1  0.00000000  0.14832100  0.50000000  1
  Sr  Sr10  1  0.50000000  0.14990900  0.00000000  1
  Sr  Sr11  1  0.50000000  0.64832100  0.50000000  1
  La  La12  1  0.29953450  0.64624050  0.30786100  1
  La  La13  1  0.39919450  0.15134850  0.90347700  1
  La  La14  1  0.10080550  0.65134850  0.09652300  1
  La  La15  1  0.20046550  0.14624050  0.69213900  1
  La  La16  1  0.79953450  0.14624050  0.30786100  1
  La  La17  1  0.89919450  0.65134850  0.90347700  1
  La  La18  1  0.60080550  0.15134850  0.09652300  1
  La  La19  1  0.70046550  0.64624050  0.69213900  1
  Ti  Ti20  1  0.34893850  0.64729550  0.85461900  1
  Ti  Ti21  1  0.44880650  0.15170550  0.45201100  1
  Ti  Ti22  1  0.05048000  0.15014300  0.04950000  1
  Ti  Ti23  1  0.14973500  0.64749100  0.64670100  1
  Ti  Ti24  1  0.24934000  0.14524300  0.25382800  1
  Ti  Ti25  1  0.15106150  0.14729550  0.14538100  1
  Ti  Ti26  1  0.25066000  0.64524300  0.74617200  1
  Ti  Ti27  1  0.35026500  0.14749100  0.35329900  1
  Ti  Ti28  1  0.44952000  0.65014300  0.95050000  1
  Ti  Ti29  1  0.05119350  0.65170550  0.54798900  1
  Ti  Ti30  1  0.84893850  0.14729550  0.85461900  1
  Ti  Ti31  1  0.94880650  0.65170550  0.45201100  1
  Ti  Ti32  1  0.55048000  0.65014300  0.04950000  1
  Ti  Ti33  1  0.64973500  0.14749100  0.64670100  1
  Ti  Ti34  1  0.74934000  0.64524300  0.25382800  1
  Ti  Ti35  1  0.65106150  0.64729550  0.14538100  1
  Ti  Ti36  1  0.75066000  0.14524300  0.74617200  1
  Ti  Ti37  1  0.85026500  0.64749100  0.35329900  1
  Ti  Ti38  1  0.94952000  0.15014300  0.95050000  1
  Ti  Ti39  1  0.55119350  0.15170550  0.54798900  1
  O  O40  1  0.04685550  0.91640650  0.78569300  1
  O  O41  1  0.00000000  0.61461200  0.50000000  1
  O  O42  1  0.14506850  0.43191050  0.36957200  1
  O  O43  1  0.04810700  0.87876300  0.27932300  1
  O  O44  1  0.10100000  0.10154400  0.10160400  1
  O  O45  1  0.25568900  0.43143700  0.03723100  1
  O  O46  1  0.24431100  0.93143700  0.96276900  1
  O  O47  1  0.14669450  0.37981050  0.87679200  1
  O  O48  1  0.29995000  0.69465600  0.79413300  1
  O  O49  1  0.20038050  0.59757350  0.70199600  1
  O  O50  1  0.35493150  0.93191050  0.63042800  1
  O  O51  1  0.25446150  0.37807550  0.53056600  1
  O  O52  1  0.34500350  0.42856350  0.56610700  1
  O  O53  1  0.24553850  0.87807550  0.46943400  1
  O  O54  1  0.39972150  0.19373450  0.39352000  1
  O  O55  1  0.29961950  0.09757350  0.29800400  1
  O  O56  1  0.45314450  0.41640650  0.21430700  1
  O  O57  1  0.35330550  0.87981050  0.12320800  1
  O  O58  1  0.44523200  0.92496700  0.16832300  1
  O  O59  1  0.34516350  0.37851250  0.07134300  1
  O  O60  1  0.00000000  0.18210300  0.00000000  1
  O  O61  1  0.39900000  0.60154400  0.89839600  1
  O  O62  1  0.05476800  0.42496700  0.83167700  1
  O  O63  1  0.45189300  0.37876300  0.72067700  1
  O  O64  1  0.44538000  0.88838600  0.68162800  1
  O  O65  1  0.10027850  0.69373450  0.60648000  1
  O  O66  1  0.15499650  0.92856350  0.43389300  1
  O  O67  1  0.05462000  0.38838600  0.31837200  1
  O  O68  1  0.20005000  0.19465600  0.20586700  1
  O  O69  1  0.15483650  0.87851250  0.92865700  1
  O  O70  1  0.54685550  0.41640650  0.78569300  1
  O  O71  1  0.50000000  0.11461200  0.50000000  1
  O  O72  1  0.64506850  0.93191050  0.36957200  1
  O  O73  1  0.54810700  0.37876300  0.27932300  1
  O  O74  1  0.60100000  0.60154400  0.10160400  1
  O  O75  1  0.75568900  0.93143700  0.03723100  1
  O  O76  1  0.74431100  0.43143700  0.96276900  1
  O  O77  1  0.64669450  0.87981050  0.87679200  1
  O  O78  1  0.79995000  0.19465600  0.79413300  1
  O  O79  1  0.70038050  0.09757350  0.70199600  1
  O  O80  1  0.85493150  0.43191050  0.63042800  1
  O  O81  1  0.75446150  0.87807550  0.53056600  1
  O  O82  1  0.84500350  0.92856350  0.56610700  1
  O  O83  1  0.74553850  0.37807550  0.46943400  1
  O  O84  1  0.89972150  0.69373450  0.39352000  1
  O  O85  1  0.79961950  0.59757350  0.29800400  1
  O  O86  1  0.95314450  0.91640650  0.21430700  1
  O  O87  1  0.85330550  0.37981050  0.12320800  1
  O  O88  1  0.94523200  0.42496700  0.16832300  1
  O  O89  1  0.84516350  0.87851250  0.07134300  1
  O  O90  1  0.50000000  0.68210300  0.00000000  1
  O  O91  1  0.89900000  0.10154400  0.89839600  1
  O  O92  1  0.55476800  0.92496700  0.83167700  1
  O  O93  1  0.95189300  0.87876300  0.72067700  1
  O  O94  1  0.94538000  0.38838600  0.68162800  1
  O  O95  1  0.60027850  0.19373450  0.60648000  1
  O  O96  1  0.65499650  0.42856350  0.43389300  1
  O  O97  1  0.55462000  0.88838600  0.31837200  1
  O  O98  1  0.70005000  0.69465600  0.20586700  1
  O  O99  1  0.65483650  0.37851250  0.92865700  1
