# generated using pymatgen
data_Si2H2O5
_symmetry_space_group_name_H-M   'P 1'
_cell_length_a   17.00394800
_cell_length_b   5.72320600
_cell_length_c   5.22221603
_cell_angle_alpha   90.00000000
_cell_angle_beta   104.62176206
_cell_angle_gamma   90.00000000
_symmetry_Int_Tables_number   1
_chemical_formula_structural   Si2H2O5
_chemical_formula_sum   'Si8 H8 O20'
_cell_volume   491.75166151
_cell_formula_units_Z   4
loop_
 _symmetry_equiv_pos_site_id
 _symmetry_equiv_pos_as_xyz
  1  'x, y, z'
loop_
 _atom_site_type_symbol
 _atom_site_label
 _atom_site_symmetry_multiplicity
 _atom_site_fract_x
 _atom_site_fract_y
 _atom_site_fract_z
 _atom_site_occupancy
  Si  Si0  1  0.34205600  0.16055200  0.52564900  1
  Si  Si1  1  0.15675400  0.34679400  0.37237900  1
  Si  Si2  1  0.15675400  0.65320600  0.87237900  1
  Si  Si3  1  0.34205600  0.83944800  0.02564900  1
  Si  Si4  1  0.84205600  0.66055200  0.52564900  1
  Si  Si5  1  0.65675400  0.84679400  0.37237900  1
  Si  Si6  1  0.65675400  0.15320600  0.87237900  1
  Si  Si7  1  0.84205600  0.33944800  0.02564900  1
  H  H8  1  0.41346500  0.47102800  0.72781700  1
  H  H9  1  0.07665500  0.05759600  0.17637100  1
  H  H10  1  0.07665500  0.94240400  0.67637100  1
  H  H11  1  0.41346500  0.52897200  0.22781700  1
  H  H12  1  0.91346500  0.97102800  0.72781700  1
  H  H13  1  0.57665500  0.55759600  0.17637100  1
  H  H14  1  0.57665500  0.44240400  0.67637100  1
  H  H15  1  0.91346500  0.02897200  0.22781700  1
  O  O16  1  0.25178600  0.27276400  0.47249800  1
  O  O17  1  0.25178600  0.72723600  0.97249800  1
  O  O18  1  0.35558900  0.01867600  0.27278600  1
  O  O19  1  0.13766950  0.46661050  0.08181800  1
  O  O20  1  0.13766950  0.53338950  0.58181800  1
  O  O21  1  0.35558900  0.98132400  0.77278600  1
  O  O22  1  0.40946900  0.37212000  0.57082200  1
  O  O23  1  0.09670600  0.12040800  0.35658600  1
  O  O24  1  0.09670600  0.87959200  0.85658600  1
  O  O25  1  0.40946900  0.62788000  0.07082200  1
  O  O26  1  0.75178600  0.77276400  0.47249800  1
  O  O27  1  0.75178600  0.22723600  0.97249800  1
  O  O28  1  0.85558900  0.51867600  0.27278600  1
  O  O29  1  0.63766950  0.96661050  0.08181800  1
  O  O30  1  0.63766950  0.03338950  0.58181800  1
  O  O31  1  0.85558900  0.48132400  0.77278600  1
  O  O32  1  0.90946900  0.87212000  0.57082200  1
  O  O33  1  0.59670600  0.62040800  0.35658600  1
  O  O34  1  0.59670600  0.37959200  0.85658600  1
  O  O35  1  0.90946900  0.12788000  0.07082200  1
