# generated using pymatgen
data_Na2AlH4ClO4
_symmetry_space_group_name_H-M   'P 1'
_cell_length_a   7.59412400
_cell_length_b   7.59412400
_cell_length_c   5.10194600
_cell_angle_alpha   90.00000000
_cell_angle_beta   90.00000000
_cell_angle_gamma   90.00000000
_symmetry_Int_Tables_number   1
_chemical_formula_structural   Na2AlH4ClO4
_chemical_formula_sum   'Na4 Al2 H8 Cl2 O8'
_cell_volume   294.23289579
_cell_formula_units_Z   2
loop_
 _symmetry_equiv_pos_site_id
 _symmetry_equiv_pos_as_xyz
  1  'x, y, z'
loop_
 _atom_site_type_symbol
 _atom_site_label
 _atom_site_symmetry_multiplicity
 _atom_site_fract_x
 _atom_site_fract_y
 _atom_site_fract_z
 _atom_site_occupancy
  Na  Na0  1  0.25000000  0.25000000  0.50000000  1
  Na  Na1  1  0.75000000  0.75000000  0.50000000  1
  Na  Na2  1  0.75000000  0.25000000  0.50000000  1
  Na  Na3  1  0.25000000  0.75000000  0.50000000  1
  Al  Al4  1  0.50000000  0.50000000  0.00000000  1
  Al  Al5  1  0.00000000  0.00000000  0.00000000  1
  H  H6  1  0.50000000  0.21007900  0.10899300  1
  H  H7  1  0.50000000  0.78992100  0.10899300  1
  H  H8  1  0.00000000  0.71007900  0.89100700  1
  H  H9  1  0.00000000  0.28992100  0.89100700  1
  H  H10  1  0.78992100  0.50000000  0.89100700  1
  H  H11  1  0.21007900  0.50000000  0.89100700  1
  H  H12  1  0.28992100  0.00000000  0.10899300  1
  H  H13  1  0.71007900  0.00000000  0.10899300  1
  Cl  Cl14  1  0.50000000  0.00000000  0.77912100  1
  Cl  Cl15  1  0.00000000  0.50000000  0.22087900  1
  O  O16  1  0.50000000  0.31609900  0.21788700  1
  O  O17  1  0.50000000  0.68390100  0.21788700  1
  O  O18  1  0.00000000  0.81609900  0.78211300  1
  O  O19  1  0.00000000  0.18390100  0.78211300  1
  O  O20  1  0.68390100  0.50000000  0.78211300  1
  O  O21  1  0.31609900  0.50000000  0.78211300  1
  O  O22  1  0.18390100  0.00000000  0.21788700  1
  O  O23  1  0.81609900  0.00000000  0.21788700  1
