# generated using pymatgen
data_CeBMoO6
_symmetry_space_group_name_H-M   'P 1'
_cell_length_a   10.32596000
_cell_length_b   4.17436900
_cell_length_c   12.06156969
_cell_angle_alpha   90.00000000
_cell_angle_beta   116.14617765
_cell_angle_gamma   90.00000000
_symmetry_Int_Tables_number   1
_chemical_formula_structural   CeBMoO6
_chemical_formula_sum   'Ce4 B4 Mo4 O24'
_cell_volume   466.70572666
_cell_formula_units_Z   4
loop_
 _symmetry_equiv_pos_site_id
 _symmetry_equiv_pos_as_xyz
  1  'x, y, z'
loop_
 _atom_site_type_symbol
 _atom_site_label
 _atom_site_symmetry_multiplicity
 _atom_site_fract_x
 _atom_site_fract_y
 _atom_site_fract_z
 _atom_site_occupancy
  Ce  Ce0  1  0.80160900  0.78540300  0.96820300  1
  Ce  Ce1  1  0.19839100  0.21459700  0.03179700  1
  Ce  Ce2  1  0.80160900  0.71459700  0.46820300  1
  Ce  Ce3  1  0.19839100  0.28540300  0.53179700  1
  B  B4  1  0.99635900  0.16622700  0.69062200  1
  B  B5  1  0.00364100  0.66622700  0.80937800  1
  B  B6  1  0.99635900  0.33377300  0.19062200  1
  B  B7  1  0.00364100  0.83377300  0.30937800  1
  Mo  Mo8  1  0.64535100  0.19279900  0.68120400  1
  Mo  Mo9  1  0.35464900  0.80720100  0.31879600  1
  Mo  Mo10  1  0.35464900  0.69279900  0.81879600  1
  Mo  Mo11  1  0.64535100  0.30720100  0.18120400  1
  O  O12  1  0.45540000  0.23339000  0.10743800  1
  O  O13  1  0.73627400  0.22498700  0.08465500  1
  O  O14  1  0.26372600  0.72498700  0.41534500  1
  O  O15  1  0.74368600  0.22276000  0.35033500  1
  O  O16  1  0.26372600  0.77501300  0.91534500  1
  O  O17  1  0.03065200  0.34001000  0.79984900  1
  O  O18  1  0.33755600  0.26539800  0.80217000  1
  O  O19  1  0.03065200  0.15999000  0.29984900  1
  O  O20  1  0.00275900  0.72983100  0.41439600  1
  O  O21  1  0.25631400  0.77724000  0.64966500  1
  O  O22  1  0.96934800  0.65999000  0.20015100  1
  O  O23  1  0.73627400  0.27501300  0.58465500  1
  O  O24  1  0.66244400  0.76539800  0.69783000  1
  O  O25  1  0.99724100  0.27016900  0.58560400  1
  O  O26  1  0.33755600  0.23460200  0.30217000  1
  O  O27  1  0.99724100  0.22983100  0.08560400  1
  O  O28  1  0.45540000  0.26661000  0.60743800  1
  O  O29  1  0.54460000  0.76661000  0.89256200  1
  O  O30  1  0.96934800  0.84001000  0.70015100  1
  O  O31  1  0.00275900  0.77016900  0.91439600  1
  O  O32  1  0.25631400  0.72276000  0.14966500  1
  O  O33  1  0.66244400  0.73460200  0.19783000  1
  O  O34  1  0.74368600  0.27724000  0.85033500  1
  O  O35  1  0.54460000  0.73339000  0.39256200  1
