# generated using pymatgen
data_Li5SiP3
_symmetry_space_group_name_H-M   'P 1'
_cell_length_a   12.80872000
_cell_length_b   5.91951400
_cell_length_c   8.61638904
_cell_angle_alpha   90.00000000
_cell_angle_beta   109.45660269
_cell_angle_gamma   90.00000000
_symmetry_Int_Tables_number   1
_chemical_formula_structural   Li5SiP3
_chemical_formula_sum   'Li20 Si4 P12'
_cell_volume   615.99896309
_cell_formula_units_Z   4
loop_
 _symmetry_equiv_pos_site_id
 _symmetry_equiv_pos_as_xyz
  1  'x, y, z'
loop_
 _atom_site_type_symbol
 _atom_site_label
 _atom_site_symmetry_multiplicity
 _atom_site_fract_x
 _atom_site_fract_y
 _atom_site_fract_z
 _atom_site_occupancy
  Li  Li0  1  0.65594600  0.25857100  0.57895400  1
  Li  Li1  1  0.50141900  0.71604900  0.72775300  1
  Li  Li2  1  0.82568250  0.74019550  0.92167900  1
  Li  Li3  1  0.67656550  0.23550650  0.09160600  1
  Li  Li4  1  0.65594600  0.74142900  0.07895400  1
  Li  Li5  1  0.83973000  0.75517600  0.41797400  1
  Li  Li6  1  0.50141900  0.28395100  0.22775300  1
  Li  Li7  1  0.82568250  0.25980450  0.42167900  1
  Li  Li8  1  0.67656550  0.76449350  0.59160600  1
  Li  Li9  1  0.83973000  0.24482400  0.91797400  1
  Li  Li10  1  0.15594600  0.75857100  0.57895400  1
  Li  Li11  1  0.00141900  0.21604900  0.72775300  1
  Li  Li12  1  0.32568250  0.24019550  0.92167900  1
  Li  Li13  1  0.17656550  0.73550650  0.09160600  1
  Li  Li14  1  0.15594600  0.24142900  0.07895400  1
  Li  Li15  1  0.33973000  0.25517600  0.41797400  1
  Li  Li16  1  0.00141900  0.78395100  0.22775300  1
  Li  Li17  1  0.32568250  0.75980450  0.42167900  1
  Li  Li18  1  0.17656550  0.26449350  0.59160600  1
  Li  Li19  1  0.33973000  0.74482400  0.91797400  1
  Si  Si20  1  0.50034250  0.82279450  0.30436200  1
  Si  Si21  1  0.50034250  0.17720550  0.80436200  1
  Si  Si22  1  0.00034250  0.32279450  0.30436200  1
  Si  Si23  1  0.00034250  0.67720550  0.80436200  1
  P  P24  1  0.99984800  0.96417500  0.96146000  1
  P  P25  1  0.65795150  0.98607850  0.32782700  1
  P  P26  1  0.99984800  0.03582500  0.46146000  1
  P  P27  1  0.84343700  0.51126400  0.67437500  1
  P  P28  1  0.65795150  0.01392150  0.82782700  1
  P  P29  1  0.84343700  0.48873600  0.17437500  1
  P  P30  1  0.49984800  0.46417500  0.96146000  1
  P  P31  1  0.15795150  0.48607850  0.32782700  1
  P  P32  1  0.49984800  0.53582500  0.46146000  1
  P  P33  1  0.34343700  0.01126400  0.67437500  1
  P  P34  1  0.15795150  0.51392150  0.82782700  1
  P  P35  1  0.34343700  0.98873600  0.17437500  1
