# generated using pymatgen
data_Ti4P8S29
_symmetry_space_group_name_H-M   'P 1'
_cell_length_a   20.30339000
_cell_length_b   17.65350400
_cell_length_c   12.89469555
_cell_angle_alpha   90.00000000
_cell_angle_beta   98.01668865
_cell_angle_gamma   90.00000000
_symmetry_Int_Tables_number   1
_chemical_formula_structural   Ti4P8S29
_chemical_formula_sum   'Ti16 P32 S116'
_cell_volume   4576.62731547
_cell_formula_units_Z   4
loop_
 _symmetry_equiv_pos_site_id
 _symmetry_equiv_pos_as_xyz
  1  'x, y, z'
loop_
 _atom_site_type_symbol
 _atom_site_label
 _atom_site_symmetry_multiplicity
 _atom_site_fract_x
 _atom_site_fract_y
 _atom_site_fract_z
 _atom_site_occupancy
  Ti  Ti0  1  0.40471750  0.85003550  0.92598200  1
  Ti  Ti1  1  0.14763100  0.03875500  0.84997300  1
  Ti  Ti2  1  0.85248500  0.03854700  0.64999500  1
  Ti  Ti3  1  0.59395150  0.85062950  0.57481900  1
  Ti  Ti4  1  0.40471750  0.14996450  0.42598200  1
  Ti  Ti5  1  0.14763100  0.96124500  0.34997300  1
  Ti  Ti6  1  0.85248500  0.96145300  0.14999500  1
  Ti  Ti7  1  0.59395150  0.14937050  0.07481900  1
  Ti  Ti8  1  0.90471750  0.35003550  0.92598200  1
  Ti  Ti9  1  0.64763100  0.53875500  0.84997300  1
  Ti  Ti10  1  0.35248500  0.53854700  0.64999500  1
  Ti  Ti11  1  0.09395150  0.35062950  0.57481900  1
  Ti  Ti12  1  0.90471750  0.64996450  0.42598200  1
  Ti  Ti13  1  0.64763100  0.46124500  0.34997300  1
  Ti  Ti14  1  0.35248500  0.46145300  0.14999500  1
  Ti  Ti15  1  0.09395150  0.64937050  0.07481900  1
  P  P16  1  0.20973350  0.19163950  0.94035200  1
  P  P17  1  0.26526450  0.92717750  0.88451100  1
  P  P18  1  0.53457700  0.21509300  0.85991800  1
  P  P19  1  0.50000250  0.52473050  0.75014600  1
  P  P20  1  0.49969200  0.84605500  0.75064600  1
  P  P21  1  0.45210450  0.21357750  0.64936500  1
  P  P22  1  0.73438150  0.92633950  0.61480500  1
  P  P23  1  0.79153800  0.19130000  0.55840200  1
  P  P24  1  0.20973350  0.80836050  0.44035200  1
  P  P25  1  0.26526450  0.07282250  0.38451100  1
  P  P26  1  0.53457700  0.78490700  0.35991800  1
  P  P27  1  0.49969200  0.15394500  0.25064600  1
  P  P28  1  0.50000250  0.47526950  0.25014600  1
  P  P29  1  0.45210450  0.78642250  0.14936500  1
  P  P30  1  0.73438150  0.07366050  0.11480500  1
  P  P31  1  0.79153800  0.80870000  0.05840200  1
  P  P32  1  0.70973350  0.69163950  0.94035200  1
  P  P33  1  0.76526450  0.42717750  0.88451100  1
  P  P34  1  0.03457700  0.71509300  0.85991800  1
  P  P35  1  0.00000250  0.02473050  0.75014600  1
  P  P36  1  0.99969200  0.34605500  0.75064600  1
  P  P37  1  0.95210450  0.71357750  0.64936500  1
  P  P38  1  0.23438150  0.42633950  0.61480500  1
  P  P39  1  0.29153800  0.69130000  0.55840200  1
  P  P40  1  0.70973350  0.30836050  0.44035200  1
  P  P41  1  0.76526450  0.57282250  0.38451100  1
  P  P42  1  0.03457700  0.28490700  0.35991800  1
  P  P43  1  0.99969200  0.65394500  0.25064600  1
  P  P44  1  0.00000250  0.97526950  0.25014600  1
  P  P45  1  0.95210450  0.28642250  0.14936500  1
  P  P46  1  0.23438150  0.57366050  0.11480500  1
  P  P47  1  0.29153800  0.30870000  0.05840200  1
  S  S48  1  0.21309450  0.97180150  0.99517400  1
  S  S49  1  0.56294050  0.27622650  0.98980200  1
  S  S50  1  0.62782850  0.64098750  0.97966000  1
  S  S51  1  0.05019550  0.96473950  0.87285300  1
  S  S52  1  0.28774550  0.81470650  0.90789100  1
  S  S53  1  0.70981700  0.81234000  0.93365600  1
  S  S54  1  0.35838150  0.97396050  0.88845700  1
  S  S55  1  0.50907400  0.90621300  0.88771300  1
  S  S56  1  0.56262200  0.10721900  0.88927700  1
  S  S57  1  0.22945350  0.13931650  0.80956400  1
  S  S58  1  0.42504950  0.58693950  0.79967400  1
  S  S59  1  0.43125000  0.23886000  0.80309300  1
  S  S60  1  0.20614750  0.95357350  0.74700600  1
  S  S61  1  0.41479350  0.78486950  0.76236600  1
  S  S62  1  0.58592150  0.78711150  0.74042400  1
  S  S63  1  0.79379850  0.95274850  0.75223600  1
  S  S64  1  0.56009400  0.24437100  0.69078400  1
  S  S65  1  0.57493300  0.58721500  0.70086000  1
  S  S66  1  0.77238800  0.13960500  0.69030500  1
  S  S67  1  0.60748300  0.16516700  0.63109400  1
  S  S68  1  0.43477500  0.10516900  0.61101900  1
  S  S69  1  0.48903250  0.90452850  0.61143100  1
  S  S70  1  0.64164700  0.97385400  0.61158800  1
  S  S71  1  0.29299200  0.81201000  0.56271700  1
  S  S72  1  0.71116450  0.81386450  0.59150500  1
  S  S73  1  0.95013550  0.96493750  0.62707900  1
  S  S74  1  0.21309450  0.02819850  0.49517400  1
  S  S75  1  0.37340850  0.64025050  0.51992300  1
  S  S76  1  0.42383000  0.27625300  0.52069900  1
  S  S77  1  0.56294050  0.72377350  0.48980200  1
  S  S78  1  0.62782850  0.35901250  0.47966000  1
  S  S79  1  0.78652350  0.97184050  0.50463900  1
  S  S80  1  0.05019550  0.03526050  0.37285300  1
  S  S81  1  0.28774550  0.18529350  0.40789100  1
  S  S82  1  0.70981700  0.18766000  0.43365600  1
  S  S83  1  0.35838150  0.02603950  0.38845700  1
  S  S84  1  0.50907400  0.09378700  0.38771300  1
  S  S85  1  0.56262200  0.89278100  0.38927700  1
  S  S86  1  0.22945350  0.86068350  0.30956400  1
  S  S87  1  0.42504950  0.41306050  0.29967400  1
  S  S88  1  0.43125000  0.76114000  0.30309300  1
  S  S89  1  0.20614750  0.04642650  0.24700600  1
  S  S90  1  0.41479350  0.21513050  0.26236600  1
  S  S91  1  0.58592150  0.21288850  0.24042400  1
  S  S92  1  0.79379850  0.04725150  0.25223600  1
  S  S93  1  0.56009400  0.75562900  0.19078400  1
  S  S94  1  0.57493300  0.41278500  0.20086000  1
  S  S95  1  0.77238800  0.86039500  0.19030500  1
  S  S96  1  0.60748300  0.83483300  0.13109400  1
  S  S97  1  0.43477500  0.89483100  0.11101900  1
  S  S98  1  0.48903250  0.09547150  0.11143100  1
  S  S99  1  0.64164700  0.02614600  0.11158800  1
  S  S100  1  0.29299200  0.18799000  0.06271700  1
  S  S101  1  0.71116450  0.18613550  0.09150500  1
  S  S102  1  0.95013550  0.03506250  0.12707900  1
  S  S103  1  0.37340850  0.35974950  0.01992300  1
  S  S104  1  0.42383000  0.72374700  0.02069900  1
  S  S105  1  0.78652350  0.02815950  0.00463900  1
  S  S106  1  0.71309450  0.47180150  0.99517400  1
  S  S107  1  0.06294050  0.77622650  0.98980200  1
  S  S108  1  0.12782850  0.14098750  0.97966000  1
  S  S109  1  0.55019550  0.46473950  0.87285300  1
  S  S110  1  0.78774550  0.31470650  0.90789100  1
  S  S111  1  0.20981700  0.31234000  0.93365600  1
  S  S112  1  0.85838150  0.47396050  0.88845700  1
  S  S113  1  0.00907400  0.40621300  0.88771300  1
  S  S114  1  0.06262200  0.60721900  0.88927700  1
  S  S115  1  0.72945350  0.63931650  0.80956400  1
  S  S116  1  0.92504950  0.08693950  0.79967400  1
  S  S117  1  0.93125000  0.73886000  0.80309300  1
  S  S118  1  0.70614750  0.45357350  0.74700600  1
  S  S119  1  0.91479350  0.28486950  0.76236600  1
  S  S120  1  0.08592150  0.28711150  0.74042400  1
  S  S121  1  0.29379850  0.45274850  0.75223600  1
  S  S122  1  0.06009400  0.74437100  0.69078400  1
  S  S123  1  0.07493300  0.08721500  0.70086000  1
  S  S124  1  0.27238800  0.63960500  0.69030500  1
  S  S125  1  0.10748300  0.66516700  0.63109400  1
  S  S126  1  0.93477500  0.60516900  0.61101900  1
  S  S127  1  0.98903250  0.40452850  0.61143100  1
  S  S128  1  0.14164700  0.47385400  0.61158800  1
  S  S129  1  0.79299200  0.31201000  0.56271700  1
  S  S130  1  0.21116450  0.31386450  0.59150500  1
  S  S131  1  0.45013550  0.46493750  0.62707900  1
  S  S132  1  0.71309450  0.52819850  0.49517400  1
  S  S133  1  0.87340850  0.14025050  0.51992300  1
  S  S134  1  0.92383000  0.77625300  0.52069900  1
  S  S135  1  0.06294050  0.22377350  0.48980200  1
  S  S136  1  0.12782850  0.85901250  0.47966000  1
  S  S137  1  0.28652350  0.47184050  0.50463900  1
  S  S138  1  0.55019550  0.53526050  0.37285300  1
  S  S139  1  0.78774550  0.68529350  0.40789100  1
  S  S140  1  0.20981700  0.68766000  0.43365600  1
  S  S141  1  0.85838150  0.52603950  0.38845700  1
  S  S142  1  0.00907400  0.59378700  0.38771300  1
  S  S143  1  0.06262200  0.39278100  0.38927700  1
  S  S144  1  0.72945350  0.36068350  0.30956400  1
  S  S145  1  0.92504950  0.91306050  0.29967400  1
  S  S146  1  0.93125000  0.26114000  0.30309300  1
  S  S147  1  0.70614750  0.54642650  0.24700600  1
  S  S148  1  0.91479350  0.71513050  0.26236600  1
  S  S149  1  0.08592150  0.71288850  0.24042400  1
  S  S150  1  0.29379850  0.54725150  0.25223600  1
  S  S151  1  0.06009400  0.25562900  0.19078400  1
  S  S152  1  0.07493300  0.91278500  0.20086000  1
  S  S153  1  0.27238800  0.36039500  0.19030500  1
  S  S154  1  0.10748300  0.33483300  0.13109400  1
  S  S155  1  0.93477500  0.39483100  0.11101900  1
  S  S156  1  0.98903250  0.59547150  0.11143100  1
  S  S157  1  0.14164700  0.52614600  0.11158800  1
  S  S158  1  0.79299200  0.68799000  0.06271700  1
  S  S159  1  0.21116450  0.68613550  0.09150500  1
  S  S160  1  0.45013550  0.53506250  0.12707900  1
  S  S161  1  0.87340850  0.85974950  0.01992300  1
  S  S162  1  0.92383000  0.22374700  0.02069900  1
  S  S163  1  0.28652350  0.52815950  0.00463900  1
