# generated using pymatgen
data_P3CN4Cl7
_symmetry_space_group_name_H-M   'P 1'
_cell_length_a   10.60821500
_cell_length_b   13.00942400
_cell_length_c   10.77282679
_cell_angle_alpha   90.00000000
_cell_angle_beta   111.25773709
_cell_angle_gamma   90.00000000
_symmetry_Int_Tables_number   1
_chemical_formula_structural   P3CN4Cl7
_chemical_formula_sum   'P12 C4 N16 Cl28'
_cell_volume   1385.56475372
_cell_formula_units_Z   4
loop_
 _symmetry_equiv_pos_site_id
 _symmetry_equiv_pos_as_xyz
  1  'x, y, z'
loop_
 _atom_site_type_symbol
 _atom_site_label
 _atom_site_symmetry_multiplicity
 _atom_site_fract_x
 _atom_site_fract_y
 _atom_site_fract_z
 _atom_site_occupancy
  P  P0  1  0.27403800  0.35095500  0.26126900  1
  P  P1  1  0.42706300  0.39543700  0.75944800  1
  P  P2  1  0.45268000  0.29321600  0.52533800  1
  P  P3  1  0.04732000  0.79321600  0.47466200  1
  P  P4  1  0.22596200  0.85095500  0.73873100  1
  P  P5  1  0.72596200  0.64904500  0.73873100  1
  P  P6  1  0.54732000  0.70678400  0.47466200  1
  P  P7  1  0.92706300  0.10456300  0.75944800  1
  P  P8  1  0.77403800  0.14904500  0.26126900  1
  P  P9  1  0.07293700  0.89543700  0.24055200  1
  P  P10  1  0.95268000  0.20678400  0.52533800  1
  P  P11  1  0.57293700  0.60456300  0.24055200  1
  C  C12  1  0.33306700  0.52099900  0.15117700  1
  C  C13  1  0.66693300  0.47900100  0.84882300  1
  C  C14  1  0.83306700  0.97900100  0.15117700  1
  C  C15  1  0.16693300  0.02099900  0.84882300  1
  N  N16  1  0.89102300  0.13739100  0.60933500  1
  N  N17  1  0.91642200  0.90709400  0.14260900  1
  N  N18  1  0.85928800  0.22519300  0.37464200  1
  N  N19  1  0.64071200  0.72519300  0.62535800  1
  N  N20  1  0.10897700  0.86260900  0.39066500  1
  N  N21  1  0.13916400  0.94420700  0.76351300  1
  N  N22  1  0.35928800  0.27480700  0.37464200  1
  N  N23  1  0.08357800  0.09290600  0.85739100  1
  N  N24  1  0.63916400  0.55579300  0.76351300  1
  N  N25  1  0.36083600  0.44420700  0.23648700  1
  N  N26  1  0.60897700  0.63739100  0.39066500  1
  N  N27  1  0.39102300  0.36260900  0.60933500  1
  N  N28  1  0.58357800  0.40709400  0.85739100  1
  N  N29  1  0.86083600  0.05579300  0.23648700  1
  N  N30  1  0.41642200  0.59290600  0.14260900  1
  N  N31  1  0.14071200  0.77480700  0.62535800  1
  Cl  Cl32  1  0.38828500  0.90460300  0.70045000  1
  Cl  Cl33  1  0.63426200  0.34957200  0.53583200  1
  Cl  Cl34  1  0.81050700  0.73505300  0.90311600  1
  Cl  Cl35  1  0.18949300  0.26494700  0.09688400  1
  Cl  Cl36  1  0.32005600  0.52307800  0.75960900  1
  Cl  Cl37  1  0.67994400  0.47692200  0.24039100  1
  Cl  Cl38  1  0.13426200  0.15042800  0.53583200  1
  Cl  Cl39  1  0.61171500  0.09539700  0.29955000  1
  Cl  Cl40  1  0.11171500  0.40460300  0.29955000  1
  Cl  Cl41  1  0.33226200  0.03382900  0.96919800  1
  Cl  Cl42  1  0.66773800  0.96617100  0.03080200  1
  Cl  Cl43  1  0.31050700  0.76494700  0.90311600  1
  Cl  Cl44  1  0.14748200  0.79233600  0.14604500  1
  Cl  Cl45  1  0.85251800  0.20766400  0.85395500  1
  Cl  Cl46  1  0.88828500  0.59539700  0.70045000  1
  Cl  Cl47  1  0.35251800  0.29233600  0.85395500  1
  Cl  Cl48  1  0.83226200  0.46617100  0.96919800  1
  Cl  Cl49  1  0.50086400  0.15144500  0.60637700  1
  Cl  Cl50  1  0.64748200  0.70766400  0.14604500  1
  Cl  Cl51  1  0.16773800  0.53382900  0.03080200  1
  Cl  Cl52  1  0.17994400  0.02307800  0.24039100  1
  Cl  Cl53  1  0.86573800  0.84957200  0.46416800  1
  Cl  Cl54  1  0.36573800  0.65042800  0.46416800  1
  Cl  Cl55  1  0.68949300  0.23505300  0.09688400  1
  Cl  Cl56  1  0.49913600  0.84855500  0.39362300  1
  Cl  Cl57  1  0.82005600  0.97692200  0.75960900  1
  Cl  Cl58  1  0.99913600  0.65144500  0.39362300  1
  Cl  Cl59  1  0.00086400  0.34855500  0.60637700  1
