# generated using pymatgen
data_BaNb2O6
_symmetry_space_group_name_H-M   'P 1'
_cell_length_a   3.97929800
_cell_length_b   6.23495100
_cell_length_c   10.72756600
_cell_angle_alpha   90.00000000
_cell_angle_beta   90.00000000
_cell_angle_gamma   90.00000000
_symmetry_Int_Tables_number   1
_chemical_formula_structural   BaNb2O6
_chemical_formula_sum   'Ba2 Nb4 O12'
_cell_volume   266.15872260
_cell_formula_units_Z   2
loop_
 _symmetry_equiv_pos_site_id
 _symmetry_equiv_pos_as_xyz
  1  'x, y, z'
loop_
 _atom_site_type_symbol
 _atom_site_label
 _atom_site_symmetry_multiplicity
 _atom_site_fract_x
 _atom_site_fract_y
 _atom_site_fract_z
 _atom_site_occupancy
  Ba  Ba0  1  0.50000000  0.31227900  0.75000000  1
  Ba  Ba1  1  0.50000000  0.68772100  0.25000000  1
  Nb  Nb2  1  0.00000000  0.21513300  0.07822100  1
  Nb  Nb3  1  0.00000000  0.21513300  0.42177900  1
  Nb  Nb4  1  0.00000000  0.78486700  0.57822100  1
  Nb  Nb5  1  0.00000000  0.78486700  0.92177900  1
  O  O6  1  0.50000000  0.22118100  0.41306900  1
  O  O7  1  0.00000000  0.89540300  0.39291900  1
  O  O8  1  0.00000000  0.89540300  0.10708100  1
  O  O9  1  0.50000000  0.22118100  0.08693100  1
  O  O10  1  0.00000000  0.10459700  0.60708100  1
  O  O11  1  0.50000000  0.77881900  0.58693100  1
  O  O12  1  0.50000000  0.77881900  0.91306900  1
  O  O13  1  0.00000000  0.34386600  0.25000000  1
  O  O14  1  0.00000000  0.50000000  0.00000000  1
  O  O15  1  0.00000000  0.10459700  0.89291900  1
  O  O16  1  0.00000000  0.65613400  0.75000000  1
  O  O17  1  0.00000000  0.50000000  0.50000000  1
