# generated using pymatgen
data_LiCr2(PO4)3
_symmetry_space_group_name_H-M   'P 1'
_cell_length_a   14.74011000
_cell_length_b   8.50664600
_cell_length_c   8.60979907
_cell_angle_alpha   90.00000000
_cell_angle_beta   124.04808321
_cell_angle_gamma   90.00000000
_symmetry_Int_Tables_number   1
_chemical_formula_structural   LiCr2(PO4)3
_chemical_formula_sum   'Li4 Cr8 P12 O48'
_cell_volume   894.49982047
_cell_formula_units_Z   4
loop_
 _symmetry_equiv_pos_site_id
 _symmetry_equiv_pos_as_xyz
  1  'x, y, z'
loop_
 _atom_site_type_symbol
 _atom_site_label
 _atom_site_symmetry_multiplicity
 _atom_site_fract_x
 _atom_site_fract_y
 _atom_site_fract_z
 _atom_site_occupancy
  Li  Li0  1  0.30733400  0.33845000  0.44436300  1
  Li  Li1  1  0.30733400  0.66155000  0.94436300  1
  Li  Li2  1  0.80733400  0.83845000  0.44436300  1
  Li  Li3  1  0.80733400  0.16155000  0.94436300  1
  Cr  Cr4  1  0.39531750  0.75555450  0.42445500  1
  Cr  Cr5  1  0.39531750  0.24444550  0.92445500  1
  Cr  Cr6  1  0.10034600  0.25096300  0.06872300  1
  Cr  Cr7  1  0.10034600  0.74903700  0.56872300  1
  Cr  Cr8  1  0.89531750  0.25555450  0.42445500  1
  Cr  Cr9  1  0.89531750  0.74444550  0.92445500  1
  Cr  Cr10  1  0.60034600  0.75096300  0.06872300  1
  Cr  Cr11  1  0.60034600  0.24903700  0.56872300  1
  P  P12  1  0.35986500  0.88866300  0.75711600  1
  P  P13  1  0.35986500  0.11133700  0.25711600  1
  P  P14  1  0.13867500  0.38757500  0.74069100  1
  P  P15  1  0.13867500  0.61242500  0.24069100  1
  P  P16  1  0.00010900  0.96151400  0.74692800  1
  P  P17  1  0.00010900  0.03848600  0.24692800  1
  P  P18  1  0.85986500  0.38866300  0.75711600  1
  P  P19  1  0.85986500  0.61133700  0.25711600  1
  P  P20  1  0.63867500  0.88757500  0.74069100  1
  P  P21  1  0.63867500  0.11242500  0.24069100  1
  P  P22  1  0.50010900  0.46151400  0.74692800  1
  P  P23  1  0.50010900  0.53848600  0.24692800  1
  O  O24  1  0.41000600  0.64466700  0.23393300  1
  O  O25  1  0.34546650  0.06814350  0.76206600  1
  O  O26  1  0.08717650  0.85556550  0.75038200  1
  O  O27  1  0.25755650  0.80383550  0.72076500  1
  O  O28  1  0.43381300  0.55491300  0.55983300  1
  O  O29  1  0.06078750  0.05992850  0.92351200  1
  O  O30  1  0.11842500  0.64029000  0.39569300  1
  O  O31  1  0.06078750  0.94007150  0.42351200  1
  O  O32  1  0.34546650  0.93185650  0.26206600  1
  O  O33  1  0.38125750  0.86095350  0.60613100  1
  O  O34  1  0.08717650  0.14443450  0.25038200  1
  O  O35  1  0.15899300  0.43395900  0.24141700  1
  O  O36  1  0.15899300  0.56604100  0.74141700  1
  O  O37  1  0.24256250  0.69638950  0.28763700  1
  O  O38  1  0.04417150  0.67290750  0.04828900  1
  O  O39  1  0.04417150  0.32709250  0.54828900  1
  O  O40  1  0.41000600  0.35533300  0.73393300  1
  O  O41  1  0.25755650  0.19616450  0.22076500  1
  O  O42  1  0.45147600  0.82174300  0.94966900  1
  O  O43  1  0.45147600  0.17825700  0.44966900  1
  O  O44  1  0.24256250  0.30361050  0.78763700  1
  O  O45  1  0.11842500  0.35971000  0.89569300  1
  O  O46  1  0.38125750  0.13904650  0.10613100  1
  O  O47  1  0.43381300  0.44508700  0.05983300  1
  O  O48  1  0.91000600  0.14466700  0.23393300  1
  O  O49  1  0.84546650  0.56814350  0.76206600  1
  O  O50  1  0.58717650  0.35556550  0.75038200  1
  O  O51  1  0.75755650  0.30383550  0.72076500  1
  O  O52  1  0.93381300  0.05491300  0.55983300  1
  O  O53  1  0.56078750  0.55992850  0.92351200  1
  O  O54  1  0.61842500  0.14029000  0.39569300  1
  O  O55  1  0.56078750  0.44007150  0.42351200  1
  O  O56  1  0.84546650  0.43185650  0.26206600  1
  O  O57  1  0.88125750  0.36095350  0.60613100  1
  O  O58  1  0.58717650  0.64443450  0.25038200  1
  O  O59  1  0.65899300  0.93395900  0.24141700  1
  O  O60  1  0.65899300  0.06604100  0.74141700  1
  O  O61  1  0.74256250  0.19638950  0.28763700  1
  O  O62  1  0.54417150  0.17290750  0.04828900  1
  O  O63  1  0.54417150  0.82709250  0.54828900  1
  O  O64  1  0.91000600  0.85533300  0.73393300  1
  O  O65  1  0.75755650  0.69616450  0.22076500  1
  O  O66  1  0.95147600  0.32174300  0.94966900  1
  O  O67  1  0.95147600  0.67825700  0.44966900  1
  O  O68  1  0.74256250  0.80361050  0.78763700  1
  O  O69  1  0.61842500  0.85971000  0.89569300  1
  O  O70  1  0.88125750  0.63904650  0.10613100  1
  O  O71  1  0.93381300  0.94508700  0.05983300  1
