# generated using pymatgen
data_V2P2O9
_symmetry_space_group_name_H-M   'P 1'
_cell_length_a   7.52725000
_cell_length_b   8.54910300
_cell_length_c   9.69204300
_cell_angle_alpha   90.00000000
_cell_angle_beta   90.00000000
_cell_angle_gamma   90.00000000
_symmetry_Int_Tables_number   1
_chemical_formula_structural   V2P2O9
_chemical_formula_sum   'V8 P8 O36'
_cell_volume   623.69494212
_cell_formula_units_Z   4
loop_
 _symmetry_equiv_pos_site_id
 _symmetry_equiv_pos_as_xyz
  1  'x, y, z'
loop_
 _atom_site_type_symbol
 _atom_site_label
 _atom_site_symmetry_multiplicity
 _atom_site_fract_x
 _atom_site_fract_y
 _atom_site_fract_z
 _atom_site_occupancy
  V  V0  1  0.53279600  0.69139900  0.49574800  1
  V  V1  1  0.96720400  0.19139900  0.99574800  1
  V  V2  1  0.46720400  0.19139900  0.00425200  1
  V  V3  1  0.46720400  0.30860100  0.50425200  1
  V  V4  1  0.03279600  0.69139900  0.50425200  1
  V  V5  1  0.96720400  0.30860100  0.49574800  1
  V  V6  1  0.03279600  0.80860100  0.00425200  1
  V  V7  1  0.53279600  0.80860100  0.99574800  1
  P  P8  1  0.54382300  0.50091900  0.79780400  1
  P  P9  1  0.95617700  0.00091900  0.29780400  1
  P  P10  1  0.45617700  0.00091900  0.70219600  1
  P  P11  1  0.45617700  0.49908100  0.20219600  1
  P  P12  1  0.04382300  0.50091900  0.20219600  1
  P  P13  1  0.54382300  0.99908100  0.29780400  1
  P  P14  1  0.04382300  0.99908100  0.70219600  1
  P  P15  1  0.95617700  0.49908100  0.79780400  1
  O  O16  1  0.02886100  0.34642800  0.85436700  1
  O  O17  1  0.97113900  0.65357200  0.14563300  1
  O  O18  1  0.47113900  0.84642800  0.35436700  1
  O  O19  1  0.74609800  0.18129300  0.97356400  1
  O  O20  1  0.97595400  0.50099100  0.63676300  1
  O  O21  1  0.96399200  0.35515800  0.13969300  1
  O  O22  1  0.74609800  0.31870700  0.47356400  1
  O  O23  1  0.02404600  0.00099100  0.86323700  1
  O  O24  1  0.52886100  0.15357200  0.64563300  1
  O  O25  1  0.24609800  0.18129300  0.02643600  1
  O  O26  1  0.53600800  0.85515800  0.63969300  1
  O  O27  1  0.97595400  0.99900900  0.13676300  1
  O  O28  1  0.03600800  0.85515800  0.36030700  1
  O  O29  1  0.75390200  0.68129300  0.47356400  1
  O  O30  1  0.53600800  0.64484200  0.13969300  1
  O  O31  1  0.97113900  0.84642800  0.64563300  1
  O  O32  1  0.46399200  0.14484200  0.36030700  1
  O  O33  1  0.25000000  0.00000000  0.66807300  1
  O  O34  1  0.25000000  0.50000000  0.16807300  1
  O  O35  1  0.02404600  0.49900900  0.36323700  1
  O  O36  1  0.52404600  0.00099100  0.13676300  1
  O  O37  1  0.96399200  0.14484200  0.63969300  1
  O  O38  1  0.75000000  0.00000000  0.33192700  1
  O  O39  1  0.25390200  0.68129300  0.52643600  1
  O  O40  1  0.25390200  0.81870700  0.02643600  1
  O  O41  1  0.47113900  0.65357200  0.85436700  1
  O  O42  1  0.46399200  0.35515800  0.86030700  1
  O  O43  1  0.52886100  0.34642800  0.14563300  1
  O  O44  1  0.47595400  0.99900900  0.86323700  1
  O  O45  1  0.03600800  0.64484200  0.86030700  1
  O  O46  1  0.02886100  0.15357200  0.35436700  1
  O  O47  1  0.75390200  0.81870700  0.97356400  1
  O  O48  1  0.47595400  0.50099100  0.36323700  1
  O  O49  1  0.24609800  0.31870700  0.52643600  1
  O  O50  1  0.52404600  0.49900900  0.63676300  1
  O  O51  1  0.75000000  0.50000000  0.83192700  1
