# generated using pymatgen
data_La2YbS4
_symmetry_space_group_name_H-M   'P 1'
_cell_length_a   8.65895400
_cell_length_b   8.65895400
_cell_length_c   8.71439000
_cell_angle_alpha   90.00000000
_cell_angle_beta   90.00000000
_cell_angle_gamma   90.00000000
_symmetry_Int_Tables_number   1
_chemical_formula_structural   La2YbS4
_chemical_formula_sum   'La8 Yb4 S16'
_cell_volume   653.38304005
_cell_formula_units_Z   4
loop_
 _symmetry_equiv_pos_site_id
 _symmetry_equiv_pos_as_xyz
  1  'x, y, z'
loop_
 _atom_site_type_symbol
 _atom_site_label
 _atom_site_symmetry_multiplicity
 _atom_site_fract_x
 _atom_site_fract_y
 _atom_site_fract_z
 _atom_site_occupancy
  La  La0  1  0.36917000  0.75000000  0.62500000  1
  La  La1  1  0.25000000  0.36917000  0.37500000  1
  La  La2  1  0.13083000  0.75000000  0.12500000  1
  La  La3  1  0.25000000  0.13083000  0.87500000  1
  La  La4  1  0.86917000  0.25000000  0.12500000  1
  La  La5  1  0.75000000  0.86917000  0.87500000  1
  La  La6  1  0.63083000  0.25000000  0.62500000  1
  La  La7  1  0.75000000  0.63083000  0.37500000  1
  Yb  Yb8  1  0.50000000  0.00000000  0.25000000  1
  Yb  Yb9  1  0.00000000  0.00000000  0.50000000  1
  Yb  Yb10  1  0.00000000  0.50000000  0.75000000  1
  Yb  Yb11  1  0.50000000  0.50000000  0.00000000  1
  S  S12  1  0.31982350  0.07237250  0.55218350  1
  S  S13  1  0.18017650  0.07237250  0.19781650  1
  S  S14  1  0.18017650  0.42762750  0.05218350  1
  S  S15  1  0.92762750  0.31982350  0.44781650  1
  S  S16  1  0.57237250  0.31982350  0.30218350  1
  S  S17  1  0.57237250  0.18017650  0.94781650  1
  S  S18  1  0.92762750  0.18017650  0.80218350  1
  S  S19  1  0.31982350  0.42762750  0.69781650  1
  S  S20  1  0.81982350  0.57237250  0.05218350  1
  S  S21  1  0.68017650  0.57237250  0.69781650  1
  S  S22  1  0.68017650  0.92762750  0.55218350  1
  S  S23  1  0.42762750  0.81982350  0.94781650  1
  S  S24  1  0.07237250  0.81982350  0.80218350  1
  S  S25  1  0.07237250  0.68017650  0.44781650  1
  S  S26  1  0.42762750  0.68017650  0.30218350  1
  S  S27  1  0.81982350  0.92762750  0.19781650  1
