# generated using pymatgen
data_La4B14O27
_symmetry_space_group_name_H-M   'P 1'
_cell_length_a   11.30259800
_cell_length_b   6.48210600
_cell_length_c   25.61675891
_cell_angle_alpha   90.00000000
_cell_angle_beta   100.26217652
_cell_angle_gamma   90.00000000
_symmetry_Int_Tables_number   1
_chemical_formula_structural   La4B14O27
_chemical_formula_sum   'La16 B56 O108'
_cell_volume   1846.77910039
_cell_formula_units_Z   4
loop_
 _symmetry_equiv_pos_site_id
 _symmetry_equiv_pos_as_xyz
  1  'x, y, z'
loop_
 _atom_site_type_symbol
 _atom_site_label
 _atom_site_symmetry_multiplicity
 _atom_site_fract_x
 _atom_site_fract_y
 _atom_site_fract_z
 _atom_site_occupancy
  La  La0  1  0.59870300  0.74855000  0.94439300  1
  La  La1  1  0.67072950  0.58487350  0.68455300  1
  La  La2  1  0.59870300  0.25145000  0.44439300  1
  La  La3  1  0.32927050  0.41512650  0.31544700  1
  La  La4  1  0.17072950  0.91512650  0.18455300  1
  La  La5  1  0.40129700  0.25145000  0.05560700  1
  La  La6  1  0.82927050  0.08487350  0.81544700  1
  La  La7  1  0.40129700  0.74855000  0.55560700  1
  La  La8  1  0.09870300  0.24855000  0.94439300  1
  La  La9  1  0.17072950  0.08487350  0.68455300  1
  La  La10  1  0.09870300  0.75145000  0.44439300  1
  La  La11  1  0.82927050  0.91512650  0.31544700  1
  La  La12  1  0.67072950  0.41512650  0.18455300  1
  La  La13  1  0.90129700  0.75145000  0.05560700  1
  La  La14  1  0.32927050  0.58487350  0.81544700  1
  La  La15  1  0.90129700  0.24855000  0.55560700  1
  B  B16  1  0.40943950  0.23385450  0.20547700  1
  B  B17  1  0.60550550  0.23945550  0.94523100  1
  B  B18  1  0.33158200  0.35800800  0.45366500  1
  B  B19  1  0.40082700  0.56736600  0.14957600  1
  B  B20  1  0.39449450  0.76054450  0.05476900  1
  B  B21  1  0.62149850  0.16979950  0.57845800  1
  B  B22  1  0.40943950  0.76614550  0.70547700  1
  B  B23  1  0.78150550  0.57611250  0.82449100  1
  B  B24  1  0.16841800  0.85800800  0.04633500  1
  B  B25  1  0.50464600  0.09899900  0.68706800  1
  B  B26  1  0.59056050  0.76614550  0.79452300  1
  B  B27  1  0.49535400  0.90100100  0.31293200  1
  B  B28  1  0.59917300  0.56736600  0.35042400  1
  B  B29  1  0.66841800  0.64199200  0.54633500  1
  B  B30  1  0.50464600  0.90100100  0.18706800  1
  B  B31  1  0.59917300  0.43263400  0.85042400  1
  B  B32  1  0.28150550  0.92388750  0.32449100  1
  B  B33  1  0.59056050  0.23385450  0.29452300  1
  B  B34  1  0.60550550  0.76054450  0.44523100  1
  B  B35  1  0.37850150  0.83020050  0.42154200  1
  B  B36  1  0.87850150  0.66979950  0.92154200  1
  B  B37  1  0.49535400  0.09899900  0.81293200  1
  B  B38  1  0.83158200  0.14199200  0.95366500  1
  B  B39  1  0.39449450  0.23945550  0.55476900  1
  B  B40  1  0.21849450  0.42388750  0.17550900  1
  B  B41  1  0.12149850  0.33020050  0.07845800  1
  B  B42  1  0.40082700  0.43263400  0.64957600  1
  B  B43  1  0.71849450  0.07611250  0.67550900  1
  B  B44  1  0.90943950  0.73385450  0.20547700  1
  B  B45  1  0.10550550  0.73945550  0.94523100  1
  B  B46  1  0.83158200  0.85800800  0.45366500  1
  B  B47  1  0.90082700  0.06736600  0.14957600  1
  B  B48  1  0.89449450  0.26054450  0.05476900  1
  B  B49  1  0.12149850  0.66979950  0.57845800  1
  B  B50  1  0.90943950  0.26614550  0.70547700  1
  B  B51  1  0.28150550  0.07611250  0.82449100  1
  B  B52  1  0.66841800  0.35800800  0.04633500  1
  B  B53  1  0.00464600  0.59899900  0.68706800  1
  B  B54  1  0.09056050  0.26614550  0.79452300  1
  B  B55  1  0.99535400  0.40100100  0.31293200  1
  B  B56  1  0.09917300  0.06736600  0.35042400  1
  B  B57  1  0.16841800  0.14199200  0.54633500  1
  B  B58  1  0.00464600  0.40100100  0.18706800  1
  B  B59  1  0.09917300  0.93263400  0.85042400  1
  B  B60  1  0.78150550  0.42388750  0.32449100  1
  B  B61  1  0.09056050  0.73385450  0.29452300  1
  B  B62  1  0.10550550  0.26054450  0.44523100  1
  B  B63  1  0.87850150  0.33020050  0.42154200  1
  B  B64  1  0.37850150  0.16979950  0.92154200  1
  B  B65  1  0.99535400  0.59899900  0.81293200  1
  B  B66  1  0.33158200  0.64199200  0.95366500  1
  B  B67  1  0.89449450  0.73945550  0.55476900  1
  B  B68  1  0.71849450  0.92388750  0.17550900  1
  B  B69  1  0.62149850  0.83020050  0.07845800  1
  B  B70  1  0.90082700  0.93263400  0.64957600  1
  B  B71  1  0.21849450  0.57611250  0.67550900  1
  O  O72  1  0.50111150  0.89809050  0.07383200  1
  O  O73  1  0.38991100  0.00986100  0.30877000  1
  O  O74  1  0.30757650  0.79377250  0.37244100  1
  O  O75  1  0.50000000  0.70158500  0.75000000  1
  O  O76  1  0.61319400  0.59307900  0.40837900  1
  O  O77  1  0.29086100  0.09936200  0.54889400  1
  O  O78  1  0.50292850  0.69158550  0.17864300  1
  O  O79  1  0.21386950  0.78523350  0.28301600  1
  O  O80  1  0.59789300  0.99243700  0.80680300  1
  O  O81  1  0.38680600  0.59307900  0.09162100  1
  O  O82  1  0.19242350  0.29377250  0.12755900  1
  O  O83  1  0.40210700  0.00756300  0.19319700  1
  O  O84  1  0.38291750  0.35026750  0.40970400  1
  O  O85  1  0.50111150  0.10190950  0.57383200  1
  O  O86  1  0.61319400  0.40692100  0.90837900  1
  O  O87  1  0.50000000  0.29841500  0.25000000  1
  O  O88  1  0.70913900  0.90063800  0.45110600  1
  O  O89  1  0.88991100  0.49013900  0.80877000  1
  O  O90  1  0.59092100  0.66702700  0.49744000  1
  O  O91  1  0.20907400  0.10794200  0.33027600  1
  O  O92  1  0.56271100  0.34595600  0.34179800  1
  O  O93  1  0.78613050  0.21476650  0.71698400  1
  O  O94  1  0.61708250  0.64973250  0.59029600  1
  O  O95  1  0.50292850  0.30841450  0.67864300  1
  O  O96  1  0.29092600  0.60794200  0.16972400  1
  O  O97  1  0.80757650  0.70622750  0.87244100  1
  O  O98  1  0.61008900  0.99013900  0.69123000  1
  O  O99  1  0.49888850  0.89809050  0.42616800  1
  O  O100  1  0.38680600  0.40692100  0.59162100  1
  O  O101  1  0.49888850  0.10190950  0.92616800  1
  O  O102  1  0.40907900  0.66702700  0.00256000  1
  O  O103  1  0.40907900  0.33297300  0.50256000  1
  O  O104  1  0.59092100  0.33297300  0.99744000  1
  O  O105  1  0.70907400  0.39205800  0.83027600  1
  O  O106  1  0.71386950  0.71476650  0.78301600  1
  O  O107  1  0.49707150  0.30841450  0.82135700  1
  O  O108  1  0.29086100  0.90063800  0.04889400  1
  O  O109  1  0.40210700  0.99243700  0.69319700  1
  O  O110  1  0.49707150  0.69158550  0.32135700  1
  O  O111  1  0.88291750  0.14973250  0.90970400  1
  O  O112  1  0.70913900  0.09936200  0.95110600  1
  O  O113  1  0.43728900  0.65404400  0.65820200  1
  O  O114  1  0.69242350  0.20622750  0.62755900  1
  O  O115  1  0.28613050  0.28523350  0.21698400  1
  O  O116  1  0.82785350  0.70542650  0.96462000  1
  O  O117  1  0.32785350  0.79457350  0.46462000  1
  O  O118  1  0.11708250  0.85026750  0.09029600  1
  O  O119  1  0.59789300  0.00756300  0.30680300  1
  O  O120  1  0.67214650  0.20542650  0.53538000  1
  O  O121  1  0.79092600  0.89205800  0.66972400  1
  O  O122  1  0.56271100  0.65404400  0.84179800  1
  O  O123  1  0.43728900  0.34595600  0.15820200  1
  O  O124  1  0.11008900  0.50986100  0.19123000  1
  O  O125  1  0.17214650  0.29457350  0.03538000  1
  O  O126  1  0.00111150  0.39809050  0.07383200  1
  O  O127  1  0.88991100  0.50986100  0.30877000  1
  O  O128  1  0.80757650  0.29377250  0.37244100  1
  O  O129  1  0.00000000  0.20158500  0.75000000  1
  O  O130  1  0.11319400  0.09307900  0.40837900  1
  O  O131  1  0.79086100  0.59936200  0.54889400  1
  O  O132  1  0.00292850  0.19158550  0.17864300  1
  O  O133  1  0.71386950  0.28523350  0.28301600  1
  O  O134  1  0.09789300  0.49243700  0.80680300  1
  O  O135  1  0.88680600  0.09307900  0.09162100  1
  O  O136  1  0.69242350  0.79377250  0.12755900  1
  O  O137  1  0.90210700  0.50756300  0.19319700  1
  O  O138  1  0.88291750  0.85026750  0.40970400  1
  O  O139  1  0.00111150  0.60190950  0.57383200  1
  O  O140  1  0.11319400  0.90692100  0.90837900  1
  O  O141  1  0.00000000  0.79841500  0.25000000  1
  O  O142  1  0.20913900  0.40063800  0.45110600  1
  O  O143  1  0.38991100  0.99013900  0.80877000  1
  O  O144  1  0.09092100  0.16702700  0.49744000  1
  O  O145  1  0.70907400  0.60794200  0.33027600  1
  O  O146  1  0.06271100  0.84595600  0.34179800  1
  O  O147  1  0.28613050  0.71476650  0.71698400  1
  O  O148  1  0.11708250  0.14973250  0.59029600  1
  O  O149  1  0.00292850  0.80841450  0.67864300  1
  O  O150  1  0.79092600  0.10794200  0.16972400  1
  O  O151  1  0.30757650  0.20622750  0.87244100  1
  O  O152  1  0.11008900  0.49013900  0.69123000  1
  O  O153  1  0.99888850  0.39809050  0.42616800  1
  O  O154  1  0.88680600  0.90692100  0.59162100  1
  O  O155  1  0.99888850  0.60190950  0.92616800  1
  O  O156  1  0.90907900  0.16702700  0.00256000  1
  O  O157  1  0.90907900  0.83297300  0.50256000  1
  O  O158  1  0.09092100  0.83297300  0.99744000  1
  O  O159  1  0.20907400  0.89205800  0.83027600  1
  O  O160  1  0.21386950  0.21476650  0.78301600  1
  O  O161  1  0.99707150  0.80841450  0.82135700  1
  O  O162  1  0.79086100  0.40063800  0.04889400  1
  O  O163  1  0.90210700  0.49243700  0.69319700  1
  O  O164  1  0.99707150  0.19158550  0.32135700  1
  O  O165  1  0.38291750  0.64973250  0.90970400  1
  O  O166  1  0.20913900  0.59936200  0.95110600  1
  O  O167  1  0.93728900  0.15404400  0.65820200  1
  O  O168  1  0.19242350  0.70622750  0.62755900  1
  O  O169  1  0.78613050  0.78523350  0.21698400  1
  O  O170  1  0.32785350  0.20542650  0.96462000  1
  O  O171  1  0.82785350  0.29457350  0.46462000  1
  O  O172  1  0.61708250  0.35026750  0.09029600  1
  O  O173  1  0.09789300  0.50756300  0.30680300  1
  O  O174  1  0.17214650  0.70542650  0.53538000  1
  O  O175  1  0.29092600  0.39205800  0.66972400  1
  O  O176  1  0.06271100  0.15404400  0.84179800  1
  O  O177  1  0.93728900  0.84595600  0.15820200  1
  O  O178  1  0.61008900  0.00986100  0.19123000  1
  O  O179  1  0.67214650  0.79457350  0.03538000  1
