# generated using pymatgen
data_NaSn2(PO4)3
_symmetry_space_group_name_H-M   'P 1'
_cell_length_a   8.68436819
_cell_length_b   8.68436819
_cell_length_c   22.71728631
_cell_angle_alpha   90.00000000
_cell_angle_beta   90.00000000
_cell_angle_gamma   120.00000000
_symmetry_Int_Tables_number   1
_chemical_formula_structural   NaSn2(PO4)3
_chemical_formula_sum   'Na6 Sn12 P18 O72'
_cell_volume   1483.75959082
_cell_formula_units_Z   6
loop_
 _symmetry_equiv_pos_site_id
 _symmetry_equiv_pos_as_xyz
  1  'x, y, z'
loop_
 _atom_site_type_symbol
 _atom_site_label
 _atom_site_symmetry_multiplicity
 _atom_site_fract_x
 _atom_site_fract_y
 _atom_site_fract_z
 _atom_site_occupancy
  Na  Na0  1  0.00000000  0.00000000  0.00000000  1
  Na  Na1  1  0.33333333  0.66666667  0.16666667  1
  Na  Na2  1  0.66666667  0.33333333  0.33333333  1
  Na  Na3  1  1.00000000  0.00000000  0.50000000  1
  Na  Na4  1  0.33333333  0.66666667  0.66666667  1
  Na  Na5  1  0.66666667  0.33333333  0.83333333  1
  Sn  Sn6  1  0.66666667  0.33333333  0.18616033  1
  Sn  Sn7  1  0.00000000  0.00000000  0.14717300  1
  Sn  Sn8  1  0.33333333  0.66666667  0.31231867  1
  Sn  Sn9  1  0.33333333  0.66666667  0.02101467  1
  Sn  Sn10  1  0.33333333  0.66666667  0.51949367  1
  Sn  Sn11  1  0.66666667  0.33333333  0.48050633  1
  Sn  Sn12  1  0.00000000  0.00000000  0.64565200  1
  Sn  Sn13  1  0.00000000  0.00000000  0.35434800  1
  Sn  Sn14  1  0.00000000  0.00000000  0.85282700  1
  Sn  Sn15  1  0.33333333  0.66666667  0.81383967  1
  Sn  Sn16  1  0.66666667  0.33333333  0.97898533  1
  Sn  Sn17  1  0.66666667  0.33333333  0.68768133  1
  P  P18  1  0.37475967  0.04047233  0.08339433  1
  P  P19  1  0.95952767  0.33428733  0.08339433  1
  P  P20  1  0.29190700  0.29286100  0.24993900  1
  P  P21  1  0.70713900  0.99904600  0.24993900  1
  P  P22  1  0.66571267  0.62524033  0.08339433  1
  P  P23  1  0.00095400  0.70809300  0.24993900  1
  P  P24  1  0.04142633  0.37380567  0.41672767  1
  P  P25  1  0.62619433  0.66762067  0.41672767  1
  P  P26  1  0.95857367  0.62619433  0.58327233  1
  P  P27  1  0.37380567  0.33237933  0.58327233  1
  P  P28  1  0.33237933  0.95857367  0.41672767  1
  P  P29  1  0.66762067  0.04142633  0.58327233  1
  P  P30  1  0.70809300  0.70713900  0.75006100  1
  P  P31  1  0.29286100  0.00095400  0.75006100  1
  P  P32  1  0.62524033  0.95952767  0.91660567  1
  P  P33  1  0.04047233  0.66571267  0.91660567  1
  P  P34  1  0.99904600  0.29190700  0.75006100  1
  P  P35  1  0.33428733  0.37475967  0.91660567  1
  O  O36  1  0.15735400  0.48201200  0.08043500  1
  O  O37  1  0.51798800  0.67534200  0.08043500  1
  O  O38  1  0.32465800  0.84264600  0.08043500  1
  O  O39  1  0.50931267  0.85132133  0.25289833  1
  O  O40  1  0.14867867  0.65799133  0.25289833  1
  O  O41  1  0.34200867  0.49068733  0.25289833  1
  O  O42  1  0.81695533  0.53620867  0.24503167  1
  O  O43  1  0.46379133  0.28074667  0.24503167  1
  O  O44  1  0.71925333  0.18304467  0.24503167  1
  O  O45  1  0.84971133  0.79712467  0.08830167  1
  O  O46  1  0.20287533  0.05258667  0.08830167  1
  O  O47  1  0.94741333  0.15028867  0.08830167  1
  O  O48  1  0.78230767  0.95377933  0.19532633  1
  O  O49  1  0.17147167  0.21769233  0.19532633  1
  O  O50  1  0.04622067  0.82852833  0.19532633  1
  O  O51  1  0.88435900  0.37955400  0.13800700  1
  O  O52  1  0.49519500  0.11564100  0.13800700  1
  O  O53  1  0.62044600  0.50480500  0.13800700  1
  O  O54  1  0.46381000  0.13716500  0.02590100  1
  O  O55  1  0.67335500  0.53619000  0.02590100  1
  O  O56  1  0.86283500  0.32664500  0.02590100  1
  O  O57  1  0.20285667  0.19616833  0.30743233  1
  O  O58  1  0.99331167  0.79714333  0.30743233  1
  O  O59  1  0.80383167  0.00668833  0.30743233  1
  O  O60  1  0.82402067  0.81534533  0.41376833  1
  O  O61  1  0.18465467  0.00867533  0.41376833  1
  O  O62  1  0.99132467  0.17597933  0.41376833  1
  O  O63  1  0.17597933  0.18465467  0.58623167  1
  O  O64  1  0.81534533  0.99132467  0.58623167  1
  O  O65  1  0.00867533  0.82402067  0.58623167  1
  O  O66  1  0.48362200  0.86954200  0.57836500  1
  O  O67  1  0.13045800  0.61408000  0.57836500  1
  O  O68  1  0.38592000  0.51637800  0.57836500  1
  O  O69  1  0.51637800  0.13045800  0.42163500  1
  O  O70  1  0.86954200  0.38592000  0.42163500  1
  O  O71  1  0.61408000  0.48362200  0.42163500  1
  O  O72  1  0.44897433  0.28711267  0.52865967  1
  O  O73  1  0.83813833  0.55102567  0.52865967  1
  O  O74  1  0.71288733  0.16186167  0.52865967  1
  O  O75  1  0.55102567  0.71288733  0.47134033  1
  O  O76  1  0.16186167  0.44897433  0.47134033  1
  O  O77  1  0.28711267  0.83813833  0.47134033  1
  O  O78  1  0.13047667  0.47049833  0.35923433  1
  O  O79  1  0.34002167  0.86952333  0.35923433  1
  O  O80  1  0.52950167  0.65997833  0.35923433  1
  O  O81  1  0.86952333  0.52950167  0.64076567  1
  O  O82  1  0.65997833  0.13047667  0.64076567  1
  O  O83  1  0.47049833  0.34002167  0.64076567  1
  O  O84  1  0.49068733  0.14867867  0.74710167  1
  O  O85  1  0.85132133  0.34200867  0.74710167  1
  O  O86  1  0.65799133  0.50931267  0.74710167  1
  O  O87  1  0.84264600  0.51798800  0.91956500  1
  O  O88  1  0.48201200  0.32465800  0.91956500  1
  O  O89  1  0.67534200  0.15735400  0.91956500  1
  O  O90  1  0.15028867  0.20287533  0.91169833  1
  O  O91  1  0.79712467  0.94741333  0.91169833  1
  O  O92  1  0.05258667  0.84971133  0.91169833  1
  O  O93  1  0.18304467  0.46379133  0.75496833  1
  O  O94  1  0.53620867  0.71925333  0.75496833  1
  O  O95  1  0.28074667  0.81695533  0.75496833  1
  O  O96  1  0.11564100  0.62044600  0.86199300  1
  O  O97  1  0.50480500  0.88435900  0.86199300  1
  O  O98  1  0.37955400  0.49519500  0.86199300  1
  O  O99  1  0.21769233  0.04622067  0.80467367  1
  O  O100  1  0.82852833  0.78230767  0.80467367  1
  O  O101  1  0.95377933  0.17147167  0.80467367  1
  O  O102  1  0.79714333  0.80383167  0.69256767  1
  O  O103  1  0.00668833  0.20285667  0.69256767  1
  O  O104  1  0.19616833  0.99331167  0.69256767  1
  O  O105  1  0.53619000  0.86283500  0.97409900  1
  O  O106  1  0.32664500  0.46381000  0.97409900  1
  O  O107  1  0.13716500  0.67335500  0.97409900  1
