# generated using pymatgen
data_NaFe3H6(SO7)2
_symmetry_space_group_name_H-M   'P 1'
_cell_length_a   7.41168407
_cell_length_b   7.41168407
_cell_length_c   16.74328342
_cell_angle_alpha   90.00000000
_cell_angle_beta   90.00000000
_cell_angle_gamma   120.00000000
_symmetry_Int_Tables_number   1
_chemical_formula_structural   NaFe3H6(SO7)2
_chemical_formula_sum   'Na3 Fe9 H18 S6 O42'
_cell_volume   796.53535750
_cell_formula_units_Z   3
loop_
 _symmetry_equiv_pos_site_id
 _symmetry_equiv_pos_as_xyz
  1  'x, y, z'
loop_
 _atom_site_type_symbol
 _atom_site_label
 _atom_site_symmetry_multiplicity
 _atom_site_fract_x
 _atom_site_fract_y
 _atom_site_fract_z
 _atom_site_occupancy
  Na  Na0  1  0.00000000  0.00000000  0.00000000  1
  Na  Na1  1  0.66666667  0.33333333  0.33333333  1
  Na  Na2  1  0.33333333  0.66666667  0.66666667  1
  Fe  Fe3  1  0.16666667  0.33333333  0.83333333  1
  Fe  Fe4  1  0.33333333  0.16666667  0.16666667  1
  Fe  Fe5  1  0.83333333  0.16666667  0.16666667  1
  Fe  Fe6  1  0.83333333  0.66666667  0.16666667  1
  Fe  Fe7  1  0.00000000  0.50000000  0.50000000  1
  Fe  Fe8  1  0.50000000  0.50000000  0.50000000  1
  Fe  Fe9  1  0.50000000  0.00000000  0.50000000  1
  Fe  Fe10  1  0.66666667  0.83333333  0.83333333  1
  Fe  Fe11  1  0.16666667  0.83333333  0.83333333  1
  H  H12  1  0.60747667  0.80373833  0.10962633  1
  H  H13  1  0.05919000  0.52959500  0.22370700  1
  H  H14  1  0.47040500  0.52959500  0.22370700  1
  H  H15  1  0.19626167  0.39252333  0.10962633  1
  H  H16  1  0.47040500  0.94081000  0.22370700  1
  H  H17  1  0.19626167  0.80373833  0.10962633  1
  H  H18  1  0.27414333  0.13707167  0.44295967  1
  H  H19  1  0.72585667  0.86292833  0.55704033  1
  H  H20  1  0.13707167  0.86292833  0.55704033  1
  H  H21  1  0.86292833  0.72585667  0.44295967  1
  H  H22  1  0.13707167  0.27414333  0.55704033  1
  H  H23  1  0.86292833  0.13707167  0.44295967  1
  H  H24  1  0.94081000  0.47040500  0.77629300  1
  H  H25  1  0.39252333  0.19626167  0.89037367  1
  H  H26  1  0.80373833  0.19626167  0.89037367  1
  H  H27  1  0.52959500  0.05919000  0.77629300  1
  H  H28  1  0.80373833  0.60747667  0.89037367  1
  H  H29  1  0.52959500  0.47040500  0.77629300  1
  S  S30  1  0.33333333  0.66666667  0.35381867  1
  S  S31  1  0.33333333  0.66666667  0.97951467  1
  S  S32  1  0.00000000  0.00000000  0.68715200  1
  S  S33  1  0.00000000  0.00000000  0.31284800  1
  S  S34  1  0.66666667  0.33333333  0.02048533  1
  S  S35  1  0.66666667  0.33333333  0.64618133  1
  O  O36  1  0.12517333  0.87482667  0.13188967  1
  O  O37  1  0.22353233  0.44706467  0.94973267  1
  O  O38  1  0.74965333  0.87482667  0.13188967  1
  O  O39  1  0.44313433  0.55686567  0.38360067  1
  O  O40  1  0.54149333  0.45850667  0.20144367  1
  O  O41  1  0.91701333  0.45850667  0.20144367  1
  O  O42  1  0.33333333  0.66666667  0.06780067  1
  O  O43  1  0.11373133  0.55686567  0.38360067  1
  O  O44  1  0.54149333  0.08298667  0.20144367  1
  O  O45  1  0.12517333  0.25034667  0.13188967  1
  O  O46  1  0.33333333  0.66666667  0.26553267  1
  O  O47  1  0.44313433  0.88626867  0.38360067  1
  O  O48  1  0.55293533  0.77646767  0.94973267  1
  O  O49  1  0.22353233  0.77646767  0.94973267  1
  O  O50  1  0.79184000  0.20816000  0.46522300  1
  O  O51  1  0.89019900  0.78039800  0.28306600  1
  O  O52  1  0.41632000  0.20816000  0.46522300  1
  O  O53  1  0.10980100  0.89019900  0.71693400  1
  O  O54  1  0.20816000  0.79184000  0.53477700  1
  O  O55  1  0.58368000  0.79184000  0.53477700  1
  O  O56  1  0.00000000  0.00000000  0.40113400  1
  O  O57  1  0.78039800  0.89019900  0.71693400  1
  O  O58  1  0.20816000  0.41632000  0.53477700  1
  O  O59  1  0.79184000  0.58368000  0.46522300  1
  O  O60  1  0.00000000  0.00000000  0.59886600  1
  O  O61  1  0.10980100  0.21960200  0.71693400  1
  O  O62  1  0.21960200  0.10980100  0.28306600  1
  O  O63  1  0.89019900  0.10980100  0.28306600  1
  O  O64  1  0.45850667  0.54149333  0.79855633  1
  O  O65  1  0.55686567  0.11373133  0.61639933  1
  O  O66  1  0.08298667  0.54149333  0.79855633  1
  O  O67  1  0.77646767  0.22353233  0.05026733  1
  O  O68  1  0.87482667  0.12517333  0.86811033  1
  O  O69  1  0.25034667  0.12517333  0.86811033  1
  O  O70  1  0.66666667  0.33333333  0.73446733  1
  O  O71  1  0.44706467  0.22353233  0.05026733  1
  O  O72  1  0.87482667  0.74965333  0.86811033  1
  O  O73  1  0.45850667  0.91701333  0.79855633  1
  O  O74  1  0.66666667  0.33333333  0.93219933  1
  O  O75  1  0.77646767  0.55293533  0.05026733  1
  O  O76  1  0.88626867  0.44313433  0.61639933  1
  O  O77  1  0.55686567  0.44313433  0.61639933  1
