# generated using pymatgen
data_Na2Ti9O19
_symmetry_space_group_name_H-M   'P 1'
_cell_length_a   12.29186600
_cell_length_b   3.80903400
_cell_length_c   15.79824087
_cell_angle_alpha   90.00000000
_cell_angle_beta   104.73657093
_cell_angle_gamma   90.00000000
_symmetry_Int_Tables_number   1
_chemical_formula_structural   Na2Ti9O19
_chemical_formula_sum   'Na4 Ti18 O38'
_cell_volume   715.34457745
_cell_formula_units_Z   2
loop_
 _symmetry_equiv_pos_site_id
 _symmetry_equiv_pos_as_xyz
  1  'x, y, z'
loop_
 _atom_site_type_symbol
 _atom_site_label
 _atom_site_symmetry_multiplicity
 _atom_site_fract_x
 _atom_site_fract_y
 _atom_site_fract_z
 _atom_site_occupancy
  Na  Na0  1  0.82284000  0.50000000  0.50844600  1
  Na  Na1  1  0.17716000  0.50000000  0.49155400  1
  Na  Na2  1  0.32284000  0.00000000  0.50844600  1
  Na  Na3  1  0.67716000  0.00000000  0.49155400  1
  Ti  Ti4  1  0.68729500  0.50000000  0.11751600  1
  Ti  Ti5  1  0.31270500  0.50000000  0.88248400  1
  Ti  Ti6  1  0.91509100  0.00000000  0.70484000  1
  Ti  Ti7  1  0.10814400  0.00000000  0.88170000  1
  Ti  Ti8  1  0.78832700  0.00000000  0.29316000  1
  Ti  Ti9  1  0.00000000  0.00000000  0.50000000  1
  Ti  Ti10  1  0.21167300  0.00000000  0.70684000  1
  Ti  Ti11  1  0.08490900  0.00000000  0.29516000  1
  Ti  Ti12  1  0.89185600  0.00000000  0.11830000  1
  Ti  Ti13  1  0.18729500  0.00000000  0.11751600  1
  Ti  Ti14  1  0.81270500  0.00000000  0.88248400  1
  Ti  Ti15  1  0.41509100  0.50000000  0.70484000  1
  Ti  Ti16  1  0.60814400  0.50000000  0.88170000  1
  Ti  Ti17  1  0.28832700  0.50000000  0.29316000  1
  Ti  Ti18  1  0.50000000  0.50000000  0.50000000  1
  Ti  Ti19  1  0.71167300  0.50000000  0.70684000  1
  Ti  Ti20  1  0.58490900  0.50000000  0.29516000  1
  Ti  Ti21  1  0.39185600  0.50000000  0.11830000  1
  O  O22  1  0.74935800  0.50000000  0.26901500  1
  O  O23  1  0.62627900  0.50000000  0.00237100  1
  O  O24  1  0.07307700  0.00000000  0.74162000  1
  O  O25  1  0.85237700  0.50000000  0.11667600  1
  O  O26  1  0.92692300  0.00000000  0.25838000  1
  O  O27  1  0.37372100  0.50000000  0.99762900  1
  O  O28  1  0.14762300  0.50000000  0.88332400  1
  O  O29  1  0.89958000  0.00000000  0.58511600  1
  O  O30  1  0.87554600  0.50000000  0.70592700  1
  O  O31  1  0.25064200  0.50000000  0.73098500  1
  O  O32  1  0.15162100  0.00000000  0.58963000  1
  O  O33  1  0.27247500  0.00000000  0.85755300  1
  O  O34  1  0.72752500  0.00000000  0.14244700  1
  O  O35  1  0.12445400  0.50000000  0.29407300  1
  O  O36  1  0.00000000  0.50000000  0.50000000  1
  O  O37  1  0.95093000  0.00000000  0.84663000  1
  O  O38  1  0.04907000  0.00000000  0.15337000  1
  O  O39  1  0.10042000  0.00000000  0.41488400  1
  O  O40  1  0.84837900  0.00000000  0.41037000  1
  O  O41  1  0.24935800  0.00000000  0.26901500  1
  O  O42  1  0.12627900  0.00000000  0.00237100  1
  O  O43  1  0.57307700  0.50000000  0.74162000  1
  O  O44  1  0.35237700  0.00000000  0.11667600  1
  O  O45  1  0.42692300  0.50000000  0.25838000  1
  O  O46  1  0.87372100  0.00000000  0.99762900  1
  O  O47  1  0.64762300  0.00000000  0.88332400  1
  O  O48  1  0.39958000  0.50000000  0.58511600  1
  O  O49  1  0.37554600  0.00000000  0.70592700  1
  O  O50  1  0.75064200  0.00000000  0.73098500  1
  O  O51  1  0.65162100  0.50000000  0.58963000  1
  O  O52  1  0.77247500  0.50000000  0.85755300  1
  O  O53  1  0.22752500  0.50000000  0.14244700  1
  O  O54  1  0.62445400  0.00000000  0.29407300  1
  O  O55  1  0.50000000  0.00000000  0.50000000  1
  O  O56  1  0.45093000  0.50000000  0.84663000  1
  O  O57  1  0.54907000  0.50000000  0.15337000  1
  O  O58  1  0.60042000  0.50000000  0.41488400  1
  O  O59  1  0.34837900  0.50000000  0.41037000  1
