# generated using pymatgen
data_CoH6(NCl)2
_symmetry_space_group_name_H-M   'P 1'
_cell_length_a   7.54267000
_cell_length_b   8.00921000
_cell_length_c   8.02658600
_cell_angle_alpha   90.00000000
_cell_angle_beta   90.00000000
_cell_angle_gamma   90.00000000
_symmetry_Int_Tables_number   1
_chemical_formula_structural   CoH6(NCl)2
_chemical_formula_sum   'Co4 H24 N8 Cl8'
_cell_volume   484.89270620
_cell_formula_units_Z   4
loop_
 _symmetry_equiv_pos_site_id
 _symmetry_equiv_pos_as_xyz
  1  'x, y, z'
loop_
 _atom_site_type_symbol
 _atom_site_label
 _atom_site_symmetry_multiplicity
 _atom_site_fract_x
 _atom_site_fract_y
 _atom_site_fract_z
 _atom_site_occupancy
  Co  Co0  1  0.50000000  0.74327600  0.75000000  1
  Co  Co1  1  0.00000000  0.75672400  0.75000000  1
  Co  Co2  1  0.00000000  0.24327600  0.25000000  1
  Co  Co3  1  0.50000000  0.25672400  0.25000000  1
  H  H4  1  0.50000000  0.84913000  0.43467800  1
  H  H5  1  0.00000000  0.65087000  0.43467800  1
  H  H6  1  0.00000000  0.65087000  0.06532200  1
  H  H7  1  0.50000000  0.84913000  0.06532200  1
  H  H8  1  0.10842250  0.17039050  0.94467750  1
  H  H9  1  0.89157750  0.82960950  0.44467750  1
  H  H10  1  0.10842250  0.82960950  0.44467750  1
  H  H11  1  0.39157750  0.67039050  0.44467750  1
  H  H12  1  0.39157750  0.32960950  0.55532250  1
  H  H13  1  0.60842250  0.67039050  0.05532250  1
  H  H14  1  0.39157750  0.67039050  0.05532250  1
  H  H15  1  0.10842250  0.82960950  0.05532250  1
  H  H16  1  0.00000000  0.34913000  0.93467800  1
  H  H17  1  0.50000000  0.15087000  0.93467800  1
  H  H18  1  0.50000000  0.15087000  0.56532200  1
  H  H19  1  0.00000000  0.34913000  0.56532200  1
  H  H20  1  0.60842250  0.67039050  0.44467750  1
  H  H21  1  0.39157750  0.32960950  0.94467750  1
  H  H22  1  0.60842250  0.32960950  0.94467750  1
  H  H23  1  0.89157750  0.17039050  0.94467750  1
  H  H24  1  0.89157750  0.82960950  0.05532250  1
  H  H25  1  0.10842250  0.17039050  0.55532250  1
  H  H26  1  0.89157750  0.17039050  0.55532250  1
  H  H27  1  0.60842250  0.32960950  0.55532250  1
  N  N28  1  0.50000000  0.73399700  0.48991600  1
  N  N29  1  0.00000000  0.76600300  0.48991600  1
  N  N30  1  0.00000000  0.76600300  0.01008400  1
  N  N31  1  0.50000000  0.73399700  0.01008400  1
  N  N32  1  0.00000000  0.23399700  0.98991600  1
  N  N33  1  0.50000000  0.26600300  0.98991600  1
  N  N34  1  0.50000000  0.26600300  0.51008400  1
  N  N35  1  0.00000000  0.23399700  0.51008400  1
  Cl  Cl36  1  0.74232800  0.03978300  0.25000000  1
  Cl  Cl37  1  0.75767200  0.46021700  0.25000000  1
  Cl  Cl38  1  0.24232800  0.46021700  0.25000000  1
  Cl  Cl39  1  0.25767200  0.03978300  0.25000000  1
  Cl  Cl40  1  0.24232800  0.53978300  0.75000000  1
  Cl  Cl41  1  0.25767200  0.96021700  0.75000000  1
  Cl  Cl42  1  0.74232800  0.96021700  0.75000000  1
  Cl  Cl43  1  0.75767200  0.53978300  0.75000000  1
