# generated using pymatgen
data_Sb2RuC6(OF2)6
_symmetry_space_group_name_H-M   'P 1'
_cell_length_a   8.44958800
_cell_length_b   8.44958800
_cell_length_c   12.67142300
_cell_angle_alpha   90.00000000
_cell_angle_beta   90.00000000
_cell_angle_gamma   90.00000000
_symmetry_Int_Tables_number   1
_chemical_formula_structural   Sb2RuC6(OF2)6
_chemical_formula_sum   'Sb4 Ru2 C12 O12 F24'
_cell_volume   904.68305432
_cell_formula_units_Z   2
loop_
 _symmetry_equiv_pos_site_id
 _symmetry_equiv_pos_as_xyz
  1  'x, y, z'
loop_
 _atom_site_type_symbol
 _atom_site_label
 _atom_site_symmetry_multiplicity
 _atom_site_fract_x
 _atom_site_fract_y
 _atom_site_fract_z
 _atom_site_occupancy
  Sb  Sb0  1  0.50000000  0.00000000  0.75000000  1
  Sb  Sb1  1  0.00000000  0.50000000  0.75000000  1
  Sb  Sb2  1  0.50000000  0.00000000  0.25000000  1
  Sb  Sb3  1  0.00000000  0.50000000  0.25000000  1
  Ru  Ru4  1  0.50000000  0.50000000  0.50000000  1
  Ru  Ru5  1  0.00000000  0.00000000  0.00000000  1
  C  C6  1  0.62895800  0.70078300  0.50000000  1
  C  C7  1  0.37104200  0.29921700  0.50000000  1
  C  C8  1  0.00000000  0.00000000  0.15868400  1
  C  C9  1  0.50000000  0.50000000  0.34131600  1
  C  C10  1  0.00000000  0.00000000  0.84131600  1
  C  C11  1  0.50000000  0.50000000  0.65868400  1
  C  C12  1  0.20078300  0.12895800  0.00000000  1
  C  C13  1  0.87104200  0.20078300  0.00000000  1
  C  C14  1  0.12895800  0.79921700  0.00000000  1
  C  C15  1  0.70078300  0.37104200  0.50000000  1
  C  C16  1  0.29921700  0.62895800  0.50000000  1
  C  C17  1  0.79921700  0.87104200  0.00000000  1
  O  O18  1  0.70024800  0.81470800  0.50000000  1
  O  O19  1  0.29975200  0.18529200  0.50000000  1
  O  O20  1  0.00000000  0.00000000  0.24836000  1
  O  O21  1  0.50000000  0.50000000  0.25164000  1
  O  O22  1  0.00000000  0.00000000  0.75164000  1
  O  O23  1  0.50000000  0.50000000  0.74836000  1
  O  O24  1  0.31470800  0.20024800  0.00000000  1
  O  O25  1  0.79975200  0.31470800  0.00000000  1
  O  O26  1  0.20024800  0.68529200  0.00000000  1
  O  O27  1  0.81470800  0.29975200  0.50000000  1
  O  O28  1  0.18529200  0.70024800  0.50000000  1
  O  O29  1  0.68529200  0.79975200  0.00000000  1
  F  F30  1  0.33967500  0.16032500  0.75000000  1
  F  F31  1  0.16032500  0.66032500  0.25000000  1
  F  F32  1  0.83967500  0.33967500  0.75000000  1
  F  F33  1  0.39304800  0.88098300  0.35811600  1
  F  F34  1  0.16032500  0.66032500  0.75000000  1
  F  F35  1  0.66032500  0.83967500  0.75000000  1
  F  F36  1  0.61901700  0.10695200  0.14188400  1
  F  F37  1  0.89304800  0.61901700  0.14188400  1
  F  F38  1  0.10695200  0.38098300  0.14188400  1
  F  F39  1  0.11901700  0.39304800  0.35811600  1
  F  F40  1  0.88098300  0.60695200  0.35811600  1
  F  F41  1  0.38098300  0.89304800  0.14188400  1
  F  F42  1  0.60695200  0.11901700  0.35811600  1
  F  F43  1  0.83967500  0.33967500  0.25000000  1
  F  F44  1  0.38098300  0.89304800  0.85811600  1
  F  F45  1  0.10695200  0.38098300  0.85811600  1
  F  F46  1  0.89304800  0.61901700  0.85811600  1
  F  F47  1  0.88098300  0.60695200  0.64188400  1
  F  F48  1  0.11901700  0.39304800  0.64188400  1
  F  F49  1  0.61901700  0.10695200  0.85811600  1
  F  F50  1  0.39304800  0.88098300  0.64188400  1
  F  F51  1  0.60695200  0.11901700  0.64188400  1
  F  F52  1  0.33967500  0.16032500  0.25000000  1
  F  F53  1  0.66032500  0.83967500  0.25000000  1
