# generated using pymatgen
data_Sr(H8O5)2
_symmetry_space_group_name_H-M   'P 1'
_cell_length_a   8.92087000
_cell_length_b   8.86172200
_cell_length_c   11.60724348
_cell_angle_alpha   90.00000000
_cell_angle_beta   91.75786233
_cell_angle_gamma   90.00000000
_symmetry_Int_Tables_number   1
_chemical_formula_structural   Sr(H8O5)2
_chemical_formula_sum   'Sr4 H64 O40'
_cell_volume   917.17032694
_cell_formula_units_Z   4
loop_
 _symmetry_equiv_pos_site_id
 _symmetry_equiv_pos_as_xyz
  1  'x, y, z'
loop_
 _atom_site_type_symbol
 _atom_site_label
 _atom_site_symmetry_multiplicity
 _atom_site_fract_x
 _atom_site_fract_y
 _atom_site_fract_z
 _atom_site_occupancy
  Sr  Sr0  1  0.00000000  0.00000000  0.00000000  1
  Sr  Sr1  1  0.00000000  0.00000000  0.50000000  1
  Sr  Sr2  1  0.50000000  0.50000000  0.00000000  1
  Sr  Sr3  1  0.50000000  0.50000000  0.50000000  1
  H  H4  1  0.69772000  0.60899300  0.79269000  1
  H  H5  1  0.82734100  0.55886400  0.88922900  1
  H  H6  1  0.16995300  0.44757700  0.89181500  1
  H  H7  1  0.25937450  0.29719450  0.88375700  1
  H  H8  1  0.94764500  0.32869800  0.88948400  1
  H  H9  1  0.79695650  0.24001350  0.88731100  1
  H  H10  1  0.11521750  0.79610150  0.79278900  1
  H  H11  1  0.05941100  0.67048400  0.88975600  1
  H  H12  1  0.11521750  0.20389850  0.29278900  1
  H  H13  1  0.05941100  0.32951600  0.38975600  1
  H  H14  1  0.79695650  0.75998650  0.38731100  1
  H  H15  1  0.94764500  0.67130200  0.38948400  1
  H  H16  1  0.82734100  0.44113600  0.38922900  1
  H  H17  1  0.69772000  0.39100700  0.29269000  1
  H  H18  1  0.25937450  0.70280550  0.38375700  1
  H  H19  1  0.16995300  0.55242300  0.39181500  1
  H  H20  1  0.30228000  0.39100700  0.20731000  1
  H  H21  1  0.17265900  0.44113600  0.11077100  1
  H  H22  1  0.83004700  0.55242300  0.10818500  1
  H  H23  1  0.74062550  0.70280550  0.11624300  1
  H  H24  1  0.05235500  0.67130200  0.11051600  1
  H  H25  1  0.20304350  0.75998650  0.11268900  1
  H  H26  1  0.94058900  0.32951600  0.11024400  1
  H  H27  1  0.88478250  0.20389850  0.20721100  1
  H  H28  1  0.88478250  0.79610150  0.70721100  1
  H  H29  1  0.94058900  0.67048400  0.61024400  1
  H  H30  1  0.20304350  0.24001350  0.61268900  1
  H  H31  1  0.05235500  0.32869800  0.61051600  1
  H  H32  1  0.30228000  0.60899300  0.70731000  1
  H  H33  1  0.17265900  0.55886400  0.61077100  1
  H  H34  1  0.83004700  0.44757700  0.60818500  1
  H  H35  1  0.74062550  0.29719450  0.61624300  1
  H  H36  1  0.19772000  0.10899300  0.79269000  1
  H  H37  1  0.32734100  0.05886400  0.88922900  1
  H  H38  1  0.66995300  0.94757700  0.89181500  1
  H  H39  1  0.75937450  0.79719450  0.88375700  1
  H  H40  1  0.44764500  0.82869800  0.88948400  1
  H  H41  1  0.29695650  0.74001350  0.88731100  1
  H  H42  1  0.61521750  0.29610150  0.79278900  1
  H  H43  1  0.55941100  0.17048400  0.88975600  1
  H  H44  1  0.61521750  0.70389850  0.29278900  1
  H  H45  1  0.55941100  0.82951600  0.38975600  1
  H  H46  1  0.29695650  0.25998650  0.38731100  1
  H  H47  1  0.44764500  0.17130200  0.38948400  1
  H  H48  1  0.32734100  0.94113600  0.38922900  1
  H  H49  1  0.19772000  0.89100700  0.29269000  1
  H  H50  1  0.75937450  0.20280550  0.38375700  1
  H  H51  1  0.66995300  0.05242300  0.39181500  1
  H  H52  1  0.80228000  0.89100700  0.20731000  1
  H  H53  1  0.67265900  0.94113600  0.11077100  1
  H  H54  1  0.33004700  0.05242300  0.10818500  1
  H  H55  1  0.24062550  0.20280550  0.11624300  1
  H  H56  1  0.55235500  0.17130200  0.11051600  1
  H  H57  1  0.70304350  0.25998650  0.11268900  1
  H  H58  1  0.44058900  0.82951600  0.11024400  1
  H  H59  1  0.38478250  0.70389850  0.20721100  1
  H  H60  1  0.38478250  0.29610150  0.70721100  1
  H  H61  1  0.44058900  0.17048400  0.61024400  1
  H  H62  1  0.70304350  0.74001350  0.61268900  1
  H  H63  1  0.55235500  0.82869800  0.61051600  1
  H  H64  1  0.80228000  0.10899300  0.70731000  1
  H  H65  1  0.67265900  0.05886400  0.61077100  1
  H  H66  1  0.33004700  0.94757700  0.60818500  1
  H  H67  1  0.24062550  0.79719450  0.61624300  1
  O  O68  1  0.99949050  0.50421450  0.93493600  1
  O  O69  1  0.99949050  0.49578550  0.43493600  1
  O  O70  1  0.00050950  0.49578550  0.06506400  1
  O  O71  1  0.00050950  0.50421450  0.56506400  1
  O  O72  1  0.72421550  0.60666550  0.87564300  1
  O  O73  1  0.27178300  0.40769300  0.87079700  1
  O  O74  1  0.90472950  0.22533850  0.87286200  1
  O  O75  1  0.10062050  0.77669850  0.87496200  1
  O  O76  1  0.10062050  0.22330150  0.37496200  1
  O  O77  1  0.90472950  0.77466150  0.37286200  1
  O  O78  1  0.72421550  0.39333450  0.37564300  1
  O  O79  1  0.27178300  0.59230700  0.37079700  1
  O  O80  1  0.27578450  0.39333450  0.12435700  1
  O  O81  1  0.72821700  0.59230700  0.12920300  1
  O  O82  1  0.09527050  0.77466150  0.12713800  1
  O  O83  1  0.89937950  0.22330150  0.12503800  1
  O  O84  1  0.89937950  0.77669850  0.62503800  1
  O  O85  1  0.09527050  0.22533850  0.62713800  1
  O  O86  1  0.27578450  0.60666550  0.62435700  1
  O  O87  1  0.72821700  0.40769300  0.62920300  1
  O  O88  1  0.49949050  0.00421450  0.93493600  1
  O  O89  1  0.49949050  0.99578550  0.43493600  1
  O  O90  1  0.50050950  0.99578550  0.06506400  1
  O  O91  1  0.50050950  0.00421450  0.56506400  1
  O  O92  1  0.22421550  0.10666550  0.87564300  1
  O  O93  1  0.77178300  0.90769300  0.87079700  1
  O  O94  1  0.40472950  0.72533850  0.87286200  1
  O  O95  1  0.60062050  0.27669850  0.87496200  1
  O  O96  1  0.60062050  0.72330150  0.37496200  1
  O  O97  1  0.40472950  0.27466150  0.37286200  1
  O  O98  1  0.22421550  0.89333450  0.37564300  1
  O  O99  1  0.77178300  0.09230700  0.37079700  1
  O  O100  1  0.77578450  0.89333450  0.12435700  1
  O  O101  1  0.22821700  0.09230700  0.12920300  1
  O  O102  1  0.59527050  0.27466150  0.12713800  1
  O  O103  1  0.39937950  0.72330150  0.12503800  1
  O  O104  1  0.39937950  0.27669850  0.62503800  1
  O  O105  1  0.59527050  0.72533850  0.62713800  1
  O  O106  1  0.77578450  0.10666550  0.62435700  1
  O  O107  1  0.22821700  0.90769300  0.62920300  1
