# generated using pymatgen
data_K2BaNi(NO2)6
_symmetry_space_group_name_H-M   'P 1'
_cell_length_a   11.54190000
_cell_length_b   10.94280800
_cell_length_c   8.09427215
_cell_angle_alpha   90.00000000
_cell_angle_beta   134.07168205
_cell_angle_gamma   90.00000000
_symmetry_Int_Tables_number   1
_chemical_formula_structural   K2BaNi(NO2)6
_chemical_formula_sum   'K4 Ba2 Ni2 N12 O24'
_cell_volume   734.50139303
_cell_formula_units_Z   2
loop_
 _symmetry_equiv_pos_site_id
 _symmetry_equiv_pos_as_xyz
  1  'x, y, z'
loop_
 _atom_site_type_symbol
 _atom_site_label
 _atom_site_symmetry_multiplicity
 _atom_site_fract_x
 _atom_site_fract_y
 _atom_site_fract_z
 _atom_site_occupancy
  K  K0  1  0.49810650  0.74295050  0.49660800  1
  K  K1  1  0.99810650  0.75704950  0.49660800  1
  K  K2  1  0.99810650  0.24295050  0.49660800  1
  K  K3  1  0.49810650  0.25704950  0.49660800  1
  Ba  Ba4  1  0.01408700  0.50000000  0.00864200  1
  Ba  Ba5  1  0.51408700  0.00000000  0.00864200  1
  Ni  Ni6  1  0.40855300  0.50000000  0.89907300  1
  Ni  Ni7  1  0.90855300  0.00000000  0.89907300  1
  N  N8  1  0.27579900  0.50000000  0.57335700  1
  N  N9  1  0.78505700  0.00000000  0.98825000  1
  N  N10  1  0.48321250  0.65294550  0.97788400  1
  N  N11  1  0.48321250  0.34705450  0.97788400  1
  N  N12  1  0.23385000  0.00000000  0.97381400  1
  N  N13  1  0.22636800  0.00000000  0.47339400  1
  N  N14  1  0.77579900  0.00000000  0.57335700  1
  N  N15  1  0.28505700  0.50000000  0.98825000  1
  N  N16  1  0.98321250  0.15294550  0.97788400  1
  N  N17  1  0.98321250  0.84705450  0.97788400  1
  N  N18  1  0.73385000  0.50000000  0.97381400  1
  N  N19  1  0.72636800  0.50000000  0.47339400  1
  O  O20  1  0.73095200  0.90078300  0.99672800  1
  O  O21  1  0.22803800  0.40079900  0.45950800  1
  O  O22  1  0.22803800  0.59920100  0.45950800  1
  O  O23  1  0.73095200  0.09921700  0.99672800  1
  O  O24  1  0.44682400  0.24664400  0.89085100  1
  O  O25  1  0.44682400  0.75335600  0.89085100  1
  O  O26  1  0.80556850  0.60093150  0.07539100  1
  O  O27  1  0.80556850  0.39906850  0.07539100  1
  O  O28  1  0.29391650  0.89918550  0.50300000  1
  O  O29  1  0.29391650  0.10081450  0.50300000  1
  O  O30  1  0.09761800  0.00000000  0.76939100  1
  O  O31  1  0.09675100  0.00000000  0.42792000  1
  O  O32  1  0.23095200  0.40078300  0.99672800  1
  O  O33  1  0.72803800  0.90079900  0.45950800  1
  O  O34  1  0.72803800  0.09920100  0.45950800  1
  O  O35  1  0.23095200  0.59921700  0.99672800  1
  O  O36  1  0.94682400  0.74664400  0.89085100  1
  O  O37  1  0.94682400  0.25335600  0.89085100  1
  O  O38  1  0.30556850  0.10093150  0.07539100  1
  O  O39  1  0.30556850  0.89906850  0.07539100  1
  O  O40  1  0.79391650  0.39918550  0.50300000  1
  O  O41  1  0.79391650  0.60081450  0.50300000  1
  O  O42  1  0.59761800  0.50000000  0.76939100  1
  O  O43  1  0.59675100  0.50000000  0.42792000  1
