# generated using pymatgen
data_K3TiO4F3
_symmetry_space_group_name_H-M   'P 1'
_cell_length_a   8.39915600
_cell_length_b   9.53237600
_cell_length_c   8.97673800
_cell_angle_alpha   90.00000000
_cell_angle_beta   90.00000000
_cell_angle_gamma   90.00000000
_symmetry_Int_Tables_number   1
_chemical_formula_structural   K3TiO4F3
_chemical_formula_sum   'K12 Ti4 O16 F12'
_cell_volume   718.71277093
_cell_formula_units_Z   4
loop_
 _symmetry_equiv_pos_site_id
 _symmetry_equiv_pos_as_xyz
  1  'x, y, z'
loop_
 _atom_site_type_symbol
 _atom_site_label
 _atom_site_symmetry_multiplicity
 _atom_site_fract_x
 _atom_site_fract_y
 _atom_site_fract_z
 _atom_site_occupancy
  K  K0  1  0.70246900  0.00000000  0.75000000  1
  K  K1  1  0.29753100  0.00000000  0.25000000  1
  K  K2  1  0.50000000  0.70196300  0.50000000  1
  K  K3  1  0.50000000  0.29803700  0.00000000  1
  K  K4  1  0.50000000  0.70196300  0.00000000  1
  K  K5  1  0.50000000  0.29803700  0.50000000  1
  K  K6  1  0.20246900  0.50000000  0.75000000  1
  K  K7  1  0.79753100  0.50000000  0.25000000  1
  K  K8  1  0.00000000  0.20196300  0.50000000  1
  K  K9  1  0.00000000  0.79803700  0.00000000  1
  K  K10  1  0.00000000  0.20196300  0.00000000  1
  K  K11  1  0.00000000  0.79803700  0.50000000  1
  Ti  Ti12  1  0.74066100  0.00000000  0.25000000  1
  Ti  Ti13  1  0.25933900  0.00000000  0.75000000  1
  Ti  Ti14  1  0.24066100  0.50000000  0.25000000  1
  Ti  Ti15  1  0.75933900  0.50000000  0.75000000  1
  O  O16  1  0.26088300  0.20901600  0.75000000  1
  O  O17  1  0.73911700  0.79098400  0.25000000  1
  O  O18  1  0.73911700  0.20901600  0.25000000  1
  O  O19  1  0.26088300  0.79098400  0.75000000  1
  O  O20  1  0.42121050  0.14352050  0.75000000  1
  O  O21  1  0.57878950  0.85647950  0.25000000  1
  O  O22  1  0.57878950  0.14352050  0.25000000  1
  O  O23  1  0.42121050  0.85647950  0.75000000  1
  O  O24  1  0.76088300  0.70901600  0.75000000  1
  O  O25  1  0.23911700  0.29098400  0.25000000  1
  O  O26  1  0.23911700  0.70901600  0.25000000  1
  O  O27  1  0.76088300  0.29098400  0.75000000  1
  O  O28  1  0.92121050  0.64352050  0.75000000  1
  O  O29  1  0.07878950  0.35647950  0.25000000  1
  O  O30  1  0.07878950  0.64352050  0.25000000  1
  O  O31  1  0.92121050  0.35647950  0.75000000  1
  F  F32  1  0.01973900  0.00000000  0.75000000  1
  F  F33  1  0.98026100  0.00000000  0.25000000  1
  F  F34  1  0.23786300  0.00000000  0.53193700  1
  F  F35  1  0.76213700  0.00000000  0.03193700  1
  F  F36  1  0.23786300  0.00000000  0.96806300  1
  F  F37  1  0.76213700  0.00000000  0.46806300  1
  F  F38  1  0.51973900  0.50000000  0.75000000  1
  F  F39  1  0.48026100  0.50000000  0.25000000  1
  F  F40  1  0.73786300  0.50000000  0.53193700  1
  F  F41  1  0.26213700  0.50000000  0.03193700  1
  F  F42  1  0.73786300  0.50000000  0.96806300  1
  F  F43  1  0.26213700  0.50000000  0.46806300  1
