# generated using pymatgen
data_LiB13C2
_symmetry_space_group_name_H-M   'P 1'
_cell_length_a   5.67520400
_cell_length_b   8.04280400
_cell_length_c   10.83990800
_cell_angle_alpha   90.00000000
_cell_angle_beta   90.00000000
_cell_angle_gamma   90.00000000
_symmetry_Int_Tables_number   1
_chemical_formula_structural   LiB13C2
_chemical_formula_sum   'Li4 B52 C8'
_cell_volume   494.78275990
_cell_formula_units_Z   4
loop_
 _symmetry_equiv_pos_site_id
 _symmetry_equiv_pos_as_xyz
  1  'x, y, z'
loop_
 _atom_site_type_symbol
 _atom_site_label
 _atom_site_symmetry_multiplicity
 _atom_site_fract_x
 _atom_site_fract_y
 _atom_site_fract_z
 _atom_site_occupancy
  Li  Li0  1  0.00000000  0.68803400  0.75000000  1
  Li  Li1  1  0.00000000  0.31196600  0.25000000  1
  Li  Li2  1  0.50000000  0.18803400  0.25000000  1
  Li  Li3  1  0.50000000  0.81196600  0.75000000  1
  B  B4  1  0.50000000  0.48317900  0.16613600  1
  B  B5  1  0.25143500  0.54721300  0.07083700  1
  B  B6  1  0.25143500  0.54721300  0.42916300  1
  B  B7  1  0.74856500  0.45278700  0.92916300  1
  B  B8  1  0.16413900  0.15525200  0.06832000  1
  B  B9  1  0.66413900  0.65525200  0.93168000  1
  B  B10  1  0.25143500  0.45278700  0.92916300  1
  B  B11  1  0.74856500  0.54721300  0.42916300  1
  B  B12  1  0.66413900  0.34474800  0.06832000  1
  B  B13  1  0.50000000  0.51682100  0.83386400  1
  B  B14  1  0.50000000  0.31788000  0.92548700  1
  B  B15  1  0.33586100  0.65525200  0.93168000  1
  B  B16  1  0.74856500  0.45278700  0.57083700  1
  B  B17  1  0.50000000  0.48317900  0.33386400  1
  B  B18  1  0.74856500  0.54721300  0.07083700  1
  B  B19  1  0.00000000  0.35918900  0.75000000  1
  B  B20  1  0.16413900  0.84474800  0.93168000  1
  B  B21  1  0.50000000  0.51682100  0.66613600  1
  B  B22  1  0.00000000  0.18212000  0.92548700  1
  B  B23  1  0.33586100  0.34474800  0.06832000  1
  B  B24  1  0.83586100  0.15525200  0.06832000  1
  B  B25  1  0.00000000  0.81788000  0.07451300  1
  B  B26  1  0.25143500  0.45278700  0.57083700  1
  B  B27  1  0.50000000  0.68212000  0.07451300  1
  B  B28  1  0.00000000  0.64081100  0.25000000  1
  B  B29  1  0.83586100  0.84474800  0.93168000  1
  B  B30  1  0.00000000  0.98317900  0.66613600  1
  B  B31  1  0.75143500  0.04721300  0.57083700  1
  B  B32  1  0.75143500  0.04721300  0.92916300  1
  B  B33  1  0.24856500  0.95278700  0.42916300  1
  B  B34  1  0.66413900  0.65525200  0.56832000  1
  B  B35  1  0.16413900  0.15525200  0.43168000  1
  B  B36  1  0.75143500  0.95278700  0.42916300  1
  B  B37  1  0.24856500  0.04721300  0.92916300  1
  B  B38  1  0.16413900  0.84474800  0.56832000  1
  B  B39  1  0.00000000  0.01682100  0.33386400  1
  B  B40  1  0.00000000  0.81788000  0.42548700  1
  B  B41  1  0.83586100  0.15525200  0.43168000  1
  B  B42  1  0.24856500  0.95278700  0.07083700  1
  B  B43  1  0.00000000  0.98317900  0.83386400  1
  B  B44  1  0.24856500  0.04721300  0.57083700  1
  B  B45  1  0.50000000  0.85918900  0.25000000  1
  B  B46  1  0.66413900  0.34474800  0.43168000  1
  B  B47  1  0.00000000  0.01682100  0.16613600  1
  B  B48  1  0.50000000  0.68212000  0.42548700  1
  B  B49  1  0.83586100  0.84474800  0.56832000  1
  B  B50  1  0.33586100  0.65525200  0.56832000  1
  B  B51  1  0.50000000  0.31788000  0.57451300  1
  B  B52  1  0.75143500  0.95278700  0.07083700  1
  B  B53  1  0.00000000  0.18212000  0.57451300  1
  B  B54  1  0.50000000  0.14081100  0.75000000  1
  B  B55  1  0.33586100  0.34474800  0.43168000  1
  C  C56  1  0.00000000  0.62592100  0.11877600  1
  C  C57  1  0.50000000  0.12592100  0.88122400  1
  C  C58  1  0.50000000  0.87407900  0.11877600  1
  C  C59  1  0.00000000  0.37407900  0.88122400  1
  C  C60  1  0.50000000  0.12592100  0.61877600  1
  C  C61  1  0.00000000  0.62592100  0.38122400  1
  C  C62  1  0.00000000  0.37407900  0.61877600  1
  C  C63  1  0.50000000  0.87407900  0.38122400  1
