# generated using pymatgen
data_Sr(H8O5)2
_symmetry_space_group_name_H-M   'P 1'
_cell_length_a   6.35460700
_cell_length_b   6.47435060
_cell_length_c   11.31805521
_cell_angle_alpha   90.43440060
_cell_angle_beta   90.95531181
_cell_angle_gamma   91.75691445
_symmetry_Int_Tables_number   1
_chemical_formula_structural   Sr(H8O5)2
_chemical_formula_sum   'Sr2 H32 O20'
_cell_volume   465.34805062
_cell_formula_units_Z   2
loop_
 _symmetry_equiv_pos_site_id
 _symmetry_equiv_pos_as_xyz
  1  'x, y, z'
loop_
 _atom_site_type_symbol
 _atom_site_label
 _atom_site_symmetry_multiplicity
 _atom_site_fract_x
 _atom_site_fract_y
 _atom_site_fract_z
 _atom_site_occupancy
  Sr  Sr0  1  0.00419500  0.99211700  0.73895200  1
  Sr  Sr1  1  0.01497700  0.99497600  0.26046400  1
  H  H2  1  0.96902800  0.44270800  0.62581400  1
  H  H3  1  0.72839900  0.38098000  0.64170200  1
  H  H4  1  0.27849500  0.59861600  0.64691600  1
  H  H5  1  0.14831700  0.67524300  0.53409400  1
  H  H6  1  0.40042600  0.26689300  0.64708100  1
  H  H7  1  0.45371400  0.02648800  0.62739100  1
  H  H8  1  0.60413800  0.71170000  0.64605800  1
  H  H9  1  0.67742600  0.85399200  0.53678400  1
  H  H10  1  0.29117900  0.39069800  0.14976400  1
  H  H11  1  0.03113900  0.36149600  0.13054100  1
  H  H12  1  0.95870300  0.59543500  0.13917400  1
  H  H13  1  0.70114900  0.60499200  0.15125300  1
  H  H14  1  0.57788000  0.05708500  0.13755500  1
  H  H15  1  0.72335200  0.15291100  0.04065400  1
  H  H16  1  0.38931900  0.73151100  0.15857200  1
  H  H17  1  0.30547000  0.85918400  0.04733300  1
  H  H18  1  0.04040200  0.54709500  0.37213900  1
  H  H19  1  0.28466600  0.61023000  0.35637900  1
  H  H20  1  0.72905600  0.39552000  0.34663500  1
  H  H21  1  0.85970600  0.32175100  0.46005300  1
  H  H22  1  0.61291900  0.73318600  0.35704000  1
  H  H23  1  0.56352200  0.97293800  0.37588800  1
  H  H24  1  0.40497800  0.28465100  0.35459400  1
  H  H25  1  0.33432500  0.14935500  0.46740700  1
  H  H26  1  0.71869900  0.63036200  0.85366100  1
  H  H27  1  0.84770200  0.71953800  0.96614900  1
  H  H28  1  0.30858800  0.36199500  0.84976200  1
  H  H29  1  0.16953900  0.27830600  0.95712900  1
  H  H30  1  0.39687800  0.71790100  0.85408400  1
  H  H31  1  0.37180700  0.96905100  0.87373700  1
  H  H32  1  0.64689400  0.02986500  0.87570800  1
  H  H33  1  0.62923400  0.28146600  0.85181400  1
  O  O34  1  0.50488500  0.48858300  0.68101100  1
  O  O35  1  0.48076100  0.52667500  0.18718400  1
  O  O36  1  0.50096100  0.51468400  0.31853400  1
  O  O37  1  0.51307900  0.49373300  0.81308200  1
  O  O38  1  0.86696200  0.32273100  0.61539000  1
  O  O39  1  0.13997500  0.66079300  0.62181100  1
  O  O40  1  0.33644300  0.12587800  0.62163300  1
  O  O41  1  0.66210200  0.85579100  0.62484900  1
  O  O42  1  0.16413900  0.29316000  0.12063800  1
  O  O43  1  0.84067300  0.68541800  0.12840300  1
  O  O44  1  0.71731100  0.12601100  0.12651400  1
  O  O45  1  0.32503900  0.87192100  0.13385600  1
  O  O46  1  0.14152600  0.66871900  0.37839100  1
  O  O47  1  0.86837300  0.33582200  0.37214200  1
  O  O48  1  0.67891500  0.87223100  0.38426700  1
  O  O49  1  0.34777200  0.14319000  0.37962800  1
  O  O50  1  0.82964100  0.73742300  0.87980600  1
  O  O51  1  0.19527900  0.25605400  0.87210100  1
  O  O52  1  0.30370000  0.83247600  0.88174300  1
  O  O53  1  0.72127700  0.16451300  0.88068200  1
