# generated using pymatgen
data_Cs3Bi2Br9
_symmetry_space_group_name_H-M   'P 1'
_cell_length_a   14.16558800
_cell_length_b   8.20602800
_cell_length_c   20.25357060
_cell_angle_alpha   90.00000000
_cell_angle_beta   90.82461691
_cell_angle_gamma   90.00000000
_symmetry_Int_Tables_number   1
_chemical_formula_structural   Cs3Bi2Br9
_chemical_formula_sum   'Cs12 Bi8 Br36'
_cell_volume   2354.09626448
_cell_formula_units_Z   4
loop_
 _symmetry_equiv_pos_site_id
 _symmetry_equiv_pos_as_xyz
  1  'x, y, z'
loop_
 _atom_site_type_symbol
 _atom_site_label
 _atom_site_symmetry_multiplicity
 _atom_site_fract_x
 _atom_site_fract_y
 _atom_site_fract_z
 _atom_site_occupancy
  Cs  Cs0  1  0.66544000  0.99168500  0.33229300  1
  Cs  Cs1  1  0.00000000  0.00000000  0.50000000  1
  Cs  Cs2  1  0.33456000  0.99168500  0.16770700  1
  Cs  Cs3  1  0.00000000  0.00000000  0.00000000  1
  Cs  Cs4  1  0.66544000  0.00831500  0.83229300  1
  Cs  Cs5  1  0.33456000  0.00831500  0.66770700  1
  Cs  Cs6  1  0.16544000  0.49168500  0.33229300  1
  Cs  Cs7  1  0.50000000  0.50000000  0.50000000  1
  Cs  Cs8  1  0.83456000  0.49168500  0.16770700  1
  Cs  Cs9  1  0.50000000  0.50000000  0.00000000  1
  Cs  Cs10  1  0.16544000  0.50831500  0.83229300  1
  Cs  Cs11  1  0.83456000  0.50831500  0.66770700  1
  Bi  Bi12  1  0.66846450  0.99468750  0.09282600  1
  Bi  Bi13  1  0.33153550  0.99468750  0.40717400  1
  Bi  Bi14  1  0.66846450  0.00531250  0.59282600  1
  Bi  Bi15  1  0.33153550  0.00531250  0.90717400  1
  Bi  Bi16  1  0.16846450  0.49468750  0.09282600  1
  Bi  Bi17  1  0.83153550  0.49468750  0.40717400  1
  Bi  Bi18  1  0.16846450  0.50531250  0.59282600  1
  Bi  Bi19  1  0.83153550  0.50531250  0.90717400  1
  Br  Br20  1  0.41482150  0.25099250  0.83575500  1
  Br  Br21  1  0.58615950  0.76295550  0.66645900  1
  Br  Br22  1  0.25000000  0.25000000  0.00000000  1
  Br  Br23  1  0.41482150  0.74900750  0.33575500  1
  Br  Br24  1  0.16946750  0.01977950  0.83021400  1
  Br  Br25  1  0.83053250  0.01977950  0.66978600  1
  Br  Br26  1  0.25000000  0.25000000  0.50000000  1
  Br  Br27  1  0.83053250  0.98022050  0.16978600  1
  Br  Br28  1  0.58517850  0.25099250  0.66424500  1
  Br  Br29  1  0.58517850  0.74900750  0.16424500  1
  Br  Br30  1  0.50000000  0.00000000  0.50000000  1
  Br  Br31  1  0.58615950  0.23704450  0.16645900  1
  Br  Br32  1  0.41384050  0.76295550  0.83354100  1
  Br  Br33  1  0.41384050  0.23704450  0.33354100  1
  Br  Br34  1  0.25000000  0.75000000  0.50000000  1
  Br  Br35  1  0.16946750  0.98022050  0.33021400  1
  Br  Br36  1  0.25000000  0.75000000  0.00000000  1
  Br  Br37  1  0.50000000  0.00000000  0.00000000  1
  Br  Br38  1  0.91482150  0.75099250  0.83575500  1
  Br  Br39  1  0.08615950  0.26295550  0.66645900  1
  Br  Br40  1  0.75000000  0.75000000  0.00000000  1
  Br  Br41  1  0.91482150  0.24900750  0.33575500  1
  Br  Br42  1  0.66946750  0.51977950  0.83021400  1
  Br  Br43  1  0.33053250  0.51977950  0.66978600  1
  Br  Br44  1  0.75000000  0.75000000  0.50000000  1
  Br  Br45  1  0.33053250  0.48022050  0.16978600  1
  Br  Br46  1  0.08517850  0.75099250  0.66424500  1
  Br  Br47  1  0.08517850  0.24900750  0.16424500  1
  Br  Br48  1  0.00000000  0.50000000  0.50000000  1
  Br  Br49  1  0.08615950  0.73704450  0.16645900  1
  Br  Br50  1  0.91384050  0.26295550  0.83354100  1
  Br  Br51  1  0.91384050  0.73704450  0.33354100  1
  Br  Br52  1  0.75000000  0.25000000  0.50000000  1
  Br  Br53  1  0.66946750  0.48022050  0.33021400  1
  Br  Br54  1  0.75000000  0.25000000  0.00000000  1
  Br  Br55  1  0.00000000  0.50000000  0.00000000  1
