# generated using pymatgen
data_Rb2SiAs2
_symmetry_space_group_name_H-M   'P 1'
_cell_length_a   6.48521200
_cell_length_b   7.40398600
_cell_length_c   14.00194400
_cell_angle_alpha   90.00000000
_cell_angle_beta   90.00000000
_cell_angle_gamma   90.00000000
_symmetry_Int_Tables_number   1
_chemical_formula_structural   Rb2SiAs2
_chemical_formula_sum   'Rb8 Si4 As8'
_cell_volume   672.32320789
_cell_formula_units_Z   4
loop_
 _symmetry_equiv_pos_site_id
 _symmetry_equiv_pos_as_xyz
  1  'x, y, z'
loop_
 _atom_site_type_symbol
 _atom_site_label
 _atom_site_symmetry_multiplicity
 _atom_site_fract_x
 _atom_site_fract_y
 _atom_site_fract_z
 _atom_site_occupancy
  Rb  Rb0  1  0.00000000  0.33356900  0.35627800  1
  Rb  Rb1  1  0.50000000  0.16643100  0.14372200  1
  Rb  Rb2  1  0.00000000  0.83356900  0.14372200  1
  Rb  Rb3  1  0.50000000  0.66643100  0.35627800  1
  Rb  Rb4  1  0.50000000  0.83356900  0.85627800  1
  Rb  Rb5  1  0.00000000  0.66643100  0.64372200  1
  Rb  Rb6  1  0.50000000  0.33356900  0.64372200  1
  Rb  Rb7  1  0.00000000  0.16643100  0.85627800  1
  Si  Si8  1  0.25000000  0.50000000  0.00000000  1
  Si  Si9  1  0.75000000  0.50000000  0.00000000  1
  Si  Si10  1  0.75000000  0.00000000  0.50000000  1
  Si  Si11  1  0.25000000  0.00000000  0.50000000  1
  As  As12  1  0.50000000  0.65784500  0.09664300  1
  As  As13  1  0.00000000  0.84215500  0.40335700  1
  As  As14  1  0.00000000  0.34215500  0.09664300  1
  As  As15  1  0.50000000  0.15784500  0.40335700  1
  As  As16  1  0.00000000  0.15784500  0.59664300  1
  As  As17  1  0.50000000  0.34215500  0.90335700  1
  As  As18  1  0.50000000  0.84215500  0.59664300  1
  As  As19  1  0.00000000  0.65784500  0.90335700  1
