# generated using pymatgen
data_K2ZnCl4
_symmetry_space_group_name_H-M   'P 1'
_cell_length_a   7.36471500
_cell_length_b   12.55918600
_cell_length_c   27.09253500
_cell_angle_alpha   90.00000000
_cell_angle_beta   90.00000000
_cell_angle_gamma   90.00000000
_symmetry_Int_Tables_number   1
_chemical_formula_structural   K2ZnCl4
_chemical_formula_sum   'K24 Zn12 Cl48'
_cell_volume   2505.91929777
_cell_formula_units_Z   12
loop_
 _symmetry_equiv_pos_site_id
 _symmetry_equiv_pos_as_xyz
  1  'x, y, z'
loop_
 _atom_site_type_symbol
 _atom_site_label
 _atom_site_symmetry_multiplicity
 _atom_site_fract_x
 _atom_site_fract_y
 _atom_site_fract_z
 _atom_site_occupancy
  K  K0  1  0.27794400  0.18678200  0.16820500  1
  K  K1  1  0.21335400  0.91881600  0.95694900  1
  K  K2  1  0.77794400  0.68678200  0.33179500  1
  K  K3  1  0.27804200  0.58318800  0.78974200  1
  K  K4  1  0.26178800  0.31419000  0.33415300  1
  K  K5  1  0.73564500  0.41460300  0.87972000  1
  K  K6  1  0.27794400  0.31321800  0.66820500  1
  K  K7  1  0.77794400  0.81321800  0.83179500  1
  K  K8  1  0.23564500  0.58539700  0.12028000  1
  K  K9  1  0.70645400  0.68692300  0.99838900  1
  K  K10  1  0.70645400  0.81307700  0.49838900  1
  K  K11  1  0.20645400  0.31307700  0.00161100  1
  K  K12  1  0.20645400  0.18692300  0.50161100  1
  K  K13  1  0.26178800  0.18581000  0.83415300  1
  K  K14  1  0.73564500  0.08539700  0.37972000  1
  K  K15  1  0.71335400  0.08118400  0.04305100  1
  K  K16  1  0.76178800  0.81419000  0.16584700  1
  K  K17  1  0.76178800  0.68581000  0.66584700  1
  K  K18  1  0.21335400  0.58118400  0.45694900  1
  K  K19  1  0.77804200  0.41681200  0.21025800  1
  K  K20  1  0.71335400  0.41881600  0.54305100  1
  K  K21  1  0.23564500  0.91460300  0.62028000  1
  K  K22  1  0.27804200  0.91681200  0.28974200  1
  K  K23  1  0.77804200  0.08318800  0.71025800  1
  Zn  Zn24  1  0.76352500  0.41796700  0.74036000  1
  Zn  Zn25  1  0.25011800  0.91926700  0.42789300  1
  Zn  Zn26  1  0.25011800  0.58073300  0.92789300  1
  Zn  Zn27  1  0.22045500  0.91768400  0.09512000  1
  Zn  Zn28  1  0.72045500  0.41768400  0.40488000  1
  Zn  Zn29  1  0.76352500  0.08203300  0.24036000  1
  Zn  Zn30  1  0.26352500  0.58203300  0.25964000  1
  Zn  Zn31  1  0.75011800  0.41926700  0.07210700  1
  Zn  Zn32  1  0.75011800  0.08073300  0.57210700  1
  Zn  Zn33  1  0.22045500  0.58231600  0.59512000  1
  Zn  Zn34  1  0.72045500  0.08231600  0.90488000  1
  Zn  Zn35  1  0.26352500  0.91796700  0.75964000  1
  Cl  Cl36  1  0.68681300  0.06337300  0.82290400  1
  Cl  Cl37  1  0.32629700  0.55640800  0.00795800  1
  Cl  Cl38  1  0.49814200  0.13758700  0.27802500  1
  Cl  Cl39  1  0.18488900  0.42131100  0.55565400  1
  Cl  Cl40  1  0.50881500  0.64302000  0.88883300  1
  Cl  Cl41  1  0.99081300  0.34905900  0.43029200  1
  Cl  Cl42  1  0.18324200  0.42480200  0.88755700  1
  Cl  Cl43  1  0.49814200  0.36241300  0.77802500  1
  Cl  Cl44  1  0.00881500  0.35698000  0.11116700  1
  Cl  Cl45  1  0.68324200  0.92480200  0.61244300  1
  Cl  Cl46  1  0.99814200  0.63758700  0.22197500  1
  Cl  Cl47  1  0.83458300  0.92541800  0.27935900  1
  Cl  Cl48  1  0.00107000  0.69383600  0.56485900  1
  Cl  Cl49  1  0.48138400  0.79373400  0.74428900  1
  Cl  Cl50  1  0.52228300  0.30047500  0.08403200  1
  Cl  Cl51  1  0.19554400  0.56411900  0.34057200  1
  Cl  Cl52  1  0.68324200  0.57519800  0.11244300  1
  Cl  Cl53  1  0.82629700  0.44359200  0.99204200  1
  Cl  Cl54  1  0.18488900  0.07868900  0.05565400  1
  Cl  Cl55  1  0.52228300  0.19952500  0.58403200  1
  Cl  Cl56  1  0.00881500  0.14302000  0.61116700  1
  Cl  Cl57  1  0.69554400  0.43588100  0.65942800  1
  Cl  Cl58  1  0.49081300  0.84905900  0.06970800  1
  Cl  Cl59  1  0.18681300  0.93662700  0.17709600  1
  Cl  Cl60  1  0.00107000  0.80616400  0.06485900  1
  Cl  Cl61  1  0.33458300  0.42541800  0.22064100  1
  Cl  Cl62  1  0.68681300  0.43662700  0.32290400  1
  Cl  Cl63  1  0.68488900  0.92131100  0.94434600  1
  Cl  Cl64  1  0.50107000  0.30616400  0.43514100  1
  Cl  Cl65  1  0.48138400  0.70626600  0.24428900  1
  Cl  Cl66  1  0.68488900  0.57868900  0.44434600  1
  Cl  Cl67  1  0.98138400  0.20626600  0.25571100  1
  Cl  Cl68  1  0.19554400  0.93588100  0.84057200  1
  Cl  Cl69  1  0.83458300  0.57458200  0.77935900  1
  Cl  Cl70  1  0.98138400  0.29373400  0.75571100  1
  Cl  Cl71  1  0.99081300  0.15094100  0.93029200  1
  Cl  Cl72  1  0.02228300  0.80047500  0.41596800  1
  Cl  Cl73  1  0.99814200  0.86241300  0.72197500  1
  Cl  Cl74  1  0.50881500  0.85698000  0.38883300  1
  Cl  Cl75  1  0.82629700  0.05640800  0.49204200  1
  Cl  Cl76  1  0.33458300  0.07458200  0.72064100  1
  Cl  Cl77  1  0.18324200  0.07519800  0.38755700  1
  Cl  Cl78  1  0.69554400  0.06411900  0.15942800  1
  Cl  Cl79  1  0.18681300  0.56337300  0.67709600  1
  Cl  Cl80  1  0.02228300  0.69952500  0.91596800  1
  Cl  Cl81  1  0.32629700  0.94359200  0.50795800  1
  Cl  Cl82  1  0.49081300  0.65094100  0.56970800  1
  Cl  Cl83  1  0.50107000  0.19383600  0.93514100  1
