# generated using pymatgen
data_Sr(H2N)2
_symmetry_space_group_name_H-M   'P 1'
_cell_length_a   5.51313200
_cell_length_b   5.51313200
_cell_length_c   11.00898000
_cell_angle_alpha   90.00000000
_cell_angle_beta   90.00000000
_cell_angle_gamma   90.00000000
_symmetry_Int_Tables_number   1
_chemical_formula_structural   Sr(H2N)2
_chemical_formula_sum   'Sr4 H16 N8'
_cell_volume   334.61381267
_cell_formula_units_Z   4
loop_
 _symmetry_equiv_pos_site_id
 _symmetry_equiv_pos_as_xyz
  1  'x, y, z'
loop_
 _atom_site_type_symbol
 _atom_site_label
 _atom_site_symmetry_multiplicity
 _atom_site_fract_x
 _atom_site_fract_y
 _atom_site_fract_z
 _atom_site_occupancy
  Sr  Sr0  1  0.00000000  0.50000000  0.25000000  1
  Sr  Sr1  1  0.00000000  0.00000000  0.00000000  1
  Sr  Sr2  1  0.50000000  0.00000000  0.75000000  1
  Sr  Sr3  1  0.50000000  0.50000000  0.50000000  1
  H  H4  1  0.64656300  0.00000000  0.45140500  1
  H  H5  1  0.35343700  0.00000000  0.45140500  1
  H  H6  1  0.14656300  0.00000000  0.29859500  1
  H  H7  1  0.85343700  0.00000000  0.29859500  1
  H  H8  1  0.50000000  0.85343700  0.04859500  1
  H  H9  1  0.50000000  0.14656300  0.04859500  1
  H  H10  1  0.50000000  0.35343700  0.20140500  1
  H  H11  1  0.50000000  0.64656300  0.20140500  1
  H  H12  1  0.14656300  0.50000000  0.95140500  1
  H  H13  1  0.85343700  0.50000000  0.95140500  1
  H  H14  1  0.64656300  0.50000000  0.79859500  1
  H  H15  1  0.35343700  0.50000000  0.79859500  1
  H  H16  1  0.00000000  0.35343700  0.54859500  1
  H  H17  1  0.00000000  0.64656300  0.54859500  1
  H  H18  1  0.00000000  0.85343700  0.70140500  1
  H  H19  1  0.00000000  0.14656300  0.70140500  1
  N  N20  1  0.00000000  0.50000000  0.49032100  1
  N  N21  1  0.50000000  0.50000000  0.25967900  1
  N  N22  1  0.00000000  0.50000000  0.00967900  1
  N  N23  1  0.00000000  0.00000000  0.24032100  1
  N  N24  1  0.50000000  0.00000000  0.99032100  1
  N  N25  1  0.00000000  0.00000000  0.75967900  1
  N  N26  1  0.50000000  0.00000000  0.50967900  1
  N  N27  1  0.50000000  0.50000000  0.74032100  1
