# generated using pymatgen
data_SrLa11Mg3Ga9O34
_symmetry_space_group_name_H-M   'P 1'
_cell_length_a   9.70872000
_cell_length_b   5.58109400
_cell_length_c   27.35344434
_cell_angle_alpha   90.00000000
_cell_angle_beta   90.05867733
_cell_angle_gamma   90.00000000
_symmetry_Int_Tables_number   1
_chemical_formula_structural   SrLa11Mg3Ga9O34
_chemical_formula_sum   'Sr2 La22 Mg6 Ga18 O68'
_cell_volume   1482.15323451
_cell_formula_units_Z   2
loop_
 _symmetry_equiv_pos_site_id
 _symmetry_equiv_pos_as_xyz
  1  'x, y, z'
loop_
 _atom_site_type_symbol
 _atom_site_label
 _atom_site_symmetry_multiplicity
 _atom_site_fract_x
 _atom_site_fract_y
 _atom_site_fract_z
 _atom_site_occupancy
  Sr  Sr0  1  0.82720200  0.50000000  0.20254100  1
  Sr  Sr1  1  0.32720200  0.00000000  0.20254100  1
  La  La2  1  0.68922300  0.00000000  0.03505600  1
  La  La3  1  0.50550000  0.50000000  0.37477200  1
  La  La4  1  0.98477900  0.00000000  0.12693000  1
  La  La5  1  0.67020400  0.00000000  0.53950800  1
  La  La6  1  0.65269300  0.00000000  0.29530200  1
  La  La7  1  0.83684000  0.50000000  0.70671600  1
  La  La8  1  0.83035800  0.50000000  0.46160600  1
  La  La9  1  0.50447900  0.50000000  0.87372300  1
  La  La10  1  0.99634000  0.00000000  0.62659200  1
  La  La11  1  0.66305100  0.00000000  0.79269300  1
  La  La12  1  0.83624900  0.50000000  0.96005100  1
  La  La13  1  0.18922300  0.50000000  0.03505600  1
  La  La14  1  0.00550000  0.00000000  0.37477200  1
  La  La15  1  0.48477900  0.50000000  0.12693000  1
  La  La16  1  0.17020400  0.50000000  0.53950800  1
  La  La17  1  0.15269300  0.50000000  0.29530200  1
  La  La18  1  0.33684000  0.00000000  0.70671600  1
  La  La19  1  0.33035800  0.00000000  0.46160600  1
  La  La20  1  0.00447900  0.00000000  0.87372300  1
  La  La21  1  0.49634000  0.50000000  0.62659200  1
  La  La22  1  0.16305100  0.50000000  0.79269300  1
  La  La23  1  0.33624900  0.00000000  0.96005100  1
  Mg  Mg24  1  0.81156500  0.50000000  0.08072800  1
  Mg  Mg25  1  0.67827200  0.00000000  0.17244400  1
  Mg  Mg26  1  0.84920200  0.50000000  0.33918600  1
  Mg  Mg27  1  0.31156500  0.00000000  0.08072800  1
  Mg  Mg28  1  0.17827200  0.50000000  0.17244400  1
  Mg  Mg29  1  0.34920200  0.00000000  0.33918600  1
  Ga  Ga30  1  0.50380700  0.50000000  0.00018000  1
  Ga  Ga31  1  0.50091300  0.50000000  0.50003600  1
  Ga  Ga32  1  0.97780700  0.00000000  0.24582500  1
  Ga  Ga33  1  0.66640700  0.00000000  0.41541100  1
  Ga  Ga34  1  0.83334800  0.50000000  0.58379700  1
  Ga  Ga35  1  0.50000600  0.50000000  0.75010200  1
  Ga  Ga36  1  0.66644700  0.00000000  0.66648500  1
  Ga  Ga37  1  0.66814300  0.00000000  0.91534700  1
  Ga  Ga38  1  0.83343400  0.50000000  0.83307600  1
  Ga  Ga39  1  0.00380700  0.00000000  0.00018000  1
  Ga  Ga40  1  0.00091300  0.00000000  0.50003600  1
  Ga  Ga41  1  0.47780700  0.50000000  0.24582500  1
  Ga  Ga42  1  0.16640700  0.50000000  0.41541100  1
  Ga  Ga43  1  0.33334800  0.00000000  0.58379700  1
  Ga  Ga44  1  0.00000600  0.00000000  0.75010200  1
  Ga  Ga45  1  0.16644700  0.50000000  0.66648500  1
  Ga  Ga46  1  0.16814300  0.50000000  0.91534700  1
  Ga  Ga47  1  0.33343400  0.00000000  0.83307600  1
  O  O48  1  0.78540150  0.75851550  0.12996700  1
  O  O49  1  0.89094100  0.74705100  0.03311200  1
  O  O50  1  0.62757500  0.50000000  0.05424100  1
  O  O51  1  0.95900950  0.24116250  0.29934100  1
  O  O52  1  0.55082200  0.74122500  0.19959800  1
  O  O53  1  0.78540150  0.24148450  0.12996700  1
  O  O54  1  0.89094100  0.25294900  0.03311200  1
  O  O55  1  0.79572500  0.00000000  0.22831100  1
  O  O56  1  0.61625900  0.25295900  0.46657400  1
  O  O57  1  0.71387700  0.25219100  0.36397200  1
  O  O58  1  0.95900950  0.75883750  0.29934100  1
  O  O59  1  0.55082200  0.25877500  0.19959800  1
  O  O60  1  0.85732700  0.00000000  0.44393800  1
  O  O61  1  0.97727000  0.50000000  0.39322600  1
  O  O62  1  0.78180400  0.75013400  0.63304700  1
  O  O63  1  0.88611750  0.75145750  0.53426300  1
  O  O64  1  0.61625900  0.74704100  0.46657400  1
  O  O65  1  0.71387700  0.74780900  0.36397200  1
  O  O66  1  0.52821200  0.00000000  0.61091900  1
  O  O67  1  0.63980000  0.50000000  0.55604000  1
  O  O68  1  0.94864300  0.24943200  0.79976300  1
  O  O69  1  0.55206300  0.75048000  0.70064400  1
  O  O70  1  0.78180400  0.24986600  0.63304700  1
  O  O71  1  0.88611750  0.24854250  0.53426300  1
  O  O72  1  0.69501100  0.50000000  0.77756600  1
  O  O73  1  0.80579300  0.00000000  0.72216300  1
  O  O74  1  0.61937350  0.24988050  0.96508900  1
  O  O75  1  0.71910250  0.24945950  0.86655700  1
  O  O76  1  0.94864300  0.75056800  0.79976300  1
  O  O77  1  0.55206300  0.24952000  0.70064400  1
  O  O78  1  0.86112200  0.00000000  0.94546300  1
  O  O79  1  0.97279100  0.50000000  0.88871400  1
  O  O80  1  0.61937350  0.75011950  0.96508900  1
  O  O81  1  0.71910250  0.75054050  0.86655700  1
  O  O82  1  0.28540150  0.25851550  0.12996700  1
  O  O83  1  0.39094100  0.24705100  0.03311200  1
  O  O84  1  0.12757500  0.00000000  0.05424100  1
  O  O85  1  0.45900950  0.74116250  0.29934100  1
  O  O86  1  0.05082200  0.24122500  0.19959800  1
  O  O87  1  0.28540150  0.74148450  0.12996700  1
  O  O88  1  0.39094100  0.75294900  0.03311200  1
  O  O89  1  0.29572500  0.50000000  0.22831100  1
  O  O90  1  0.11625900  0.75295900  0.46657400  1
  O  O91  1  0.21387700  0.75219100  0.36397200  1
  O  O92  1  0.45900950  0.25883750  0.29934100  1
  O  O93  1  0.05082200  0.75877500  0.19959800  1
  O  O94  1  0.35732700  0.50000000  0.44393800  1
  O  O95  1  0.47727000  0.00000000  0.39322600  1
  O  O96  1  0.28180400  0.25013400  0.63304700  1
  O  O97  1  0.38611750  0.25145750  0.53426300  1
  O  O98  1  0.11625900  0.24704100  0.46657400  1
  O  O99  1  0.21387700  0.24780900  0.36397200  1
  O  O100  1  0.02821200  0.50000000  0.61091900  1
  O  O101  1  0.13980000  0.00000000  0.55604000  1
  O  O102  1  0.44864300  0.74943200  0.79976300  1
  O  O103  1  0.05206300  0.25048000  0.70064400  1
  O  O104  1  0.28180400  0.74986600  0.63304700  1
  O  O105  1  0.38611750  0.74854250  0.53426300  1
  O  O106  1  0.19501100  0.00000000  0.77756600  1
  O  O107  1  0.30579300  0.50000000  0.72216300  1
  O  O108  1  0.11937350  0.74988050  0.96508900  1
  O  O109  1  0.21910250  0.74945950  0.86655700  1
  O  O110  1  0.44864300  0.25056800  0.79976300  1
  O  O111  1  0.05206300  0.74952000  0.70064400  1
  O  O112  1  0.36112200  0.50000000  0.94546300  1
  O  O113  1  0.47279100  0.00000000  0.88871400  1
  O  O114  1  0.11937350  0.25011950  0.96508900  1
  O  O115  1  0.21910250  0.25054050  0.86655700  1
