# generated using pymatgen
data_Ba2Bi6O11
_symmetry_space_group_name_H-M   'P 1'
_cell_length_a   6.65681600
_cell_length_b   4.48467400
_cell_length_c   23.72315267
_cell_angle_alpha   90.00000000
_cell_angle_beta   92.37410481
_cell_angle_gamma   90.00000000
_symmetry_Int_Tables_number   1
_chemical_formula_structural   Ba2Bi6O11
_chemical_formula_sum   'Ba4 Bi12 O22'
_cell_volume   707.61478810
_cell_formula_units_Z   2
loop_
 _symmetry_equiv_pos_site_id
 _symmetry_equiv_pos_as_xyz
  1  'x, y, z'
loop_
 _atom_site_type_symbol
 _atom_site_label
 _atom_site_symmetry_multiplicity
 _atom_site_fract_x
 _atom_site_fract_y
 _atom_site_fract_z
 _atom_site_occupancy
  Ba  Ba0  1  0.79827000  0.00000000  0.43587000  1
  Ba  Ba1  1  0.20173000  0.00000000  0.56413000  1
  Ba  Ba2  1  0.29827000  0.50000000  0.43587000  1
  Ba  Ba3  1  0.70173000  0.50000000  0.56413000  1
  Bi  Bi4  1  0.21821100  0.00000000  0.82115800  1
  Bi  Bi5  1  0.73584000  0.00000000  0.93723800  1
  Bi  Bi6  1  0.23576900  0.00000000  0.31406300  1
  Bi  Bi7  1  0.26416000  0.00000000  0.06276200  1
  Bi  Bi8  1  0.78178900  0.00000000  0.17884200  1
  Bi  Bi9  1  0.76423100  0.00000000  0.68593700  1
  Bi  Bi10  1  0.71821100  0.50000000  0.82115800  1
  Bi  Bi11  1  0.23584000  0.50000000  0.93723800  1
  Bi  Bi12  1  0.73576900  0.50000000  0.31406300  1
  Bi  Bi13  1  0.76416000  0.50000000  0.06276200  1
  Bi  Bi14  1  0.28178900  0.50000000  0.17884200  1
  Bi  Bi15  1  0.26423100  0.50000000  0.68593700  1
  O  O16  1  0.61819300  0.00000000  0.84814600  1
  O  O17  1  0.50000000  0.00000000  0.00000000  1
  O  O18  1  0.93921200  0.00000000  0.76351800  1
  O  O19  1  0.14654500  0.00000000  0.91163200  1
  O  O20  1  0.85345500  0.00000000  0.08836800  1
  O  O21  1  0.38180700  0.00000000  0.15185400  1
  O  O22  1  0.06078800  0.00000000  0.23648200  1
  O  O23  1  0.63243700  0.00000000  0.32991300  1
  O  O24  1  0.16224000  0.00000000  0.42301900  1
  O  O25  1  0.83776000  0.00000000  0.57698100  1
  O  O26  1  0.36756300  0.00000000  0.67008700  1
  O  O27  1  0.11819300  0.50000000  0.84814600  1
  O  O28  1  0.00000000  0.50000000  0.00000000  1
  O  O29  1  0.43921200  0.50000000  0.76351800  1
  O  O30  1  0.64654500  0.50000000  0.91163200  1
  O  O31  1  0.35345500  0.50000000  0.08836800  1
  O  O32  1  0.88180700  0.50000000  0.15185400  1
  O  O33  1  0.56078800  0.50000000  0.23648200  1
  O  O34  1  0.13243700  0.50000000  0.32991300  1
  O  O35  1  0.66224000  0.50000000  0.42301900  1
  O  O36  1  0.33776000  0.50000000  0.57698100  1
  O  O37  1  0.86756300  0.50000000  0.67008700  1
