# generated using pymatgen
data_La2Te4Pb
_symmetry_space_group_name_H-M   'P 1'
_cell_length_a   9.74847400
_cell_length_b   9.74847400
_cell_length_c   9.77721400
_cell_angle_alpha   90.00000000
_cell_angle_beta   90.00000000
_cell_angle_gamma   90.00000000
_symmetry_Int_Tables_number   1
_chemical_formula_structural   La2Te4Pb
_chemical_formula_sum   'La8 Te16 Pb4'
_cell_volume   929.15548809
_cell_formula_units_Z   4
loop_
 _symmetry_equiv_pos_site_id
 _symmetry_equiv_pos_as_xyz
  1  'x, y, z'
loop_
 _atom_site_type_symbol
 _atom_site_label
 _atom_site_symmetry_multiplicity
 _atom_site_fract_x
 _atom_site_fract_y
 _atom_site_fract_z
 _atom_site_occupancy
  La  La0  1  0.37120600  0.75000000  0.62500000  1
  La  La1  1  0.12879400  0.75000000  0.12500000  1
  La  La2  1  0.25000000  0.37120600  0.37500000  1
  La  La3  1  0.25000000  0.12879400  0.87500000  1
  La  La4  1  0.87120600  0.25000000  0.12500000  1
  La  La5  1  0.62879400  0.25000000  0.62500000  1
  La  La6  1  0.75000000  0.87120600  0.87500000  1
  La  La7  1  0.75000000  0.62879400  0.37500000  1
  Te  Te8  1  0.57596550  0.17200550  0.94602750  1
  Te  Te9  1  0.32799450  0.42403450  0.69602750  1
  Te  Te10  1  0.57596550  0.32799450  0.30397250  1
  Te  Te11  1  0.17200550  0.07596550  0.19602750  1
  Te  Te12  1  0.17200550  0.42403450  0.05397250  1
  Te  Te13  1  0.92403450  0.32799450  0.44602750  1
  Te  Te14  1  0.32799450  0.07596550  0.55397250  1
  Te  Te15  1  0.92403450  0.17200550  0.80397250  1
  Te  Te16  1  0.07596550  0.67200550  0.44602750  1
  Te  Te17  1  0.82799450  0.92403450  0.19602750  1
  Te  Te18  1  0.07596550  0.82799450  0.80397250  1
  Te  Te19  1  0.67200550  0.57596550  0.69602750  1
  Te  Te20  1  0.67200550  0.92403450  0.55397250  1
  Te  Te21  1  0.42403450  0.82799450  0.94602750  1
  Te  Te22  1  0.82799450  0.57596550  0.05397250  1
  Te  Te23  1  0.42403450  0.67200550  0.30397250  1
  Pb  Pb24  1  0.50000000  0.00000000  0.25000000  1
  Pb  Pb25  1  0.00000000  0.00000000  0.50000000  1
  Pb  Pb26  1  0.00000000  0.50000000  0.75000000  1
  Pb  Pb27  1  0.50000000  0.50000000  0.00000000  1
