# generated using pymatgen
data_CaMgSiO4
_symmetry_space_group_name_H-M   'P 1'
_cell_length_a   5.24078500
_cell_length_b   6.86954800
_cell_length_c   9.13477400
_cell_angle_alpha   90.00000000
_cell_angle_beta   90.00000000
_cell_angle_gamma   90.00000000
_symmetry_Int_Tables_number   1
_chemical_formula_structural   CaMgSiO4
_chemical_formula_sum   'Ca4 Mg4 Si4 O16'
_cell_volume   328.86852688
_cell_formula_units_Z   4
loop_
 _symmetry_equiv_pos_site_id
 _symmetry_equiv_pos_as_xyz
  1  'x, y, z'
loop_
 _atom_site_type_symbol
 _atom_site_label
 _atom_site_symmetry_multiplicity
 _atom_site_fract_x
 _atom_site_fract_y
 _atom_site_fract_z
 _atom_site_occupancy
  Ca  Ca0  1  0.03604900  0.75000000  0.64998700  1
  Ca  Ca1  1  0.96395100  0.25000000  0.35001300  1
  Ca  Ca2  1  0.53604900  0.25000000  0.85001300  1
  Ca  Ca3  1  0.46395100  0.75000000  0.14998700  1
  Mg  Mg4  1  0.50000000  0.00000000  0.50000000  1
  Mg  Mg5  1  0.00000000  0.00000000  0.00000000  1
  Mg  Mg6  1  0.00000000  0.50000000  0.00000000  1
  Mg  Mg7  1  0.50000000  0.50000000  0.50000000  1
  Si  Si8  1  0.04264800  0.25000000  0.68285900  1
  Si  Si9  1  0.45735200  0.25000000  0.18285900  1
  Si  Si10  1  0.54264800  0.75000000  0.81714100  1
  Si  Si11  1  0.95735200  0.75000000  0.31714100  1
  O  O12  1  0.74938600  0.25000000  0.61603900  1
  O  O13  1  0.19925600  0.44181300  0.62588700  1
  O  O14  1  0.24938600  0.75000000  0.88396100  1
  O  O15  1  0.19925600  0.05818700  0.62588700  1
  O  O16  1  0.69925600  0.55818700  0.87411300  1
  O  O17  1  0.75061400  0.25000000  0.11603900  1
  O  O18  1  0.80074400  0.55818700  0.37411300  1
  O  O19  1  0.25061400  0.75000000  0.38396100  1
  O  O20  1  0.93836200  0.75000000  0.13587500  1
  O  O21  1  0.80074400  0.94181300  0.37411300  1
  O  O22  1  0.30074400  0.05818700  0.12588700  1
  O  O23  1  0.06163800  0.25000000  0.86412500  1
  O  O24  1  0.43836200  0.25000000  0.36412500  1
  O  O25  1  0.30074400  0.44181300  0.12588700  1
  O  O26  1  0.69925600  0.94181300  0.87411300  1
  O  O27  1  0.56163800  0.75000000  0.63587500  1
