# generated using pymatgen
data_TiVO4
_symmetry_space_group_name_H-M   'P 1'
_cell_length_a   6.46329963
_cell_length_b   6.49979695
_cell_length_c   3.00334700
_cell_angle_alpha   90.00000000
_cell_angle_beta   90.00000000
_cell_angle_gamma   90.00000000
_symmetry_Int_Tables_number   1
_chemical_formula_structural   TiVO4
_chemical_formula_sum   'Ti2 V2 O8'
_cell_volume   126.17101367
_cell_formula_units_Z   2
loop_
 _symmetry_equiv_pos_site_id
 _symmetry_equiv_pos_as_xyz
  1  'x, y, z'
loop_
 _atom_site_type_symbol
 _atom_site_label
 _atom_site_symmetry_multiplicity
 _atom_site_fract_x
 _atom_site_fract_y
 _atom_site_fract_z
 _atom_site_occupancy
  Ti  Ti0  1  0.00000000  0.50000000  0.50000000  1
  Ti  Ti1  1  0.50000000  0.00000000  0.50000000  1
  V  V2  1  0.00000000  0.00000000  0.00000000  1
  V  V3  1  0.50000000  0.50000000  0.00000000  1
  O  O4  1  0.80084600  0.50000000  0.00000000  1
  O  O5  1  0.19915400  0.50000000  0.00000000  1
  O  O6  1  0.00000000  0.19614400  0.50000000  1
  O  O7  1  0.00000000  0.80385600  0.50000000  1
  O  O8  1  0.30084600  0.00000000  0.00000000  1
  O  O9  1  0.69915400  0.00000000  0.00000000  1
  O  O10  1  0.50000000  0.69614400  0.50000000  1
  O  O11  1  0.50000000  0.30385600  0.50000000  1
