# generated using pymatgen
data_Cd2H2SO6
_symmetry_space_group_name_H-M   'P 1'
_cell_length_a   11.81122400
_cell_length_b   7.91780200
_cell_length_c   6.61962830
_cell_angle_alpha   90.00000000
_cell_angle_beta   116.73202738
_cell_angle_gamma   90.00000000
_symmetry_Int_Tables_number   1
_chemical_formula_structural   Cd2H2SO6
_chemical_formula_sum   'Cd8 H8 S4 O24'
_cell_volume   552.89543478
_cell_formula_units_Z   4
loop_
 _symmetry_equiv_pos_site_id
 _symmetry_equiv_pos_as_xyz
  1  'x, y, z'
loop_
 _atom_site_type_symbol
 _atom_site_label
 _atom_site_symmetry_multiplicity
 _atom_site_fract_x
 _atom_site_fract_y
 _atom_site_fract_z
 _atom_site_occupancy
  Cd  Cd0  1  0.25051150  0.09650550  0.68971600  1
  Cd  Cd1  1  0.74948850  0.09650550  0.81028400  1
  Cd  Cd2  1  0.74948850  0.90349450  0.31028400  1
  Cd  Cd3  1  0.25051150  0.90349450  0.18971600  1
  Cd  Cd4  1  0.75051150  0.59650550  0.68971600  1
  Cd  Cd5  1  0.24948850  0.59650550  0.81028400  1
  Cd  Cd6  1  0.24948850  0.40349450  0.31028400  1
  Cd  Cd7  1  0.75051150  0.40349450  0.18971600  1
  H  H8  1  0.59645750  0.36047750  0.70887300  1
  H  H9  1  0.40354250  0.36047750  0.79112700  1
  H  H10  1  0.40354250  0.63952250  0.29112700  1
  H  H11  1  0.59645750  0.63952250  0.20887300  1
  H  H12  1  0.09645750  0.86047750  0.70887300  1
  H  H13  1  0.90354250  0.86047750  0.79112700  1
  H  H14  1  0.90354250  0.13952250  0.29112700  1
  H  H15  1  0.09645750  0.13952250  0.20887300  1
  S  S16  1  0.50000000  0.81136300  0.75000000  1
  S  S17  1  0.50000000  0.18863700  0.25000000  1
  S  S18  1  0.00000000  0.31136300  0.75000000  1
  S  S19  1  0.00000000  0.68863700  0.25000000  1
  O  O20  1  0.60752000  0.92202000  0.90454500  1
  O  O21  1  0.39248000  0.92202000  0.59545500  1
  O  O22  1  0.39248000  0.07798000  0.09545500  1
  O  O23  1  0.60752000  0.07798000  0.40454500  1
  O  O24  1  0.54111200  0.70474500  0.60929100  1
  O  O25  1  0.45888800  0.70474500  0.89070900  1
  O  O26  1  0.45888800  0.29525500  0.39070900  1
  O  O27  1  0.54111200  0.29525500  0.10929100  1
  O  O28  1  0.18776200  0.86712600  0.80726500  1
  O  O29  1  0.81223800  0.86712600  0.69273500  1
  O  O30  1  0.81223800  0.13287400  0.19273500  1
  O  O31  1  0.18776200  0.13287400  0.30726500  1
  O  O32  1  0.10752000  0.42202000  0.90454500  1
  O  O33  1  0.89248000  0.42202000  0.59545500  1
  O  O34  1  0.89248000  0.57798000  0.09545500  1
  O  O35  1  0.10752000  0.57798000  0.40454500  1
  O  O36  1  0.04111200  0.20474500  0.60929100  1
  O  O37  1  0.95888800  0.20474500  0.89070900  1
  O  O38  1  0.95888800  0.79525500  0.39070900  1
  O  O39  1  0.04111200  0.79525500  0.10929100  1
  O  O40  1  0.68776200  0.36712600  0.80726500  1
  O  O41  1  0.31223800  0.36712600  0.69273500  1
  O  O42  1  0.31223800  0.63287400  0.19273500  1
  O  O43  1  0.68776200  0.63287400  0.30726500  1
