# generated using pymatgen
data_TiNbTl(O2F)2
_symmetry_space_group_name_H-M   'P 1'
_cell_length_a   10.39380000
_cell_length_b   10.43332200
_cell_length_c   7.45304822
_cell_angle_alpha   90.00000000
_cell_angle_beta   133.41458865
_cell_angle_gamma   90.00000000
_symmetry_Int_Tables_number   1
_chemical_formula_structural   TiNbTl(O2F)2
_chemical_formula_sum   'Ti4 Nb4 Tl4 O16 F8'
_cell_volume   587.09253025
_cell_formula_units_Z   4
loop_
 _symmetry_equiv_pos_site_id
 _symmetry_equiv_pos_as_xyz
  1  'x, y, z'
loop_
 _atom_site_type_symbol
 _atom_site_label
 _atom_site_symmetry_multiplicity
 _atom_site_fract_x
 _atom_site_fract_y
 _atom_site_fract_z
 _atom_site_occupancy
  Ti  Ti0  1  0.24571900  0.75546900  0.98584900  1
  Ti  Ti1  1  0.24571900  0.24453100  0.48584900  1
  Ti  Ti2  1  0.74571900  0.25546900  0.98584900  1
  Ti  Ti3  1  0.74571900  0.74453100  0.48584900  1
  Nb  Nb4  1  0.01047550  0.00837250  0.01071300  1
  Nb  Nb5  1  0.01047550  0.99162750  0.51071300  1
  Nb  Nb6  1  0.51047550  0.50837250  0.01071300  1
  Nb  Nb7  1  0.51047550  0.49162750  0.51071300  1
  Tl  Tl8  1  0.42575550  0.16102450  0.17257200  1
  Tl  Tl9  1  0.42575550  0.83897550  0.67257200  1
  Tl  Tl10  1  0.92575550  0.66102450  0.17257200  1
  Tl  Tl11  1  0.92575550  0.33897550  0.67257200  1
  O  O12  1  0.81987550  0.12794650  0.89786100  1
  O  O13  1  0.49916800  0.43153000  0.25027600  1
  O  O14  1  0.81987550  0.87205350  0.39786100  1
  O  O15  1  0.17944250  0.12948050  0.60728500  1
  O  O16  1  0.19669450  0.12709050  0.25792700  1
  O  O17  1  0.49916800  0.56847000  0.75027600  1
  O  O18  1  0.17944250  0.87051950  0.10728500  1
  O  O19  1  0.19669450  0.87290950  0.75792700  1
  O  O20  1  0.31987550  0.62794650  0.89786100  1
  O  O21  1  0.99916800  0.93153000  0.25027600  1
  O  O22  1  0.31987550  0.37205350  0.39786100  1
  O  O23  1  0.67944250  0.62948050  0.60728500  1
  O  O24  1  0.69669450  0.62709050  0.25792700  1
  O  O25  1  0.99916800  0.06847000  0.75027600  1
  O  O26  1  0.67944250  0.37051950  0.10728500  1
  O  O27  1  0.69669450  0.37290950  0.75792700  1
  F  F28  1  0.80365550  0.12804250  0.24681200  1
  F  F29  1  0.49921400  0.81558200  0.25070500  1
  F  F30  1  0.80365550  0.87195750  0.74681200  1
  F  F31  1  0.49921400  0.18441800  0.75070500  1
  F  F32  1  0.30365550  0.62804250  0.24681200  1
  F  F33  1  0.99921400  0.31558200  0.25070500  1
  F  F34  1  0.30365550  0.37195750  0.74681200  1
  F  F35  1  0.99921400  0.68441800  0.75070500  1
