# generated using pymatgen
data_Re2H4O9
_symmetry_space_group_name_H-M   'P 1'
_cell_length_a   4.96967700
_cell_length_b   9.12637300
_cell_length_c   8.78397328
_cell_angle_alpha   90.00000000
_cell_angle_beta   103.36226955
_cell_angle_gamma   90.00000000
_symmetry_Int_Tables_number   1
_chemical_formula_structural   Re2H4O9
_chemical_formula_sum   'Re4 H8 O18'
_cell_volume   387.61288923
_cell_formula_units_Z   2
loop_
 _symmetry_equiv_pos_site_id
 _symmetry_equiv_pos_as_xyz
  1  'x, y, z'
loop_
 _atom_site_type_symbol
 _atom_site_label
 _atom_site_symmetry_multiplicity
 _atom_site_fract_x
 _atom_site_fract_y
 _atom_site_fract_z
 _atom_site_occupancy
  Re  Re0  1  0.86739200  0.23667700  0.88520500  1
  Re  Re1  1  0.13260800  0.73667700  0.11479500  1
  Re  Re2  1  0.43982900  0.23987100  0.44608200  1
  Re  Re3  1  0.56017100  0.73987100  0.55391800  1
  H  H4  1  0.55143300  0.58279800  0.10174400  1
  H  H5  1  0.44856700  0.08279800  0.89825600  1
  H  H6  1  0.28249800  0.40916200  0.81277000  1
  H  H7  1  0.97855600  0.47650700  0.71083100  1
  H  H8  1  0.71750200  0.90916200  0.18723000  1
  H  H9  1  0.02144400  0.97650700  0.28916900  1
  H  H10  1  0.98096100  0.53573800  0.28633300  1
  H  H11  1  0.01903900  0.03573800  0.71366700  1
  O  O12  1  0.64269900  0.21753000  0.64196400  1
  O  O13  1  0.35730100  0.71753000  0.35803600  1
  O  O14  1  0.65391300  0.24951300  0.31662700  1
  O  O15  1  0.34608700  0.74951300  0.68337300  1
  O  O16  1  0.11172400  0.26076700  0.05682000  1
  O  O17  1  0.88827600  0.76076700  0.94318000  1
  O  O18  1  0.62880800  0.37763600  0.88533300  1
  O  O19  1  0.37119200  0.87763600  0.11466700  1
  O  O20  1  0.34358400  0.58646200  0.06029800  1
  O  O21  1  0.65641600  0.08646200  0.93970200  1
  O  O22  1  0.24389200  0.40019600  0.42989400  1
  O  O23  1  0.75610800  0.90019600  0.57010600  1
  O  O24  1  0.78077900  0.58859800  0.59986800  1
  O  O25  1  0.21922100  0.08859800  0.40013200  1
  O  O26  1  0.08086600  0.39123500  0.77154600  1
  O  O27  1  0.91913400  0.89123500  0.22845400  1
  O  O28  1  0.89610600  0.59520900  0.19355400  1
  O  O29  1  0.10389400  0.09520900  0.80644600  1
