# generated using pymatgen
data_Re(TeBr2)2
_symmetry_space_group_name_H-M   'P 1'
_cell_length_a   11.69757400
_cell_length_b   11.69757400
_cell_length_c   14.67391200
_cell_angle_alpha   90.00000000
_cell_angle_beta   90.00000000
_cell_angle_gamma   90.00000000
_symmetry_Int_Tables_number   1
_chemical_formula_structural   Re(TeBr2)2
_chemical_formula_sum   'Re8 Te16 Br32'
_cell_volume   2007.87888554
_cell_formula_units_Z   8
loop_
 _symmetry_equiv_pos_site_id
 _symmetry_equiv_pos_as_xyz
  1  'x, y, z'
loop_
 _atom_site_type_symbol
 _atom_site_label
 _atom_site_symmetry_multiplicity
 _atom_site_fract_x
 _atom_site_fract_y
 _atom_site_fract_z
 _atom_site_occupancy
  Re  Re0  1  0.53369650  0.88307950  0.32126350  1
  Re  Re1  1  0.38307950  0.96630350  0.17873650  1
  Re  Re2  1  0.46630350  0.11692050  0.32126350  1
  Re  Re3  1  0.61692050  0.03369650  0.17873650  1
  Re  Re4  1  0.03369650  0.38307950  0.82126350  1
  Re  Re5  1  0.88307950  0.46630350  0.67873650  1
  Re  Re6  1  0.96630350  0.61692050  0.82126350  1
  Re  Re7  1  0.11692050  0.53369650  0.67873650  1
  Te  Te8  1  0.30414000  0.27624400  0.37587200  1
  Te  Te9  1  0.18010350  0.55203650  0.85118450  1
  Te  Te10  1  0.77624400  0.19586000  0.12412800  1
  Te  Te11  1  0.31989650  0.94796350  0.35118450  1
  Te  Te12  1  0.19586000  0.22375600  0.87587200  1
  Te  Te13  1  0.05203650  0.31989650  0.64881550  1
  Te  Te14  1  0.72375600  0.30414000  0.62412800  1
  Te  Te15  1  0.44796350  0.18010350  0.14881550  1
  Te  Te16  1  0.80414000  0.77624400  0.87587200  1
  Te  Te17  1  0.68010350  0.05203650  0.35118450  1
  Te  Te18  1  0.27624400  0.69586000  0.62412800  1
  Te  Te19  1  0.81989650  0.44796350  0.85118450  1
  Te  Te20  1  0.69586000  0.72375600  0.37587200  1
  Te  Te21  1  0.55203650  0.81989650  0.14881550  1
  Te  Te22  1  0.22375600  0.80414000  0.12412800  1
  Te  Te23  1  0.94796350  0.68010350  0.64881550  1
  Br  Br24  1  0.32987200  0.61620400  0.07837100  1
  Br  Br25  1  0.83133700  0.95707000  0.16127500  1
  Br  Br26  1  0.85592250  0.44549650  0.49856450  1
  Br  Br27  1  0.11620400  0.17012800  0.42162900  1
  Br  Br28  1  0.87666700  0.28120100  0.26601200  1
  Br  Br29  1  0.21879900  0.37666700  0.23398800  1
  Br  Br30  1  0.45707000  0.66866300  0.33872500  1
  Br  Br31  1  0.64407750  0.05450350  0.99856450  1
  Br  Br32  1  0.17012800  0.88379600  0.57837100  1
  Br  Br33  1  0.44549650  0.14407750  0.50143550  1
  Br  Br34  1  0.16866300  0.04293000  0.16127500  1
  Br  Br35  1  0.05450350  0.35592250  0.00143550  1
  Br  Br36  1  0.54293000  0.33133700  0.33872500  1
  Br  Br37  1  0.38379600  0.32987200  0.92162900  1
  Br  Br38  1  0.78120100  0.62333300  0.23398800  1
  Br  Br39  1  0.12333300  0.71879900  0.26601200  1
  Br  Br40  1  0.82987200  0.11620400  0.57837100  1
  Br  Br41  1  0.33133700  0.45707000  0.66127500  1
  Br  Br42  1  0.35592250  0.94549650  0.99856450  1
  Br  Br43  1  0.61620400  0.67012800  0.92162900  1
  Br  Br44  1  0.37666700  0.78120100  0.76601200  1
  Br  Br45  1  0.71879900  0.87666700  0.73398800  1
  Br  Br46  1  0.95707000  0.16866300  0.83872500  1
  Br  Br47  1  0.14407750  0.55450350  0.49856450  1
  Br  Br48  1  0.67012800  0.38379600  0.07837100  1
  Br  Br49  1  0.94549650  0.64407750  0.00143550  1
  Br  Br50  1  0.66866300  0.54293000  0.66127500  1
  Br  Br51  1  0.55450350  0.85592250  0.50143550  1
  Br  Br52  1  0.04293000  0.83133700  0.83872500  1
  Br  Br53  1  0.88379600  0.82987200  0.42162900  1
  Br  Br54  1  0.28120100  0.12333300  0.73398800  1
  Br  Br55  1  0.62333300  0.21879900  0.76601200  1
