# generated using pymatgen
data_K8Ti5P2(O4F11)2
_symmetry_space_group_name_H-M   'P 1'
_cell_length_a   10.43544300
_cell_length_b   10.98433800
_cell_length_c   25.71884908
_cell_angle_alpha   90.00000000
_cell_angle_beta   105.33240863
_cell_angle_gamma   90.00000000
_symmetry_Int_Tables_number   1
_chemical_formula_structural   K8Ti5P2(O4F11)2
_chemical_formula_sum   'K32 Ti20 P8 O32 F88'
_cell_volume   2843.13260664
_cell_formula_units_Z   4
loop_
 _symmetry_equiv_pos_site_id
 _symmetry_equiv_pos_as_xyz
  1  'x, y, z'
loop_
 _atom_site_type_symbol
 _atom_site_label
 _atom_site_symmetry_multiplicity
 _atom_site_fract_x
 _atom_site_fract_y
 _atom_site_fract_z
 _atom_site_occupancy
  K  K0  1  0.99343100  0.91130200  0.19736700  1
  K  K1  1  0.54170100  0.05564600  0.19749200  1
  K  K2  1  0.00656900  0.41130200  0.30263300  1
  K  K3  1  0.15217000  0.74233400  0.35316200  1
  K  K4  1  0.73633200  0.72069100  0.77750700  1
  K  K5  1  0.70778500  0.07860100  0.99416800  1
  K  K6  1  0.70778500  0.42139900  0.49416800  1
  K  K7  1  0.36899300  0.69126700  0.14844200  1
  K  K8  1  0.54170100  0.44435400  0.69749200  1
  K  K9  1  0.55600600  0.79837600  0.44390400  1
  K  K10  1  0.98055500  0.75380200  0.05015900  1
  K  K11  1  0.73633200  0.77930900  0.27750700  1
  K  K12  1  0.01944500  0.25380200  0.44984100  1
  K  K13  1  0.45829900  0.94435400  0.80250800  1
  K  K14  1  0.36899300  0.80873300  0.64844200  1
  K  K15  1  0.63100700  0.19126700  0.35155800  1
  K  K16  1  0.44399400  0.29837600  0.05609600  1
  K  K17  1  0.55600600  0.70162400  0.94390400  1
  K  K18  1  0.84783000  0.24233400  0.14683800  1
  K  K19  1  0.29221500  0.57860100  0.50583200  1
  K  K20  1  0.44399400  0.20162400  0.55609600  1
  K  K21  1  0.00656900  0.08869800  0.80263300  1
  K  K22  1  0.26366800  0.22069100  0.72249300  1
  K  K23  1  0.29221500  0.92139900  0.00583200  1
  K  K24  1  0.84783000  0.25766600  0.64683800  1
  K  K25  1  0.98055500  0.74619800  0.55015900  1
  K  K26  1  0.26366800  0.27930900  0.22249300  1
  K  K27  1  0.15217000  0.75766600  0.85316200  1
  K  K28  1  0.99343100  0.58869800  0.69736700  1
  K  K29  1  0.63100700  0.30873300  0.85155800  1
  K  K30  1  0.45829900  0.55564600  0.30250800  1
  K  K31  1  0.01944500  0.24619800  0.94984100  1
  Ti  Ti32  1  0.75898000  0.42939100  0.00365300  1
  Ti  Ti33  1  0.75898000  0.07060900  0.50365300  1
  Ti  Ti34  1  0.93384500  0.07949000  0.31667300  1
  Ti  Ti35  1  0.14009800  0.38182000  0.59508100  1
  Ti  Ti36  1  0.85990200  0.88182000  0.90491900  1
  Ti  Ti37  1  0.40002300  0.92114500  0.30433700  1
  Ti  Ti38  1  0.35208500  0.37892100  0.39811700  1
  Ti  Ti39  1  0.85990200  0.61818000  0.40491900  1
  Ti  Ti40  1  0.40002300  0.57885500  0.80433700  1
  Ti  Ti41  1  0.35208500  0.12107900  0.89811700  1
  Ti  Ti42  1  0.24102000  0.92939100  0.49634700  1
  Ti  Ti43  1  0.59997700  0.42114500  0.19566300  1
  Ti  Ti44  1  0.06615500  0.92051000  0.68332700  1
  Ti  Ti45  1  0.64791500  0.87892100  0.10188300  1
  Ti  Ti46  1  0.59997700  0.07885500  0.69566300  1
  Ti  Ti47  1  0.64791500  0.62107900  0.60188300  1
  Ti  Ti48  1  0.24102000  0.57060900  0.99634700  1
  Ti  Ti49  1  0.14009800  0.11818000  0.09508100  1
  Ti  Ti50  1  0.06615500  0.57949000  0.18332700  1
  Ti  Ti51  1  0.93384500  0.42051000  0.81667300  1
  P  P52  1  0.26207600  0.08776900  0.38636700  1
  P  P53  1  0.08961200  0.41590000  0.07501000  1
  P  P54  1  0.91038800  0.91590000  0.42499000  1
  P  P55  1  0.91038800  0.58410000  0.92499000  1
  P  P56  1  0.73792400  0.91223100  0.61363300  1
  P  P57  1  0.08961200  0.08410000  0.57501000  1
  P  P58  1  0.73792400  0.58776900  0.11363300  1
  P  P59  1  0.26207600  0.41223100  0.88636700  1
  O  O60  1  0.05192400  0.60196700  0.96150500  1
  O  O61  1  0.81411300  0.94186400  0.46010900  1
  O  O62  1  0.87850000  0.88401200  0.65021300  1
  O  O63  1  0.32523100  0.98126500  0.36295700  1
  O  O64  1  0.64965400  0.70248100  0.10964500  1
  O  O65  1  0.67476900  0.48126500  0.13704300  1
  O  O66  1  0.94807600  0.39803300  0.03849500  1
  O  O67  1  0.64965400  0.79751900  0.60964500  1
  O  O68  1  0.35034600  0.20248100  0.39035500  1
  O  O69  1  0.67476900  0.01873500  0.63704300  1
  O  O70  1  0.13425700  0.29846100  0.10771700  1
  O  O71  1  0.86574300  0.70153900  0.89228300  1
  O  O72  1  0.18588700  0.05813600  0.53989100  1
  O  O73  1  0.13425700  0.20153900  0.60771700  1
  O  O74  1  0.35034600  0.29751900  0.89035500  1
  O  O75  1  0.81411300  0.55813600  0.96010900  1
  O  O76  1  0.18588700  0.44186400  0.03989100  1
  O  O77  1  0.87850000  0.61598800  0.15021300  1
  O  O78  1  0.90913100  0.02433900  0.38651400  1
  O  O79  1  0.12150000  0.38401200  0.84978700  1
  O  O80  1  0.86574300  0.79846100  0.39228300  1
  O  O81  1  0.12150000  0.11598800  0.34978700  1
  O  O82  1  0.25055900  0.05538100  0.44327200  1
  O  O83  1  0.09086900  0.52433900  0.11348600  1
  O  O84  1  0.05192400  0.89803300  0.46150500  1
  O  O85  1  0.74944100  0.94461900  0.55672800  1
  O  O86  1  0.94807600  0.10196700  0.53849500  1
  O  O87  1  0.74944100  0.55538100  0.05672800  1
  O  O88  1  0.09086900  0.97566100  0.61348600  1
  O  O89  1  0.32523100  0.51873500  0.86295700  1
  O  O90  1  0.25055900  0.44461900  0.94327200  1
  O  O91  1  0.90913100  0.47566100  0.88651400  1
  F  F92  1  0.95413200  0.13789100  0.25050400  1
  F  F93  1  0.52954400  0.35277600  0.25072100  1
  F  F94  1  0.88659000  0.23425100  0.33794400  1
  F  F95  1  0.06814200  0.39596900  0.65549200  1
  F  F96  1  0.29371600  0.69353300  0.95389800  1
  F  F97  1  0.42651200  0.06383300  0.65092000  1
  F  F98  1  0.22799600  0.69550000  0.04608400  1
  F  F99  1  0.96784700  0.37618200  0.54853400  1
  F  F100  1  0.57291900  0.62868400  0.52651500  1
  F  F101  1  0.68702900  0.87477200  0.85752700  1
  F  F102  1  0.17836300  0.37959600  0.40725200  1
  F  F103  1  0.58486300  0.04383100  0.46604700  1
  F  F104  1  0.78832500  0.85248600  0.96438400  1
  F  F105  1  0.41513700  0.54383100  0.03395300  1
  F  F106  1  0.70628400  0.19353300  0.54610200  1
  F  F107  1  0.58509400  0.58206700  0.22162700  1
  F  F108  1  0.57348800  0.56383300  0.84908000  1
  F  F109  1  0.52954400  0.14722400  0.75072100  1
  F  F110  1  0.27822100  0.10797500  0.82132900  1
  F  F111  1  0.31297100  0.12522800  0.14247300  1
  F  F112  1  0.60664000  0.26426200  0.16512800  1
  F  F113  1  0.06814200  0.10403100  0.15549200  1
  F  F114  1  0.39336000  0.73573800  0.83487200  1
  F  F115  1  0.47490400  0.61320500  0.61251400  1
  F  F116  1  0.03215300  0.87618200  0.95146600  1
  F  F117  1  0.95413200  0.36210900  0.75050400  1
  F  F118  1  0.42708100  0.12868400  0.97348500  1
  F  F119  1  0.04586800  0.63789100  0.24949600  1
  F  F120  1  0.60664000  0.23573800  0.66512800  1
  F  F121  1  0.21167500  0.35248600  0.53561600  1
  F  F122  1  0.64983400  0.44802100  0.59804300  1
  F  F123  1  0.41490600  0.41793300  0.77837300  1
  F  F124  1  0.41513700  0.95616900  0.53395300  1
  F  F125  1  0.93185800  0.89596900  0.84450800  1
  F  F126  1  0.97115400  0.58412100  0.80012700  1
  F  F127  1  0.72177900  0.60797500  0.67867100  1
  F  F128  1  0.82163700  0.87959600  0.09274800  1
  F  F129  1  0.68702900  0.62522800  0.35752700  1
  F  F130  1  0.58509400  0.91793300  0.72162700  1
  F  F131  1  0.78832500  0.64751400  0.46438400  1
  F  F132  1  0.77234300  0.09777400  0.73908900  1
  F  F133  1  0.35016600  0.94802100  0.90195700  1
  F  F134  1  0.27822100  0.39202500  0.32132900  1
  F  F135  1  0.70628400  0.30646700  0.04610200  1
  F  F136  1  0.77200400  0.19550000  0.45391600  1
  F  F137  1  0.02884600  0.08412100  0.69987300  1
  F  F138  1  0.02884600  0.41587900  0.19987300  1
  F  F139  1  0.88659000  0.26574900  0.83794400  1
  F  F140  1  0.03215300  0.62381800  0.45146600  1
  F  F141  1  0.57291900  0.87131600  0.02651500  1
  F  F142  1  0.11341000  0.73425100  0.16205600  1
  F  F143  1  0.15079500  0.55003800  0.58694600  1
  F  F144  1  0.82163700  0.62040400  0.59274800  1
  F  F145  1  0.77200400  0.30450000  0.95391600  1
  F  F146  1  0.22765700  0.59777400  0.76091100  1
  F  F147  1  0.58486300  0.45616900  0.96604700  1
  F  F148  1  0.42651200  0.43616700  0.15092000  1
  F  F149  1  0.41490600  0.08206700  0.27837300  1
  F  F150  1  0.21167500  0.14751400  0.03561600  1
  F  F151  1  0.24795300  0.95259700  0.71623100  1
  F  F152  1  0.35016600  0.55197900  0.40195700  1
  F  F153  1  0.64983400  0.05197900  0.09804300  1
  F  F154  1  0.39336000  0.76426200  0.33487200  1
  F  F155  1  0.52509600  0.11320500  0.88748600  1
  F  F156  1  0.22765700  0.90222600  0.26091100  1
  F  F157  1  0.29371600  0.80646700  0.45389800  1
  F  F158  1  0.31297100  0.37477200  0.64247300  1
  F  F159  1  0.47490400  0.88679500  0.11251400  1
  F  F160  1  0.47045600  0.64722400  0.74927900  1
  F  F161  1  0.11341000  0.76574900  0.66205600  1
  F  F162  1  0.15079500  0.94996200  0.08694600  1
  F  F163  1  0.84920500  0.44996200  0.41305400  1
  F  F164  1  0.75204700  0.45259700  0.78376900  1
  F  F165  1  0.42708100  0.37131600  0.47348500  1
  F  F166  1  0.22799600  0.80450000  0.54608400  1
  F  F167  1  0.17836300  0.12040400  0.90725200  1
  F  F168  1  0.93185800  0.60403100  0.34450800  1
  F  F169  1  0.47045600  0.85277600  0.24927900  1
  F  F170  1  0.84920500  0.05003800  0.91305400  1
  F  F171  1  0.57348800  0.93616700  0.34908000  1
  F  F172  1  0.24795300  0.54740300  0.21623100  1
  F  F173  1  0.75204700  0.04740300  0.28376900  1
  F  F174  1  0.04586800  0.86210900  0.74949600  1
  F  F175  1  0.77234300  0.40222600  0.23908900  1
  F  F176  1  0.96784700  0.12381800  0.04853400  1
  F  F177  1  0.72177900  0.89202500  0.17867100  1
  F  F178  1  0.52509600  0.38679500  0.38748600  1
  F  F179  1  0.97115400  0.91587900  0.30012700  1
