# generated using pymatgen
data_SiO2
_symmetry_space_group_name_H-M   'P 1'
_cell_length_a   18.36410000
_cell_length_b   20.62443800
_cell_length_c   7.57562500
_cell_angle_alpha   90.00000000
_cell_angle_beta   90.00000000
_cell_angle_gamma   90.00000000
_symmetry_Int_Tables_number   1
_chemical_formula_structural   SiO2
_chemical_formula_sum   'Si48 O96'
_cell_volume   2869.26222549
_cell_formula_units_Z   48
loop_
 _symmetry_equiv_pos_site_id
 _symmetry_equiv_pos_as_xyz
  1  'x, y, z'
loop_
 _atom_site_type_symbol
 _atom_site_label
 _atom_site_symmetry_multiplicity
 _atom_site_fract_x
 _atom_site_fract_y
 _atom_site_fract_z
 _atom_site_occupancy
  Si  Si0  1  0.30579100  0.07358700  0.04362800  1
  Si  Si1  1  0.30579100  0.92641300  0.95637200  1
  Si  Si2  1  0.69420900  0.07358700  0.45637200  1
  Si  Si3  1  0.69420900  0.92641300  0.54362800  1
  Si  Si4  1  0.69420900  0.92641300  0.95637200  1
  Si  Si5  1  0.69420900  0.07358700  0.04362800  1
  Si  Si6  1  0.30579100  0.92641300  0.54362800  1
  Si  Si7  1  0.30579100  0.07358700  0.45637200  1
  Si  Si8  1  0.80311900  0.81082700  0.04376400  1
  Si  Si9  1  0.80311900  0.18917300  0.95623600  1
  Si  Si10  1  0.19688100  0.81082700  0.45623600  1
  Si  Si11  1  0.19688100  0.18917300  0.54376400  1
  Si  Si12  1  0.19688100  0.18917300  0.95623600  1
  Si  Si13  1  0.19688100  0.81082700  0.04376400  1
  Si  Si14  1  0.80311900  0.18917300  0.54376400  1
  Si  Si15  1  0.80311900  0.81082700  0.45623600  1
  Si  Si16  1  0.58469350  0.87922250  0.25000000  1
  Si  Si17  1  0.58469350  0.12077750  0.75000000  1
  Si  Si18  1  0.41530650  0.87922250  0.25000000  1
  Si  Si19  1  0.41530650  0.12077750  0.75000000  1
  Si  Si20  1  0.58464750  0.72251250  0.25000000  1
  Si  Si21  1  0.58464750  0.27748750  0.75000000  1
  Si  Si22  1  0.41535250  0.72251250  0.25000000  1
  Si  Si23  1  0.41535250  0.27748750  0.75000000  1
  Si  Si24  1  0.80579100  0.57358700  0.04362800  1
  Si  Si25  1  0.80579100  0.42641300  0.95637200  1
  Si  Si26  1  0.19420900  0.57358700  0.45637200  1
  Si  Si27  1  0.19420900  0.42641300  0.54362800  1
  Si  Si28  1  0.19420900  0.42641300  0.95637200  1
  Si  Si29  1  0.19420900  0.57358700  0.04362800  1
  Si  Si30  1  0.80579100  0.42641300  0.54362800  1
  Si  Si31  1  0.80579100  0.57358700  0.45637200  1
  Si  Si32  1  0.30311900  0.31082700  0.04376400  1
  Si  Si33  1  0.30311900  0.68917300  0.95623600  1
  Si  Si34  1  0.69688100  0.31082700  0.45623600  1
  Si  Si35  1  0.69688100  0.68917300  0.54376400  1
  Si  Si36  1  0.69688100  0.68917300  0.95623600  1
  Si  Si37  1  0.69688100  0.31082700  0.04376400  1
  Si  Si38  1  0.30311900  0.68917300  0.54376400  1
  Si  Si39  1  0.30311900  0.31082700  0.45623600  1
  Si  Si40  1  0.08469350  0.37922250  0.25000000  1
  Si  Si41  1  0.08469350  0.62077750  0.75000000  1
  Si  Si42  1  0.91530650  0.37922250  0.25000000  1
  Si  Si43  1  0.91530650  0.62077750  0.75000000  1
  Si  Si44  1  0.08464750  0.22251250  0.25000000  1
  Si  Si45  1  0.08464750  0.77748750  0.75000000  1
  Si  Si46  1  0.91535250  0.22251250  0.25000000  1
  Si  Si47  1  0.91535250  0.77748750  0.75000000  1
  O  O48  1  0.27962100  0.00000000  0.00000000  1
  O  O49  1  0.72037900  0.00000000  0.50000000  1
  O  O50  1  0.72037900  0.00000000  0.00000000  1
  O  O51  1  0.27962100  0.00000000  0.50000000  1
  O  O52  1  0.32858150  0.08013150  0.25000000  1
  O  O53  1  0.32858150  0.91986850  0.75000000  1
  O  O54  1  0.67141850  0.08013150  0.25000000  1
  O  O55  1  0.67141850  0.91986850  0.75000000  1
  O  O56  1  0.37696450  0.09220550  0.92668800  1
  O  O57  1  0.37696450  0.90779450  0.07331200  1
  O  O58  1  0.62303550  0.09220550  0.57331200  1
  O  O59  1  0.62303550  0.90779450  0.42668800  1
  O  O60  1  0.62303550  0.90779450  0.07331200  1
  O  O61  1  0.62303550  0.09220550  0.92668800  1
  O  O62  1  0.37696450  0.90779450  0.42668800  1
  O  O63  1  0.37696450  0.09220550  0.57331200  1
  O  O64  1  0.23816500  0.12147000  0.99888600  1
  O  O65  1  0.23816500  0.87853000  0.00111400  1
  O  O66  1  0.76183500  0.12147000  0.50111400  1
  O  O67  1  0.76183500  0.87853000  0.49888600  1
  O  O68  1  0.76183500  0.87853000  0.00111400  1
  O  O69  1  0.76183500  0.12147000  0.99888600  1
  O  O70  1  0.23816500  0.87853000  0.49888600  1
  O  O71  1  0.23816500  0.12147000  0.50111400  1
  O  O72  1  0.32664400  0.30886500  0.25000000  1
  O  O73  1  0.32664400  0.69113500  0.75000000  1
  O  O74  1  0.67335600  0.30886500  0.25000000  1
  O  O75  1  0.67335600  0.69113500  0.75000000  1
  O  O76  1  0.25000000  0.25000000  0.00000000  1
  O  O77  1  0.25000000  0.75000000  0.00000000  1
  O  O78  1  0.25000000  0.75000000  0.50000000  1
  O  O79  1  0.25000000  0.25000000  0.50000000  1
  O  O80  1  0.37668650  0.30629250  0.92626900  1
  O  O81  1  0.37668650  0.69370750  0.07373100  1
  O  O82  1  0.62331350  0.30629250  0.57373100  1
  O  O83  1  0.62331350  0.69370750  0.42626900  1
  O  O84  1  0.62331350  0.69370750  0.07373100  1
  O  O85  1  0.62331350  0.30629250  0.92626900  1
  O  O86  1  0.37668650  0.69370750  0.42626900  1
  O  O87  1  0.37668650  0.30629250  0.57373100  1
  O  O88  1  0.50000000  0.90119300  0.25000000  1
  O  O89  1  0.50000000  0.09880700  0.75000000  1
  O  O90  1  0.59163500  0.80090800  0.25000000  1
  O  O91  1  0.59163500  0.19909200  0.75000000  1
  O  O92  1  0.40836500  0.80090800  0.25000000  1
  O  O93  1  0.40836500  0.19909200  0.75000000  1
  O  O94  1  0.50000000  0.70053900  0.25000000  1
  O  O95  1  0.50000000  0.29946100  0.75000000  1
  O  O96  1  0.77962100  0.50000000  0.00000000  1
  O  O97  1  0.22037900  0.50000000  0.50000000  1
  O  O98  1  0.22037900  0.50000000  0.00000000  1
  O  O99  1  0.77962100  0.50000000  0.50000000  1
  O  O100  1  0.82858150  0.58013150  0.25000000  1
  O  O101  1  0.82858150  0.41986850  0.75000000  1
  O  O102  1  0.17141850  0.58013150  0.25000000  1
  O  O103  1  0.17141850  0.41986850  0.75000000  1
  O  O104  1  0.87696450  0.59220550  0.92668800  1
  O  O105  1  0.87696450  0.40779450  0.07331200  1
  O  O106  1  0.12303550  0.59220550  0.57331200  1
  O  O107  1  0.12303550  0.40779450  0.42668800  1
  O  O108  1  0.12303550  0.40779450  0.07331200  1
  O  O109  1  0.12303550  0.59220550  0.92668800  1
  O  O110  1  0.87696450  0.40779450  0.42668800  1
  O  O111  1  0.87696450  0.59220550  0.57331200  1
  O  O112  1  0.73816500  0.62147000  0.99888600  1
  O  O113  1  0.73816500  0.37853000  0.00111400  1
  O  O114  1  0.26183500  0.62147000  0.50111400  1
  O  O115  1  0.26183500  0.37853000  0.49888600  1
  O  O116  1  0.26183500  0.37853000  0.00111400  1
  O  O117  1  0.26183500  0.62147000  0.99888600  1
  O  O118  1  0.73816500  0.37853000  0.49888600  1
  O  O119  1  0.73816500  0.62147000  0.50111400  1
  O  O120  1  0.82664400  0.80886500  0.25000000  1
  O  O121  1  0.82664400  0.19113500  0.75000000  1
  O  O122  1  0.17335600  0.80886500  0.25000000  1
  O  O123  1  0.17335600  0.19113500  0.75000000  1
  O  O124  1  0.75000000  0.75000000  0.00000000  1
  O  O125  1  0.75000000  0.25000000  0.00000000  1
  O  O126  1  0.75000000  0.25000000  0.50000000  1
  O  O127  1  0.75000000  0.75000000  0.50000000  1
  O  O128  1  0.87668650  0.80629250  0.92626900  1
  O  O129  1  0.87668650  0.19370750  0.07373100  1
  O  O130  1  0.12331350  0.80629250  0.57373100  1
  O  O131  1  0.12331350  0.19370750  0.42626900  1
  O  O132  1  0.12331350  0.19370750  0.07373100  1
  O  O133  1  0.12331350  0.80629250  0.92626900  1
  O  O134  1  0.87668650  0.19370750  0.42626900  1
  O  O135  1  0.87668650  0.80629250  0.57373100  1
  O  O136  1  0.00000000  0.40119300  0.25000000  1
  O  O137  1  0.00000000  0.59880700  0.75000000  1
  O  O138  1  0.09163500  0.30090800  0.25000000  1
  O  O139  1  0.09163500  0.69909200  0.75000000  1
  O  O140  1  0.90836500  0.30090800  0.25000000  1
  O  O141  1  0.90836500  0.69909200  0.75000000  1
  O  O142  1  0.00000000  0.20053900  0.25000000  1
  O  O143  1  0.00000000  0.79946100  0.75000000  1
