# generated using pymatgen
data_MoCl2
_symmetry_space_group_name_H-M   'P 1'
_cell_length_a   11.55552400
_cell_length_b   14.80173600
_cell_length_c   11.56425700
_cell_angle_alpha   90.00000000
_cell_angle_beta   90.00000000
_cell_angle_gamma   90.00000000
_symmetry_Int_Tables_number   1
_chemical_formula_structural   MoCl2
_chemical_formula_sum   'Mo24 Cl48'
_cell_volume   1977.97151323
_cell_formula_units_Z   24
loop_
 _symmetry_equiv_pos_site_id
 _symmetry_equiv_pos_as_xyz
  1  'x, y, z'
loop_
 _atom_site_type_symbol
 _atom_site_label
 _atom_site_symmetry_multiplicity
 _atom_site_fract_x
 _atom_site_fract_y
 _atom_site_fract_z
 _atom_site_occupancy
  Mo  Mo0  1  0.50000000  0.87423800  0.50000000  1
  Mo  Mo1  1  0.35378200  0.00000000  0.56603500  1
  Mo  Mo2  1  0.64621800  0.00000000  0.43396500  1
  Mo  Mo3  1  0.14621800  0.00000000  0.06603500  1
  Mo  Mo4  1  0.93389800  0.00000000  0.14612200  1
  Mo  Mo5  1  0.50000000  0.62576200  0.00000000  1
  Mo  Mo6  1  0.56610200  0.00000000  0.64612200  1
  Mo  Mo7  1  0.06610200  0.00000000  0.85387800  1
  Mo  Mo8  1  0.85378200  0.00000000  0.93396500  1
  Mo  Mo9  1  0.50000000  0.37423800  0.00000000  1
  Mo  Mo10  1  0.43389800  0.00000000  0.35387800  1
  Mo  Mo11  1  0.50000000  0.12576200  0.50000000  1
  Mo  Mo12  1  0.00000000  0.37423800  0.50000000  1
  Mo  Mo13  1  0.85378200  0.50000000  0.56603500  1
  Mo  Mo14  1  0.14621800  0.50000000  0.43396500  1
  Mo  Mo15  1  0.64621800  0.50000000  0.06603500  1
  Mo  Mo16  1  0.43389800  0.50000000  0.14612200  1
  Mo  Mo17  1  0.00000000  0.12576200  0.00000000  1
  Mo  Mo18  1  0.06610200  0.50000000  0.64612200  1
  Mo  Mo19  1  0.56610200  0.50000000  0.85387800  1
  Mo  Mo20  1  0.35378200  0.50000000  0.93396500  1
  Mo  Mo21  1  0.00000000  0.87423800  0.00000000  1
  Mo  Mo22  1  0.93389800  0.50000000  0.35387800  1
  Mo  Mo23  1  0.00000000  0.62576200  0.50000000  1
  Cl  Cl24  1  0.57702050  0.38151550  0.20132800  1
  Cl  Cl25  1  0.29850450  0.11847350  0.42314000  1
  Cl  Cl26  1  0.20149550  0.11847350  0.92314000  1
  Cl  Cl27  1  0.34758200  0.00000000  0.15256400  1
  Cl  Cl28  1  0.57702050  0.61848450  0.20132800  1
  Cl  Cl29  1  0.20149550  0.88152650  0.92314000  1
  Cl  Cl30  1  0.42297950  0.38151550  0.79867200  1
  Cl  Cl31  1  0.50000000  0.78712100  0.00000000  1
  Cl  Cl32  1  0.65241800  0.00000000  0.84743600  1
  Cl  Cl33  1  0.50000000  0.28712100  0.50000000  1
  Cl  Cl34  1  0.84758200  0.00000000  0.34743600  1
  Cl  Cl35  1  0.57702050  0.88151550  0.29867200  1
  Cl  Cl36  1  0.70149550  0.88152650  0.57686000  1
  Cl  Cl37  1  0.29850450  0.88152650  0.42314000  1
  Cl  Cl38  1  0.79850450  0.11847350  0.07686000  1
  Cl  Cl39  1  0.70149550  0.11847350  0.57686000  1
  Cl  Cl40  1  0.42297950  0.88151550  0.70132800  1
  Cl  Cl41  1  0.42297950  0.61848450  0.79867200  1
  Cl  Cl42  1  0.50000000  0.21287900  0.00000000  1
  Cl  Cl43  1  0.79850450  0.88152650  0.07686000  1
  Cl  Cl44  1  0.50000000  0.71287900  0.50000000  1
  Cl  Cl45  1  0.15241800  0.00000000  0.65256400  1
  Cl  Cl46  1  0.42297950  0.11848450  0.70132800  1
  Cl  Cl47  1  0.57702050  0.11848450  0.29867200  1
  Cl  Cl48  1  0.07702050  0.88151550  0.20132800  1
  Cl  Cl49  1  0.79850450  0.61847350  0.42314000  1
  Cl  Cl50  1  0.70149550  0.61847350  0.92314000  1
  Cl  Cl51  1  0.84758200  0.50000000  0.15256400  1
  Cl  Cl52  1  0.07702050  0.11848450  0.20132800  1
  Cl  Cl53  1  0.70149550  0.38152650  0.92314000  1
  Cl  Cl54  1  0.92297950  0.88151550  0.79867200  1
  Cl  Cl55  1  0.00000000  0.28712100  0.00000000  1
  Cl  Cl56  1  0.15241800  0.50000000  0.84743600  1
  Cl  Cl57  1  0.00000000  0.78712100  0.50000000  1
  Cl  Cl58  1  0.34758200  0.50000000  0.34743600  1
  Cl  Cl59  1  0.07702050  0.38151550  0.29867200  1
  Cl  Cl60  1  0.20149550  0.38152650  0.57686000  1
  Cl  Cl61  1  0.79850450  0.38152650  0.42314000  1
  Cl  Cl62  1  0.29850450  0.61847350  0.07686000  1
  Cl  Cl63  1  0.20149550  0.61847350  0.57686000  1
  Cl  Cl64  1  0.92297950  0.38151550  0.70132800  1
  Cl  Cl65  1  0.92297950  0.11848450  0.79867200  1
  Cl  Cl66  1  0.00000000  0.71287900  0.00000000  1
  Cl  Cl67  1  0.29850450  0.38152650  0.07686000  1
  Cl  Cl68  1  0.00000000  0.21287900  0.50000000  1
  Cl  Cl69  1  0.65241800  0.50000000  0.65256400  1
  Cl  Cl70  1  0.92297950  0.61848450  0.70132800  1
  Cl  Cl71  1  0.07702050  0.61848450  0.29867200  1
