# generated using pymatgen
data_Te6H6S(Cl13O2)2
_symmetry_space_group_name_H-M   'P 1'
_cell_length_a   13.34072000
_cell_length_b   11.67008000
_cell_length_c   17.82811713
_cell_angle_alpha   90.00000000
_cell_angle_beta   100.76674780
_cell_angle_gamma   90.00000000
_symmetry_Int_Tables_number   1
_chemical_formula_structural   Te6H6S(Cl13O2)2
_chemical_formula_sum   'Te12 H12 S2 Cl52 O8'
_cell_volume   2726.74856497
_cell_formula_units_Z   2
loop_
 _symmetry_equiv_pos_site_id
 _symmetry_equiv_pos_as_xyz
  1  'x, y, z'
loop_
 _atom_site_type_symbol
 _atom_site_label
 _atom_site_symmetry_multiplicity
 _atom_site_fract_x
 _atom_site_fract_y
 _atom_site_fract_z
 _atom_site_occupancy
  Te  Te0  1  0.76464450  0.30998750  0.46190900  1
  Te  Te1  1  0.76528150  0.31070650  0.96251400  1
  Te  Te2  1  0.57487300  0.50000000  0.27240800  1
  Te  Te3  1  0.76464450  0.69001250  0.46190900  1
  Te  Te4  1  0.76528150  0.68929350  0.96251400  1
  Te  Te5  1  0.57368400  0.50000000  0.77231600  1
  Te  Te6  1  0.26464450  0.80998750  0.46190900  1
  Te  Te7  1  0.26528150  0.81070650  0.96251400  1
  Te  Te8  1  0.07487300  0.00000000  0.27240800  1
  Te  Te9  1  0.26464450  0.19001250  0.46190900  1
  Te  Te10  1  0.26528150  0.18929350  0.96251400  1
  Te  Te11  1  0.07368400  0.00000000  0.77231600  1
  H  H12  1  0.86908200  0.43150700  0.28102500  1
  H  H13  1  0.93936000  0.50000000  0.34841200  1
  H  H14  1  0.86908200  0.56849300  0.28102500  1
  H  H15  1  0.86540550  0.43125250  0.78689800  1
  H  H16  1  0.93469400  0.50000000  0.85533300  1
  H  H17  1  0.86540550  0.56874750  0.78689800  1
  H  H18  1  0.36908200  0.93150700  0.28102500  1
  H  H19  1  0.43936000  0.00000000  0.34841200  1
  H  H20  1  0.36908200  0.06849300  0.28102500  1
  H  H21  1  0.36540550  0.93125250  0.78689800  1
  H  H22  1  0.43469400  0.00000000  0.85533300  1
  H  H23  1  0.36540550  0.06874750  0.78689800  1
  S  S24  1  0.04596000  0.50000000  0.64605600  1
  S  S25  1  0.54596000  0.00000000  0.64605600  1
  Cl  Cl26  1  0.95233350  0.14876550  0.26841400  1
  Cl  Cl27  1  0.13306850  0.32920350  0.44771500  1
  Cl  Cl28  1  0.89402850  0.17084750  0.46730300  1
  Cl  Cl29  1  0.13357650  0.32878450  0.94861300  1
  Cl  Cl30  1  0.95139550  0.14837650  0.76847500  1
  Cl  Cl31  1  0.13306850  0.67079650  0.44771500  1
  Cl  Cl32  1  0.78229250  0.31927850  0.09753500  1
  Cl  Cl33  1  0.89480750  0.17156550  0.96747900  1
  Cl  Cl34  1  0.74473400  0.33488600  0.29563300  1
  Cl  Cl35  1  0.90986000  0.50000000  0.45881900  1
  Cl  Cl36  1  0.13357650  0.67121550  0.94861300  1
  Cl  Cl37  1  0.78119350  0.31854150  0.59665000  1
  Cl  Cl38  1  0.95233350  0.85123450  0.26841400  1
  Cl  Cl39  1  0.78229250  0.68072150  0.09753500  1
  Cl  Cl40  1  0.74385000  0.33266300  0.79693000  1
  Cl  Cl41  1  0.91079300  0.50000000  0.96456900  1
  Cl  Cl42  1  0.89402850  0.82915250  0.46730300  1
  Cl  Cl43  1  0.56584500  0.50000000  0.13912600  1
  Cl  Cl44  1  0.74473400  0.66511400  0.29563300  1
  Cl  Cl45  1  0.78119350  0.68145850  0.59665000  1
  Cl  Cl46  1  0.95139550  0.85162350  0.76847500  1
  Cl  Cl47  1  0.61328900  0.50000000  0.44298700  1
  Cl  Cl48  1  0.89480750  0.82843450  0.96747900  1
  Cl  Cl49  1  0.56539600  0.50000000  0.63914400  1
  Cl  Cl50  1  0.74385000  0.66733700  0.79693000  1
  Cl  Cl51  1  0.61294900  0.50000000  0.94278400  1
  Cl  Cl52  1  0.45233350  0.64876550  0.26841400  1
  Cl  Cl53  1  0.63306850  0.82920350  0.44771500  1
  Cl  Cl54  1  0.39402850  0.67084750  0.46730300  1
  Cl  Cl55  1  0.63357650  0.82878450  0.94861300  1
  Cl  Cl56  1  0.45139550  0.64837650  0.76847500  1
  Cl  Cl57  1  0.63306850  0.17079650  0.44771500  1
  Cl  Cl58  1  0.28229250  0.81927850  0.09753500  1
  Cl  Cl59  1  0.39480750  0.67156550  0.96747900  1
  Cl  Cl60  1  0.24473400  0.83488600  0.29563300  1
  Cl  Cl61  1  0.40986000  0.00000000  0.45881900  1
  Cl  Cl62  1  0.63357650  0.17121550  0.94861300  1
  Cl  Cl63  1  0.28119350  0.81854150  0.59665000  1
  Cl  Cl64  1  0.45233350  0.35123450  0.26841400  1
  Cl  Cl65  1  0.28229250  0.18072150  0.09753500  1
  Cl  Cl66  1  0.24385000  0.83266300  0.79693000  1
  Cl  Cl67  1  0.41079300  0.00000000  0.96456900  1
  Cl  Cl68  1  0.39402850  0.32915250  0.46730300  1
  Cl  Cl69  1  0.06584500  0.00000000  0.13912600  1
  Cl  Cl70  1  0.24473400  0.16511400  0.29563300  1
  Cl  Cl71  1  0.28119350  0.18145850  0.59665000  1
  Cl  Cl72  1  0.45139550  0.35162350  0.76847500  1
  Cl  Cl73  1  0.11328900  0.00000000  0.44298700  1
  Cl  Cl74  1  0.39480750  0.32843450  0.96747900  1
  Cl  Cl75  1  0.06539600  0.00000000  0.63914400  1
  Cl  Cl76  1  0.24385000  0.16733700  0.79693000  1
  Cl  Cl77  1  0.11294900  0.00000000  0.94278400  1
  O  O78  1  0.10158550  0.39250350  0.65969100  1
  O  O79  1  0.10158550  0.60749650  0.65969100  1
  O  O80  1  0.91785300  0.50000000  0.29044500  1
  O  O81  1  0.91435600  0.50000000  0.79684600  1
  O  O82  1  0.60158550  0.89250350  0.65969100  1
  O  O83  1  0.60158550  0.10749650  0.65969100  1
  O  O84  1  0.41785300  0.00000000  0.29044500  1
  O  O85  1  0.41435600  0.00000000  0.79684600  1
