# generated using pymatgen
data_V2Bi4O11
_symmetry_space_group_name_H-M   'P 1'
_cell_length_a   7.27020100
_cell_length_b   9.44497700
_cell_length_c   8.57013743
_cell_angle_alpha   90.00000000
_cell_angle_beta   102.94574997
_cell_angle_gamma   90.00000000
_symmetry_Int_Tables_number   1
_chemical_formula_structural   V2Bi4O11
_chemical_formula_sum   'V4 Bi8 O22'
_cell_volume   573.52687277
_cell_formula_units_Z   2
loop_
 _symmetry_equiv_pos_site_id
 _symmetry_equiv_pos_as_xyz
  1  'x, y, z'
loop_
 _atom_site_type_symbol
 _atom_site_label
 _atom_site_symmetry_multiplicity
 _atom_site_fract_x
 _atom_site_fract_y
 _atom_site_fract_z
 _atom_site_occupancy
  V  V0  1  0.61214000  0.82428100  0.42709000  1
  V  V1  1  0.11577700  0.32178700  0.95063700  1
  V  V2  1  0.88422300  0.82178700  0.04936300  1
  V  V3  1  0.38786000  0.32428100  0.57291000  1
  Bi  Bi4  1  0.16639000  0.54492500  0.30886700  1
  Bi  Bi5  1  0.22754900  0.92875600  0.50308200  1
  Bi  Bi6  1  0.34942400  0.94842800  0.01726700  1
  Bi  Bi7  1  0.12765900  0.66984900  0.78018000  1
  Bi  Bi8  1  0.87234100  0.16984900  0.21982000  1
  Bi  Bi9  1  0.65057600  0.44842800  0.98273300  1
  Bi  Bi10  1  0.83361000  0.04492500  0.69113300  1
  Bi  Bi11  1  0.77245100  0.42875600  0.49691800  1
  O  O12  1  0.15878500  0.90253100  0.73658700  1
  O  O13  1  0.15966800  0.40243500  0.52361000  1
  O  O14  1  0.87784300  0.76724200  0.85211600  1
  O  O15  1  0.81545800  0.19889000  0.50602000  1
  O  O16  1  0.47389900  0.36110300  0.39946400  1
  O  O17  1  0.67990600  0.22570000  0.00437500  1
  O  O18  1  0.32002000  0.41150500  0.94248200  1
  O  O19  1  0.93365200  0.44566800  0.89154400  1
  O  O20  1  0.92163800  0.67391400  0.17227300  1
  O  O21  1  0.55430200  0.41826100  0.71429700  1
  O  O22  1  0.39431400  0.14772500  0.61474300  1
  O  O23  1  0.44569800  0.91826100  0.28570300  1
  O  O24  1  0.60568600  0.64772500  0.38525700  1
  O  O25  1  0.06634800  0.94566800  0.10845600  1
  O  O26  1  0.07836200  0.17391400  0.82772700  1
  O  O27  1  0.67998000  0.91150500  0.05751800  1
  O  O28  1  0.52610100  0.86110300  0.60053600  1
  O  O29  1  0.18454200  0.69889000  0.49398000  1
  O  O30  1  0.12215700  0.26724200  0.14788400  1
  O  O31  1  0.32009400  0.72570000  0.99562500  1
  O  O32  1  0.84121500  0.40253100  0.26341300  1
  O  O33  1  0.84033200  0.90243500  0.47639000  1
