# generated using pymatgen
data_AsN(OF3)2
_symmetry_space_group_name_H-M   'P 1'
_cell_length_a   6.50361200
_cell_length_b   7.38615400
_cell_length_c   6.14127727
_cell_angle_alpha   90.00000000
_cell_angle_beta   96.80397817
_cell_angle_gamma   90.00000000
_symmetry_Int_Tables_number   1
_chemical_formula_structural   AsN(OF3)2
_chemical_formula_sum   'As2 N2 O4 F12'
_cell_volume   292.92892230
_cell_formula_units_Z   2
loop_
 _symmetry_equiv_pos_site_id
 _symmetry_equiv_pos_as_xyz
  1  'x, y, z'
loop_
 _atom_site_type_symbol
 _atom_site_label
 _atom_site_symmetry_multiplicity
 _atom_site_fract_x
 _atom_site_fract_y
 _atom_site_fract_z
 _atom_site_occupancy
  As  As0  1  0.00000000  0.00000000  0.00000000  1
  As  As1  1  0.50000000  0.50000000  0.00000000  1
  N  N2  1  0.50000000  0.00000000  0.50000000  1
  N  N3  1  0.00000000  0.50000000  0.50000000  1
  O  O4  1  0.62820800  0.00000000  0.38868000  1
  O  O5  1  0.37179200  0.00000000  0.61132000  1
  O  O6  1  0.12820800  0.50000000  0.38868000  1
  O  O7  1  0.87179200  0.50000000  0.61132000  1
  F  F8  1  0.23709600  0.00000000  0.17601600  1
  F  F9  1  0.40251600  0.66909200  0.16426300  1
  F  F10  1  0.40251600  0.33090800  0.16426300  1
  F  F11  1  0.59748400  0.66909200  0.83573700  1
  F  F12  1  0.59748400  0.33090800  0.83573700  1
  F  F13  1  0.76290400  0.00000000  0.82398400  1
  F  F14  1  0.73709600  0.50000000  0.17601600  1
  F  F15  1  0.90251600  0.16909200  0.16426300  1
  F  F16  1  0.90251600  0.83090800  0.16426300  1
  F  F17  1  0.09748400  0.16909200  0.83573700  1
  F  F18  1  0.09748400  0.83090800  0.83573700  1
  F  F19  1  0.26290400  0.50000000  0.82398400  1
