# generated using pymatgen
data_NiH10C4(SN4)2
_symmetry_space_group_name_H-M   'P 1'
_cell_length_a   14.97826600
_cell_length_b   8.06618600
_cell_length_c   9.20461957
_cell_angle_alpha   90.00000000
_cell_angle_beta   111.24309257
_cell_angle_gamma   90.00000000
_symmetry_Int_Tables_number   1
_chemical_formula_structural   NiH10C4(SN4)2
_chemical_formula_sum   'Ni4 H40 C16 S8 N32'
_cell_volume   1036.51490389
_cell_formula_units_Z   4
loop_
 _symmetry_equiv_pos_site_id
 _symmetry_equiv_pos_as_xyz
  1  'x, y, z'
loop_
 _atom_site_type_symbol
 _atom_site_label
 _atom_site_symmetry_multiplicity
 _atom_site_fract_x
 _atom_site_fract_y
 _atom_site_fract_z
 _atom_site_occupancy
  Ni  Ni0  1  0.00000000  0.89034500  0.25000000  1
  Ni  Ni1  1  0.00000000  0.10965500  0.75000000  1
  Ni  Ni2  1  0.50000000  0.39034500  0.25000000  1
  Ni  Ni3  1  0.50000000  0.60965500  0.75000000  1
  H  H4  1  0.06093050  0.17471050  0.22055400  1
  H  H5  1  0.43906950  0.67471050  0.27944600  1
  H  H6  1  0.43906950  0.32528950  0.77944600  1
  H  H7  1  0.06093050  0.82528950  0.72055400  1
  H  H8  1  0.21354300  0.88271700  0.04528000  1
  H  H9  1  0.28645700  0.38271700  0.45472000  1
  H  H10  1  0.28645700  0.61728300  0.95472000  1
  H  H11  1  0.21354300  0.11728300  0.54528000  1
  H  H12  1  0.02273650  0.61156550  0.15124600  1
  H  H13  1  0.47726350  0.11156550  0.34875400  1
  H  H14  1  0.47726350  0.88843450  0.84875400  1
  H  H15  1  0.02273650  0.38843450  0.65124600  1
  H  H16  1  0.16627400  0.28683300  0.12358200  1
  H  H17  1  0.33372600  0.78683300  0.37641800  1
  H  H18  1  0.33372600  0.21316700  0.87641800  1
  H  H19  1  0.16627400  0.71316700  0.62358200  1
  H  H20  1  0.25120750  0.14887850  0.10255700  1
  H  H21  1  0.24879250  0.64887850  0.39744300  1
  H  H22  1  0.24879250  0.35112150  0.89744300  1
  H  H23  1  0.25120750  0.85112150  0.60255700  1
  H  H24  1  0.56093050  0.67471050  0.22055400  1
  H  H25  1  0.93906950  0.17471050  0.27944600  1
  H  H26  1  0.93906950  0.82528950  0.77944600  1
  H  H27  1  0.56093050  0.32528950  0.72055400  1
  H  H28  1  0.71354300  0.38271700  0.04528000  1
  H  H29  1  0.78645700  0.88271700  0.45472000  1
  H  H30  1  0.78645700  0.11728300  0.95472000  1
  H  H31  1  0.71354300  0.61728300  0.54528000  1
  H  H32  1  0.52273650  0.11156550  0.15124600  1
  H  H33  1  0.97726350  0.61156550  0.34875400  1
  H  H34  1  0.97726350  0.38843450  0.84875400  1
  H  H35  1  0.52273650  0.88843450  0.65124600  1
  H  H36  1  0.66627400  0.78683300  0.12358200  1
  H  H37  1  0.83372600  0.28683300  0.37641800  1
  H  H38  1  0.83372600  0.71316700  0.87641800  1
  H  H39  1  0.66627400  0.21316700  0.62358200  1
  H  H40  1  0.75120750  0.64887850  0.10255700  1
  H  H41  1  0.74879250  0.14887850  0.39744300  1
  H  H42  1  0.74879250  0.85112150  0.89744300  1
  H  H43  1  0.75120750  0.35112150  0.60255700  1
  C  C44  1  0.13621450  0.03856450  0.13472100  1
  C  C45  1  0.36378550  0.53856450  0.36527900  1
  C  C46  1  0.36378550  0.46143550  0.86527900  1
  C  C47  1  0.13621450  0.96143550  0.63472100  1
  C  C48  1  0.11252100  0.73953600  0.08904100  1
  C  C49  1  0.38747900  0.23953600  0.41095900  1
  C  C50  1  0.38747900  0.76046400  0.91095900  1
  C  C51  1  0.11252100  0.26046400  0.58904100  1
  C  C52  1  0.63621450  0.53856450  0.13472100  1
  C  C53  1  0.86378550  0.03856450  0.36527900  1
  C  C54  1  0.86378550  0.96143550  0.86527900  1
  C  C55  1  0.63621450  0.46143550  0.63472100  1
  C  C56  1  0.61252100  0.23953600  0.08904100  1
  C  C57  1  0.88747900  0.73953600  0.41095900  1
  C  C58  1  0.88747900  0.26046400  0.91095900  1
  C  C59  1  0.61252100  0.76046400  0.58904100  1
  S  S60  1  0.13293050  0.57964250  0.98058600  1
  S  S61  1  0.36706950  0.07964250  0.51941400  1
  S  S62  1  0.36706950  0.92035750  0.01941400  1
  S  S63  1  0.13293050  0.42035750  0.48058600  1
  S  S64  1  0.63293050  0.07964250  0.98058600  1
  S  S65  1  0.86706950  0.57964250  0.51941400  1
  S  S66  1  0.86706950  0.42035750  0.01941400  1
  S  S67  1  0.63293050  0.92035750  0.48058600  1
  N  N68  1  0.06780650  0.05430850  0.19062900  1
  N  N69  1  0.43219350  0.55430850  0.30937100  1
  N  N70  1  0.43219350  0.44569150  0.80937100  1
  N  N71  1  0.06780650  0.94569150  0.69062900  1
  N  N72  1  0.15977500  0.88690500  0.09068100  1
  N  N73  1  0.34022500  0.38690500  0.40931900  1
  N  N74  1  0.34022500  0.61309500  0.90931900  1
  N  N75  1  0.15977500  0.11309500  0.59068100  1
  N  N76  1  0.05346700  0.72706600  0.16534100  1
  N  N77  1  0.44653300  0.22706600  0.33465900  1
  N  N78  1  0.44653300  0.77293400  0.83465900  1
  N  N79  1  0.05346700  0.27293400  0.66534100  1
  N  N80  1  0.18642800  0.16856400  0.11092100  1
  N  N81  1  0.31357200  0.66856400  0.38907900  1
  N  N82  1  0.31357200  0.33143600  0.88907900  1
  N  N83  1  0.18642800  0.83143600  0.61092100  1
  N  N84  1  0.56780650  0.55430850  0.19062900  1
  N  N85  1  0.93219350  0.05430850  0.30937100  1
  N  N86  1  0.93219350  0.94569150  0.80937100  1
  N  N87  1  0.56780650  0.44569150  0.69062900  1
  N  N88  1  0.65977500  0.38690500  0.09068100  1
  N  N89  1  0.84022500  0.88690500  0.40931900  1
  N  N90  1  0.84022500  0.11309500  0.90931900  1
  N  N91  1  0.65977500  0.61309500  0.59068100  1
  N  N92  1  0.55346700  0.22706600  0.16534100  1
  N  N93  1  0.94653300  0.72706600  0.33465900  1
  N  N94  1  0.94653300  0.27293400  0.83465900  1
  N  N95  1  0.55346700  0.77293400  0.66534100  1
  N  N96  1  0.68642800  0.66856400  0.11092100  1
  N  N97  1  0.81357200  0.16856400  0.38907900  1
  N  N98  1  0.81357200  0.83143600  0.88907900  1
  N  N99  1  0.68642800  0.33143600  0.61092100  1
