# generated using pymatgen
data_Eu2H4Pd
_symmetry_space_group_name_H-M   'P 1'
_cell_length_a   5.40193300
_cell_length_b   7.47629900
_cell_length_c   9.52579700
_cell_angle_alpha   90.00000000
_cell_angle_beta   90.00000000
_cell_angle_gamma   90.00000000
_symmetry_Int_Tables_number   1
_chemical_formula_structural   Eu2H4Pd
_chemical_formula_sum   'Eu8 H16 Pd4'
_cell_volume   384.71327939
_cell_formula_units_Z   4
loop_
 _symmetry_equiv_pos_site_id
 _symmetry_equiv_pos_as_xyz
  1  'x, y, z'
loop_
 _atom_site_type_symbol
 _atom_site_label
 _atom_site_symmetry_multiplicity
 _atom_site_fract_x
 _atom_site_fract_y
 _atom_site_fract_z
 _atom_site_occupancy
  Eu  Eu0  1  0.25000000  0.65097300  0.09196500  1
  Eu  Eu1  1  0.25000000  0.15097300  0.40803500  1
  Eu  Eu2  1  0.75000000  0.34902700  0.90803500  1
  Eu  Eu3  1  0.75000000  0.84902700  0.59196500  1
  Eu  Eu4  1  0.25000000  0.98875300  0.83072900  1
  Eu  Eu5  1  0.25000000  0.48875300  0.66927100  1
  Eu  Eu6  1  0.75000000  0.01124700  0.16927100  1
  Eu  Eu7  1  0.75000000  0.51124700  0.33072900  1
  H  H8  1  0.97826400  0.82729200  0.33945900  1
  H  H9  1  0.52173600  0.32729200  0.16054100  1
  H  H10  1  0.47826400  0.17270800  0.66054100  1
  H  H11  1  0.02173600  0.67270800  0.83945900  1
  H  H12  1  0.02173600  0.17270800  0.66054100  1
  H  H13  1  0.47826400  0.67270800  0.83945900  1
  H  H14  1  0.52173600  0.82729200  0.33945900  1
  H  H15  1  0.97826400  0.32729200  0.16054100  1
  H  H16  1  0.25000000  0.50159600  0.39798900  1
  H  H17  1  0.25000000  0.00159600  0.10201100  1
  H  H18  1  0.75000000  0.49840400  0.60201100  1
  H  H19  1  0.75000000  0.99840400  0.89798900  1
  H  H20  1  0.25000000  0.82256200  0.59518700  1
  H  H21  1  0.25000000  0.32256200  0.90481300  1
  H  H22  1  0.75000000  0.17743800  0.40481300  1
  H  H23  1  0.75000000  0.67743800  0.09518700  1
  Pd  Pd24  1  0.25000000  0.73960800  0.41570600  1
  Pd  Pd25  1  0.25000000  0.23960800  0.08429400  1
  Pd  Pd26  1  0.75000000  0.26039200  0.58429400  1
  Pd  Pd27  1  0.75000000  0.76039200  0.91570600  1
