# generated using pymatgen
data_CuMoO4
_symmetry_space_group_name_H-M   'P 1'
_cell_length_a   6.35824965
_cell_length_b   8.17341460
_cell_length_c   9.92916910
_cell_angle_alpha   104.34520838
_cell_angle_beta   103.17688163
_cell_angle_gamma   94.72394132
_symmetry_Int_Tables_number   1
_chemical_formula_structural   CuMoO4
_chemical_formula_sum   'Cu6 Mo6 O24'
_cell_volume   481.45331759
_cell_formula_units_Z   6
loop_
 _symmetry_equiv_pos_site_id
 _symmetry_equiv_pos_as_xyz
  1  'x, y, z'
loop_
 _atom_site_type_symbol
 _atom_site_label
 _atom_site_symmetry_multiplicity
 _atom_site_fract_x
 _atom_site_fract_y
 _atom_site_fract_z
 _atom_site_occupancy
  Cu  Cu0  1  0.90389900  0.80397000  0.99420300  1
  Cu  Cu1  1  0.42749700  0.52766600  0.33409300  1
  Cu  Cu2  1  0.09610100  0.19603000  0.00579700  1
  Cu  Cu3  1  0.72045200  0.23315800  0.43471300  1
  Cu  Cu4  1  0.57250300  0.47233400  0.66590700  1
  Cu  Cu5  1  0.27954800  0.76684200  0.56528700  1
  Mo  Mo6  1  0.41544400  0.87878800  0.11097200  1
  Mo  Mo7  1  0.06998800  0.53974500  0.77593200  1
  Mo  Mo8  1  0.58455600  0.12121200  0.88902800  1
  Mo  Mo9  1  0.78497000  0.87732500  0.64970200  1
  Mo  Mo10  1  0.21503000  0.12267500  0.35029800  1
  Mo  Mo11  1  0.93001200  0.46025500  0.22406800  1
  O  O12  1  0.17634900  0.75626600  0.93990700  1
  O  O13  1  0.20899600  0.34561100  0.19762400  1
  O  O14  1  0.87464700  0.03091800  0.84636600  1
  O  O15  1  0.54688600  0.28352800  0.80742200  1
  O  O16  1  0.10617400  0.39717900  0.87972100  1
  O  O17  1  0.30510900  0.54208100  0.70392700  1
  O  O18  1  0.50463300  0.07500900  0.27298600  1
  O  O19  1  0.55793000  0.70315500  0.52316000  1
  O  O20  1  0.79406400  0.02277900  0.55007400  1
  O  O21  1  0.20593600  0.97722100  0.44992600  1
  O  O22  1  0.82365100  0.24373400  0.06009300  1
  O  O23  1  0.97241300  0.22316600  0.35923600  1
  O  O24  1  0.15859600  0.58705500  0.38515800  1
  O  O25  1  0.79100400  0.65438900  0.80237600  1
  O  O26  1  0.12535300  0.96908200  0.15363400  1
  O  O27  1  0.89382600  0.60282100  0.12027900  1
  O  O28  1  0.44207000  0.29684500  0.47684000  1
  O  O29  1  0.69489100  0.45791900  0.29607300  1
  O  O30  1  0.02758700  0.77683400  0.64076400  1
  O  O31  1  0.49536700  0.92499100  0.72701400  1
  O  O32  1  0.45311400  0.71647200  0.19257800  1
  O  O33  1  0.84140400  0.41294500  0.61484200  1
  O  O34  1  0.63863200  0.88867100  0.02517000  1
  O  O35  1  0.36136800  0.11132900  0.97483000  1
