# generated using pymatgen
data_K3HPdS2(ClO3)2
_symmetry_space_group_name_H-M   'P 1'
_cell_length_a   10.62363600
_cell_length_b   15.31621400
_cell_length_c   7.14402800
_cell_angle_alpha   90.00000000
_cell_angle_beta   90.00000000
_cell_angle_gamma   90.00000000
_symmetry_Int_Tables_number   1
_chemical_formula_structural   K3HPdS2(ClO3)2
_chemical_formula_sum   'K12 H4 Pd4 S8 Cl8 O24'
_cell_volume   1162.43253210
_cell_formula_units_Z   4
loop_
 _symmetry_equiv_pos_site_id
 _symmetry_equiv_pos_as_xyz
  1  'x, y, z'
loop_
 _atom_site_type_symbol
 _atom_site_label
 _atom_site_symmetry_multiplicity
 _atom_site_fract_x
 _atom_site_fract_y
 _atom_site_fract_z
 _atom_site_occupancy
  K  K0  1  0.64105850  0.77744150  0.09527300  1
  K  K1  1  0.64105850  0.22255850  0.09527300  1
  K  K2  1  0.35894150  0.22255850  0.59527300  1
  K  K3  1  0.35894150  0.77744150  0.59527300  1
  K  K4  1  0.87888200  0.00000000  0.27317600  1
  K  K5  1  0.12111800  0.00000000  0.77317600  1
  K  K6  1  0.14105850  0.27744150  0.09527300  1
  K  K7  1  0.14105850  0.72255850  0.09527300  1
  K  K8  1  0.85894150  0.72255850  0.59527300  1
  K  K9  1  0.85894150  0.27744150  0.59527300  1
  K  K10  1  0.37888200  0.50000000  0.27317600  1
  K  K11  1  0.62111800  0.50000000  0.77317600  1
  H  H12  1  0.51124700  0.00000000  0.52177200  1
  H  H13  1  0.48875300  0.00000000  0.02177200  1
  H  H14  1  0.01124700  0.50000000  0.52177200  1
  H  H15  1  0.98875300  0.50000000  0.02177200  1
  Pd  Pd16  1  0.75198300  0.00000000  0.74997200  1
  Pd  Pd17  1  0.24801700  0.00000000  0.24997200  1
  Pd  Pd18  1  0.25198300  0.50000000  0.74997200  1
  Pd  Pd19  1  0.74801700  0.50000000  0.24997200  1
  S  S20  1  0.64813850  0.89089650  0.59194600  1
  S  S21  1  0.64813850  0.10910350  0.59194600  1
  S  S22  1  0.35186150  0.10910350  0.09194600  1
  S  S23  1  0.35186150  0.89089650  0.09194600  1
  S  S24  1  0.14813850  0.39089650  0.59194600  1
  S  S25  1  0.14813850  0.60910350  0.59194600  1
  S  S26  1  0.85186150  0.60910350  0.09194600  1
  S  S27  1  0.85186150  0.39089650  0.09194600  1
  Cl  Cl28  1  0.87998900  0.88897300  0.89917500  1
  Cl  Cl29  1  0.87998900  0.11102700  0.89917500  1
  Cl  Cl30  1  0.12001100  0.11102700  0.39917500  1
  Cl  Cl31  1  0.12001100  0.88897300  0.39917500  1
  Cl  Cl32  1  0.37998900  0.38897300  0.89917500  1
  Cl  Cl33  1  0.37998900  0.61102700  0.89917500  1
  Cl  Cl34  1  0.62001100  0.61102700  0.39917500  1
  Cl  Cl35  1  0.62001100  0.38897300  0.39917500  1
  O  O36  1  0.62698450  0.81028350  0.70250900  1
  O  O37  1  0.62698450  0.18971650  0.70250900  1
  O  O38  1  0.37301550  0.18971650  0.20250900  1
  O  O39  1  0.37301550  0.81028350  0.20250900  1
  O  O40  1  0.72581000  0.87159000  0.42274900  1
  O  O41  1  0.72581000  0.12841000  0.42274900  1
  O  O42  1  0.27419000  0.12841000  0.92274900  1
  O  O43  1  0.27419000  0.87159000  0.92274900  1
  O  O44  1  0.51616850  0.92149550  0.52803800  1
  O  O45  1  0.51616850  0.07850450  0.52803800  1
  O  O46  1  0.48383150  0.07850450  0.02803800  1
  O  O47  1  0.48383150  0.92149550  0.02803800  1
  O  O48  1  0.12698450  0.31028350  0.70250900  1
  O  O49  1  0.12698450  0.68971650  0.70250900  1
  O  O50  1  0.87301550  0.68971650  0.20250900  1
  O  O51  1  0.87301550  0.31028350  0.20250900  1
  O  O52  1  0.22581000  0.37159000  0.42274900  1
  O  O53  1  0.22581000  0.62841000  0.42274900  1
  O  O54  1  0.77419000  0.62841000  0.92274900  1
  O  O55  1  0.77419000  0.37159000  0.92274900  1
  O  O56  1  0.01616850  0.42149550  0.52803800  1
  O  O57  1  0.01616850  0.57850450  0.52803800  1
  O  O58  1  0.98383150  0.57850450  0.02803800  1
  O  O59  1  0.98383150  0.42149550  0.02803800  1
