# generated using pymatgen
data_KNd(PO3)4
_symmetry_space_group_name_H-M   'P 1'
_cell_length_a   7.41405000
_cell_length_b   8.59038100
_cell_length_c   8.10889713
_cell_angle_alpha   90.00000000
_cell_angle_beta   91.74909048
_cell_angle_gamma   90.00000000
_symmetry_Int_Tables_number   1
_chemical_formula_structural   KNd(PO3)4
_chemical_formula_sum   'K2 Nd2 P8 O24'
_cell_volume   516.21109207
_cell_formula_units_Z   2
loop_
 _symmetry_equiv_pos_site_id
 _symmetry_equiv_pos_as_xyz
  1  'x, y, z'
loop_
 _atom_site_type_symbol
 _atom_site_label
 _atom_site_symmetry_multiplicity
 _atom_site_fract_x
 _atom_site_fract_y
 _atom_site_fract_z
 _atom_site_occupancy
  K  K0  1  0.73136900  0.56363200  0.28253300  1
  K  K1  1  0.26863100  0.06363200  0.71746700  1
  Nd  Nd2  1  0.23675800  0.74964200  0.24175700  1
  Nd  Nd3  1  0.76324200  0.24964200  0.75824300  1
  P  P4  1  0.00228000  0.60000000  0.61807600  1
  P  P5  1  0.99772000  0.10000000  0.38192400  1
  P  P6  1  0.61769100  0.00078100  0.39499300  1
  P  P7  1  0.38230900  0.50078100  0.60500700  1
  P  P8  1  0.43211300  0.12513500  0.09585500  1
  P  P9  1  0.56788700  0.62513500  0.90414500  1
  P  P10  1  0.10028000  0.32752100  0.10472700  1
  P  P11  1  0.89972000  0.82752100  0.89527300  1
  O  O12  1  0.39268900  0.56082900  0.43205400  1
  O  O13  1  0.60731100  0.06082900  0.56794600  1
  O  O14  1  0.97032300  0.79581700  0.06770100  1
  O  O15  1  0.02967700  0.29581700  0.93229900  1
  O  O16  1  0.53293500  0.84745300  0.35096700  1
  O  O17  1  0.46706500  0.34745300  0.64903300  1
  O  O18  1  0.45980100  0.63488500  0.72866600  1
  O  O19  1  0.54019900  0.13488500  0.27133400  1
  O  O20  1  0.17477800  0.49085900  0.65821800  1
  O  O21  1  0.82522200  0.99085900  0.34178200  1
  O  O22  1  0.03116000  0.69658400  0.46664900  1
  O  O23  1  0.96884000  0.19658400  0.53335100  1
  O  O24  1  0.91167000  0.98807200  0.82465500  1
  O  O25  1  0.08833000  0.48807200  0.17534500  1
  O  O26  1  0.30922000  0.27785300  0.12158000  1
  O  O27  1  0.69078000  0.77785300  0.87842000  1
  O  O28  1  0.99098900  0.20886500  0.22096000  1
  O  O29  1  0.00901100  0.70886500  0.77904000  1
  O  O30  1  0.16183500  0.99744400  0.38506200  1
  O  O31  1  0.83816500  0.49744400  0.61493800  1
  O  O32  1  0.31794300  0.98220100  0.07373300  1
  O  O33  1  0.68205700  0.48220100  0.92626700  1
  O  O34  1  0.56038700  0.15732800  0.96017100  1
  O  O35  1  0.43961300  0.65732800  0.03982900  1
