# generated using pymatgen
data_H7NO6
_symmetry_space_group_name_H-M   'P 1'
_cell_length_a   3.53685400
_cell_length_b   9.77489070
_cell_length_c   15.07401405
_cell_angle_alpha   90.44405157
_cell_angle_beta   91.43037137
_cell_angle_gamma   91.92836073
_symmetry_Int_Tables_number   1
_chemical_formula_structural   H7NO6
_chemical_formula_sum   'H28 N4 O24'
_cell_volume   520.66758395
_cell_formula_units_Z   4
loop_
 _symmetry_equiv_pos_site_id
 _symmetry_equiv_pos_as_xyz
  1  'x, y, z'
loop_
 _atom_site_type_symbol
 _atom_site_label
 _atom_site_symmetry_multiplicity
 _atom_site_fract_x
 _atom_site_fract_y
 _atom_site_fract_z
 _atom_site_occupancy
  H  H0  1  0.89144300  0.50025400  0.33807100  1
  H  H1  1  0.19280600  0.44744400  0.41744600  1
  H  H2  1  0.29197900  0.94404600  0.68224700  1
  H  H3  1  0.65540500  0.09657500  0.68025000  1
  H  H4  1  0.82515700  0.90963500  0.18530900  1
  H  H5  1  0.21671200  0.05120100  0.18601700  1
  H  H6  1  0.62358600  0.49940800  0.82611300  1
  H  H7  1  0.33976400  0.55159700  0.90402000  1
  H  H8  1  0.18166400  0.53859400  0.04416500  1
  H  H9  1  0.00126100  0.41299000  0.98754200  1
  H  H10  1  0.32832400  0.98933200  0.00925000  1
  H  H11  1  0.61010000  0.08161000  0.95296700  1
  H  H12  1  0.17964100  0.01128900  0.50827900  1
  H  H13  1  0.88591000  0.91819500  0.45100300  1
  H  H14  1  0.51104700  0.58088300  0.49997400  1
  H  H15  1  0.33036900  0.45699000  0.55456900  1
  H  H16  1  0.57735700  0.70536800  0.08335500  1
  H  H17  1  0.18589600  0.84112000  0.14873800  1
  H  H18  1  0.48876300  0.65311000  0.17924800  1
  H  H19  1  0.66467900  0.67166100  0.86362800  1
  H  H20  1  0.97737400  0.83552700  0.83441200  1
  H  H21  1  0.72840500  0.86424700  0.91931000  1
  H  H22  1  0.54503100  0.17446200  0.33435900  1
  H  H23  1  0.78622200  0.13468100  0.42206500  1
  H  H24  1  0.85507800  0.32757000  0.37370800  1
  H  H25  1  0.97465500  0.34133200  0.67674300  1
  H  H26  1  0.87601600  0.31499600  0.57567600  1
  H  H27  1  0.27843600  0.15330600  0.63930600  1
  N  N28  1  0.32699400  0.25034400  0.16231700  1
  N  N29  1  0.80050800  0.24955700  0.83066800  1
  N  N30  1  0.68529400  0.74421000  0.33278300  1
  N  N31  1  0.18183000  0.74494500  0.66039600  1
  O  O32  1  0.49605800  0.35417800  0.18852300  1
  O  O33  1  0.89727000  0.13989400  0.79577100  1
  O  O34  1  0.58471700  0.85210700  0.29530200  1
  O  O35  1  0.01199400  0.64293700  0.68677800  1
  O  O36  1  0.34838500  0.13921400  0.21880100  1
  O  O37  1  0.79221700  0.35909300  0.78326500  1
  O  O38  1  0.69918200  0.63270500  0.28696600  1
  O  O39  1  0.18012300  0.85734200  0.71666300  1
  O  O40  1  0.14113800  0.23259200  0.09263300  1
  O  O41  1  0.71052500  0.25579500  0.91132100  1
  O  O42  1  0.77271100  0.74303300  0.41453700  1
  O  O43  1  0.35323100  0.75923300  0.59069200  1
  O  O44  1  0.03614900  0.42009300  0.36105400  1
  O  O45  1  0.43472700  0.07022100  0.64194100  1
  O  O46  1  0.04429700  0.92816700  0.14782100  1
  O  O47  1  0.48454700  0.58088600  0.84868100  1
  O  O48  1  0.08666500  0.50937300  0.98499000  1
  O  O49  1  0.55959300  0.98831400  0.97516200  1
  O  O50  1  0.93486500  0.01060700  0.47684900  1
  O  O51  1  0.45621600  0.48194200  0.49892100  1
  O  O52  1  0.36777500  0.68321900  0.12239400  1
  O  O53  1  0.86844100  0.79160200  0.88656000  1
  O  O54  1  0.65162000  0.21179900  0.39058800  1
  O  O55  1  0.08788600  0.31748900  0.61887400  1
