# generated using pymatgen
data_Mg2SiO4
_symmetry_space_group_name_H-M   'P 1'
_cell_length_a   5.72222800
_cell_length_b   5.85322400
_cell_length_c   8.31077000
_cell_angle_alpha   90.00000000
_cell_angle_beta   90.00000000
_cell_angle_gamma   90.00000000
_symmetry_Int_Tables_number   1
_chemical_formula_structural   Mg2SiO4
_chemical_formula_sum   'Mg8 Si4 O16'
_cell_volume   278.35662759
_cell_formula_units_Z   4
loop_
 _symmetry_equiv_pos_site_id
 _symmetry_equiv_pos_as_xyz
  1  'x, y, z'
loop_
 _atom_site_type_symbol
 _atom_site_label
 _atom_site_symmetry_multiplicity
 _atom_site_fract_x
 _atom_site_fract_y
 _atom_site_fract_z
 _atom_site_occupancy
  Mg  Mg0  1  0.00000000  0.25000000  0.10947800  1
  Mg  Mg1  1  0.50000000  0.00000000  0.00000000  1
  Mg  Mg2  1  0.50000000  0.50000000  0.00000000  1
  Mg  Mg3  1  0.00000000  0.75000000  0.89052200  1
  Mg  Mg4  1  0.50000000  0.75000000  0.60947800  1
  Mg  Mg5  1  0.00000000  0.50000000  0.50000000  1
  Mg  Mg6  1  0.00000000  0.00000000  0.50000000  1
  Mg  Mg7  1  0.50000000  0.25000000  0.39052200  1
  Si  Si8  1  0.75000000  0.25000000  0.75000000  1
  Si  Si9  1  0.25000000  0.25000000  0.75000000  1
  Si  Si10  1  0.25000000  0.75000000  0.25000000  1
  Si  Si11  1  0.75000000  0.75000000  0.25000000  1
  O  O12  1  0.50000000  0.03585100  0.74897900  1
  O  O13  1  0.26114900  0.25000000  0.96032600  1
  O  O14  1  0.00000000  0.96414900  0.24897900  1
  O  O15  1  0.73885100  0.25000000  0.96032600  1
  O  O16  1  0.26114900  0.75000000  0.03967400  1
  O  O17  1  0.00000000  0.03585100  0.75102100  1
  O  O18  1  0.73885100  0.75000000  0.03967400  1
  O  O19  1  0.50000000  0.96414900  0.25102100  1
  O  O20  1  0.00000000  0.53585100  0.24897900  1
  O  O21  1  0.76114900  0.75000000  0.46032600  1
  O  O22  1  0.50000000  0.46414900  0.74897900  1
  O  O23  1  0.23885100  0.75000000  0.46032600  1
  O  O24  1  0.76114900  0.25000000  0.53967400  1
  O  O25  1  0.50000000  0.53585100  0.25102100  1
  O  O26  1  0.23885100  0.25000000  0.53967400  1
  O  O27  1  0.00000000  0.46414900  0.75102100  1
