# generated using pymatgen
data_K3Ta2AsSe11
_symmetry_space_group_name_H-M   'P 1'
_cell_length_a   15.22612000
_cell_length_b   13.29119200
_cell_length_c   10.10023698
_cell_angle_alpha   90.00000000
_cell_angle_beta   99.86256834
_cell_angle_gamma   90.00000000
_symmetry_Int_Tables_number   1
_chemical_formula_structural   K3Ta2AsSe11
_chemical_formula_sum   'K12 Ta8 As4 Se44'
_cell_volume   2013.81048122
_cell_formula_units_Z   4
loop_
 _symmetry_equiv_pos_site_id
 _symmetry_equiv_pos_as_xyz
  1  'x, y, z'
loop_
 _atom_site_type_symbol
 _atom_site_label
 _atom_site_symmetry_multiplicity
 _atom_site_fract_x
 _atom_site_fract_y
 _atom_site_fract_z
 _atom_site_occupancy
  K  K0  1  0.26697150  0.06728450  0.91722300  1
  K  K1  1  0.64837650  0.91865050  0.16550400  1
  K  K2  1  0.26697150  0.93271550  0.41722300  1
  K  K3  1  0.52255500  0.57671700  0.25313600  1
  K  K4  1  0.64837650  0.08134950  0.66550400  1
  K  K5  1  0.52255500  0.42328300  0.75313600  1
  K  K6  1  0.76697150  0.56728450  0.91722300  1
  K  K7  1  0.14837650  0.41865050  0.16550400  1
  K  K8  1  0.76697150  0.43271550  0.41722300  1
  K  K9  1  0.02255500  0.07671700  0.25313600  1
  K  K10  1  0.14837650  0.58134950  0.66550400  1
  K  K11  1  0.02255500  0.92328300  0.75313600  1
  Ta  Ta12  1  0.38210050  0.79179450  0.83064100  1
  Ta  Ta13  1  0.56641800  0.72686300  0.64600100  1
  Ta  Ta14  1  0.38210050  0.20820550  0.33064100  1
  Ta  Ta15  1  0.56641800  0.27313700  0.14600100  1
  Ta  Ta16  1  0.88210050  0.29179450  0.83064100  1
  Ta  Ta17  1  0.06641800  0.22686300  0.64600100  1
  Ta  Ta18  1  0.88210050  0.70820550  0.33064100  1
  Ta  Ta19  1  0.06641800  0.77313700  0.14600100  1
  As  As20  1  0.80224350  0.15132350  0.09811200  1
  As  As21  1  0.80224350  0.84867650  0.59811200  1
  As  As22  1  0.30224350  0.65132350  0.09811200  1
  As  As23  1  0.30224350  0.34867650  0.59811200  1
  Se  Se24  1  0.64631250  0.15244550  0.99299200  1
  Se  Se25  1  0.43576500  0.74879500  0.43776400  1
  Se  Se26  1  0.45868350  0.90198050  0.66794500  1
  Se  Se27  1  0.13708700  0.92195300  0.08892500  1
  Se  Se28  1  0.13708700  0.07804700  0.58892500  1
  Se  Se29  1  0.37244250  0.18682550  0.58760300  1
  Se  Se30  1  0.23103800  0.17130000  0.24518500  1
  Se  Se31  1  0.39856700  0.65777800  0.62716100  1
  Se  Se32  1  0.39856700  0.34222200  0.12716100  1
  Se  Se33  1  0.43576500  0.25120500  0.93776400  1
  Se  Se34  1  0.37244250  0.81317450  0.08760300  1
  Se  Se35  1  0.46609600  0.96037400  0.89326300  1
  Se  Se36  1  0.86987800  0.90415700  0.40394100  1
  Se  Se37  1  0.86987800  0.09584300  0.90394100  1
  Se  Se38  1  0.55958050  0.29856650  0.40319400  1
  Se  Se39  1  0.67511450  0.19160450  0.34340100  1
  Se  Se40  1  0.45868350  0.09801950  0.16794500  1
  Se  Se41  1  0.67511450  0.80839550  0.84340100  1
  Se  Se42  1  0.64631250  0.84755450  0.49299200  1
  Se  Se43  1  0.23103800  0.82870000  0.74518500  1
  Se  Se44  1  0.55958050  0.70143350  0.90319400  1
  Se  Se45  1  0.46609600  0.03962600  0.39326300  1
  Se  Se46  1  0.14631250  0.65244550  0.99299200  1
  Se  Se47  1  0.93576500  0.24879500  0.43776400  1
  Se  Se48  1  0.95868350  0.40198050  0.66794500  1
  Se  Se49  1  0.63708700  0.42195300  0.08892500  1
  Se  Se50  1  0.63708700  0.57804700  0.58892500  1
  Se  Se51  1  0.87244250  0.68682550  0.58760300  1
  Se  Se52  1  0.73103800  0.67130000  0.24518500  1
  Se  Se53  1  0.89856700  0.15777800  0.62716100  1
  Se  Se54  1  0.89856700  0.84222200  0.12716100  1
  Se  Se55  1  0.93576500  0.75120500  0.93776400  1
  Se  Se56  1  0.87244250  0.31317450  0.08760300  1
  Se  Se57  1  0.96609600  0.46037400  0.89326300  1
  Se  Se58  1  0.36987800  0.40415700  0.40394100  1
  Se  Se59  1  0.36987800  0.59584300  0.90394100  1
  Se  Se60  1  0.05958050  0.79856650  0.40319400  1
  Se  Se61  1  0.17511450  0.69160450  0.34340100  1
  Se  Se62  1  0.95868350  0.59801950  0.16794500  1
  Se  Se63  1  0.17511450  0.30839550  0.84340100  1
  Se  Se64  1  0.14631250  0.34755450  0.49299200  1
  Se  Se65  1  0.73103800  0.32870000  0.74518500  1
  Se  Se66  1  0.05958050  0.20143350  0.90319400  1
  Se  Se67  1  0.96609600  0.53962600  0.39326300  1
