# generated using pymatgen
data_Nd2Ti4O11
_symmetry_space_group_name_H-M   'P 1'
_cell_length_a   13.70692600
_cell_length_b   5.12813400
_cell_length_c   12.84317148
_cell_angle_alpha   90.00000000
_cell_angle_beta   108.88792451
_cell_angle_gamma   90.00000000
_symmetry_Int_Tables_number   1
_chemical_formula_structural   Nd2Ti4O11
_chemical_formula_sum   'Nd8 Ti16 O44'
_cell_volume   854.14846137
_cell_formula_units_Z   4
loop_
 _symmetry_equiv_pos_site_id
 _symmetry_equiv_pos_as_xyz
  1  'x, y, z'
loop_
 _atom_site_type_symbol
 _atom_site_label
 _atom_site_symmetry_multiplicity
 _atom_site_fract_x
 _atom_site_fract_y
 _atom_site_fract_z
 _atom_site_occupancy
  Nd  Nd0  1  0.69940300  0.49849000  0.09430800  1
  Nd  Nd1  1  0.19940300  0.00151000  0.59430800  1
  Nd  Nd2  1  0.30059700  0.50151000  0.90569200  1
  Nd  Nd3  1  0.80059700  0.99849000  0.40569200  1
  Nd  Nd4  1  0.19940300  0.99849000  0.09430800  1
  Nd  Nd5  1  0.69940300  0.50151000  0.59430800  1
  Nd  Nd6  1  0.80059700  0.00151000  0.90569200  1
  Nd  Nd7  1  0.30059700  0.49849000  0.40569200  1
  Ti  Ti8  1  0.89133100  0.94805100  0.18920100  1
  Ti  Ti9  1  0.03238800  0.44860400  0.40311200  1
  Ti  Ti10  1  0.10866900  0.94805100  0.31079900  1
  Ti  Ti11  1  0.10866900  0.05194900  0.81079900  1
  Ti  Ti12  1  0.03238800  0.55139600  0.90311200  1
  Ti  Ti13  1  0.96761200  0.55139600  0.59688800  1
  Ti  Ti14  1  0.89133100  0.05194900  0.68920100  1
  Ti  Ti15  1  0.96761200  0.44860400  0.09688800  1
  Ti  Ti16  1  0.39133100  0.44805100  0.18920100  1
  Ti  Ti17  1  0.53238800  0.94860400  0.40311200  1
  Ti  Ti18  1  0.60866900  0.44805100  0.31079900  1
  Ti  Ti19  1  0.60866900  0.55194900  0.81079900  1
  Ti  Ti20  1  0.53238800  0.05139600  0.90311200  1
  Ti  Ti21  1  0.46761200  0.05139600  0.59688800  1
  Ti  Ti22  1  0.39133100  0.55194900  0.68920100  1
  Ti  Ti23  1  0.46761200  0.94860400  0.09688800  1
  O  O24  1  0.78348450  0.83622350  0.22347200  1
  O  O25  1  0.15988600  0.76938300  0.90237000  1
  O  O26  1  0.43223700  0.85523500  0.94297000  1
  O  O27  1  0.28348450  0.66377650  0.72347200  1
  O  O28  1  0.95712550  0.14417550  0.33208600  1
  O  O29  1  0.14044000  0.72449200  0.43895600  1
  O  O30  1  0.56776300  0.14476500  0.05703000  1
  O  O31  1  0.15988600  0.23061700  0.40237000  1
  O  O32  1  0.04287450  0.85582450  0.66791400  1
  O  O33  1  0.00000000  0.65700900  0.25000000  1
  O  O34  1  0.85956000  0.27550800  0.56104400  1
  O  O35  1  0.85956000  0.72449200  0.06104400  1
  O  O36  1  0.84011400  0.23061700  0.09763000  1
  O  O37  1  0.71651550  0.33622350  0.27652800  1
  O  O38  1  0.95712550  0.85582450  0.83208600  1
  O  O39  1  0.84011400  0.76938300  0.59763000  1
  O  O40  1  0.06776300  0.35523500  0.55703000  1
  O  O41  1  0.14044000  0.27550800  0.93895600  1
  O  O42  1  0.93223700  0.64476500  0.44297000  1
  O  O43  1  0.00000000  0.34299100  0.75000000  1
  O  O44  1  0.04287450  0.14417550  0.16791400  1
  O  O45  1  0.21651550  0.16377650  0.77652800  1
  O  O46  1  0.28348450  0.33622350  0.22347200  1
  O  O47  1  0.65988600  0.26938300  0.90237000  1
  O  O48  1  0.93223700  0.35523500  0.94297000  1
  O  O49  1  0.78348450  0.16377650  0.72347200  1
  O  O50  1  0.45712550  0.64417550  0.33208600  1
  O  O51  1  0.64044000  0.22449200  0.43895600  1
  O  O52  1  0.06776300  0.64476500  0.05703000  1
  O  O53  1  0.65988600  0.73061700  0.40237000  1
  O  O54  1  0.54287450  0.35582450  0.66791400  1
  O  O55  1  0.50000000  0.15700900  0.25000000  1
  O  O56  1  0.35956000  0.77550800  0.56104400  1
  O  O57  1  0.35956000  0.22449200  0.06104400  1
  O  O58  1  0.34011400  0.73061700  0.09763000  1
  O  O59  1  0.21651550  0.83622350  0.27652800  1
  O  O60  1  0.45712550  0.35582450  0.83208600  1
  O  O61  1  0.34011400  0.26938300  0.59763000  1
  O  O62  1  0.56776300  0.85523500  0.55703000  1
  O  O63  1  0.64044000  0.77550800  0.93895600  1
  O  O64  1  0.43223700  0.14476500  0.44297000  1
  O  O65  1  0.50000000  0.84299100  0.75000000  1
  O  O66  1  0.54287450  0.64417550  0.16791400  1
  O  O67  1  0.71651550  0.66377650  0.77652800  1
