# generated using pymatgen
data_Co2PClO4
_symmetry_space_group_name_H-M   'P 1'
_cell_length_a   13.64716800
_cell_length_b   9.19361600
_cell_length_c   9.31746473
_cell_angle_alpha   90.00000000
_cell_angle_beta   132.94336679
_cell_angle_gamma   90.00000000
_symmetry_Int_Tables_number   1
_chemical_formula_structural   Co2PClO4
_chemical_formula_sum   'Co16 P8 Cl8 O32'
_cell_volume   855.76402535
_cell_formula_units_Z   8
loop_
 _symmetry_equiv_pos_site_id
 _symmetry_equiv_pos_as_xyz
  1  'x, y, z'
loop_
 _atom_site_type_symbol
 _atom_site_label
 _atom_site_symmetry_multiplicity
 _atom_site_fract_x
 _atom_site_fract_y
 _atom_site_fract_z
 _atom_site_occupancy
  Co  Co0  1  0.18350400  0.25754800  0.17429000  1
  Co  Co1  1  0.31649600  0.24245200  0.82571000  1
  Co  Co2  1  0.31649600  0.75754800  0.32571000  1
  Co  Co3  1  0.00000000  0.27403300  0.25000000  1
  Co  Co4  1  0.00000000  0.00000000  0.50000000  1
  Co  Co5  1  0.18350400  0.74245200  0.67429000  1
  Co  Co6  1  0.50000000  0.22596700  0.75000000  1
  Co  Co7  1  0.00000000  0.00000000  0.00000000  1
  Co  Co8  1  0.68350400  0.75754800  0.17429000  1
  Co  Co9  1  0.81649600  0.74245200  0.82571000  1
  Co  Co10  1  0.81649600  0.25754800  0.32571000  1
  Co  Co11  1  0.50000000  0.77403300  0.25000000  1
  Co  Co12  1  0.50000000  0.50000000  0.50000000  1
  Co  Co13  1  0.68350400  0.24245200  0.67429000  1
  Co  Co14  1  0.00000000  0.72596700  0.75000000  1
  Co  Co15  1  0.50000000  0.50000000  0.00000000  1
  P  P16  1  0.23270000  0.00802600  0.48535300  1
  P  P17  1  0.26730000  0.49197400  0.51464700  1
  P  P18  1  0.26730000  0.50802600  0.01464700  1
  P  P19  1  0.23270000  0.99197400  0.98535300  1
  P  P20  1  0.73270000  0.50802600  0.48535300  1
  P  P21  1  0.76730000  0.99197400  0.51464700  1
  P  P22  1  0.76730000  0.00802600  0.01464700  1
  P  P23  1  0.73270000  0.49197400  0.98535300  1
  Cl  Cl24  1  0.07430850  0.73540650  0.07406000  1
  Cl  Cl25  1  0.57430850  0.76459350  0.57406000  1
  Cl  Cl26  1  0.42569150  0.76459350  0.92594000  1
  Cl  Cl27  1  0.92569150  0.73540650  0.42594000  1
  Cl  Cl28  1  0.57430850  0.23540650  0.07406000  1
  Cl  Cl29  1  0.07430850  0.26459350  0.57406000  1
  Cl  Cl30  1  0.92569150  0.26459350  0.92594000  1
  Cl  Cl31  1  0.42569150  0.23540650  0.42594000  1
  O  O32  1  0.34854800  0.57192900  0.47580000  1
  O  O33  1  0.84854800  0.92807100  0.97580000  1
  O  O34  1  0.37526250  0.59637750  0.21237300  1
  O  O35  1  0.12473750  0.90362250  0.78762700  1
  O  O36  1  0.18894350  0.59477450  0.52984900  1
  O  O37  1  0.33167950  0.11726150  0.65717100  1
  O  O38  1  0.15145200  0.92807100  0.52420000  1
  O  O39  1  0.83167950  0.38273850  0.15717100  1
  O  O40  1  0.18894350  0.40522550  0.02984900  1
  O  O41  1  0.65145200  0.57192900  0.02420000  1
  O  O42  1  0.66832050  0.11726150  0.84282900  1
  O  O43  1  0.31105650  0.09477450  0.97015100  1
  O  O44  1  0.31105650  0.90522550  0.47015100  1
  O  O45  1  0.16832050  0.38273850  0.34282900  1
  O  O46  1  0.37526250  0.40362250  0.71237300  1
  O  O47  1  0.12473750  0.09637750  0.28762700  1
  O  O48  1  0.84854800  0.07192900  0.47580000  1
  O  O49  1  0.34854800  0.42807100  0.97580000  1
  O  O50  1  0.87526250  0.09637750  0.21237300  1
  O  O51  1  0.62473750  0.40362250  0.78762700  1
  O  O52  1  0.68894350  0.09477450  0.52984900  1
  O  O53  1  0.83167950  0.61726150  0.65717100  1
  O  O54  1  0.65145200  0.42807100  0.52420000  1
  O  O55  1  0.33167950  0.88273850  0.15717100  1
  O  O56  1  0.68894350  0.90522550  0.02984900  1
  O  O57  1  0.15145200  0.07192900  0.02420000  1
  O  O58  1  0.16832050  0.61726150  0.84282900  1
  O  O59  1  0.81105650  0.59477450  0.97015100  1
  O  O60  1  0.81105650  0.40522550  0.47015100  1
  O  O61  1  0.66832050  0.88273850  0.34282900  1
  O  O62  1  0.87526250  0.90362250  0.71237300  1
  O  O63  1  0.62473750  0.59637750  0.28762700  1
