# generated using pymatgen
data_Nb6(Pb2O5)5
_symmetry_space_group_name_H-M   'P 1'
_cell_length_a   7.69422800
_cell_length_b   7.71700766
_cell_length_c   11.05318062
_cell_angle_alpha   89.40803500
_cell_angle_beta   89.96809984
_cell_angle_gamma   89.97628579
_symmetry_Int_Tables_number   1
_chemical_formula_structural   Nb6(Pb2O5)5
_chemical_formula_sum   'Nb6 Pb10 O25'
_cell_volume   656.26307079
_cell_formula_units_Z   1
loop_
 _symmetry_equiv_pos_site_id
 _symmetry_equiv_pos_as_xyz
  1  'x, y, z'
loop_
 _atom_site_type_symbol
 _atom_site_label
 _atom_site_symmetry_multiplicity
 _atom_site_fract_x
 _atom_site_fract_y
 _atom_site_fract_z
 _atom_site_occupancy
  Nb  Nb0  1  0.24821600  0.23891800  0.73864100  1
  Nb  Nb1  1  0.00215400  0.49339900  0.98761300  1
  Nb  Nb2  1  0.75621400  0.74553200  0.24131000  1
  Nb  Nb3  1  0.50043200  0.00085900  0.48765600  1
  Nb  Nb4  1  0.73692100  0.23862300  0.74387900  1
  Nb  Nb5  1  0.25649800  0.74453500  0.23955900  1
  Pb  Pb6  1  0.00135500  0.00619600  0.99609500  1
  Pb  Pb7  1  0.50200100  0.50615300  0.50018600  1
  Pb  Pb8  1  0.25602000  0.75976100  0.74517500  1
  Pb  Pb9  1  0.00499500  0.98265700  0.47223400  1
  Pb  Pb10  1  0.76644100  0.24484400  0.25497300  1
  Pb  Pb11  1  0.23186900  0.24652500  0.25159400  1
  Pb  Pb12  1  0.00308400  0.49570000  0.48798100  1
  Pb  Pb13  1  0.50634800  0.48096800  0.98695000  1
  Pb  Pb14  1  0.74059300  0.75045400  0.74041400  1
  Pb  Pb15  1  0.50044700  0.99719400  0.98366200  1
  O  O16  1  0.28507000  0.44543600  0.62976600  1
  O  O17  1  0.00830900  0.71686300  0.91062600  1
  O  O18  1  0.00241400  0.76155900  0.31308700  1
  O  O19  1  0.30925700  0.92488200  0.39001700  1
  O  O20  1  0.23006100  0.96379600  0.15417900  1
  O  O21  1  0.77207600  0.96433800  0.15455300  1
  O  O22  1  0.30462200  0.07699400  0.61305800  1
  O  O23  1  0.99822800  0.29871200  0.11740500  1
  O  O24  1  0.50122000  0.23954900  0.42739100  1
  O  O25  1  0.49859100  0.29148100  0.80506700  1
  O  O26  1  0.71616100  0.45190000  0.63168000  1
  O  O27  1  0.18943900  0.39566600  0.89424400  1
  O  O28  1  0.80624800  0.40669600  0.89381600  1
  O  O29  1  0.81243500  0.59816300  0.11256800  1
  O  O30  1  0.28153300  0.55483900  0.37562100  1
  O  O31  1  0.19182100  0.59451000  0.11391200  1
  O  O32  1  0.50279600  0.72245100  0.20643000  1
  O  O33  1  0.50071300  0.72806200  0.87680700  1
  O  O34  1  0.50255100  0.76782800  0.59152900  1
  O  O35  1  0.69308900  0.92672600  0.39099800  1
  O  O36  1  0.25956400  0.03200200  0.85127900  1
  O  O37  1  0.74472900  0.03551500  0.85530100  1
  O  O38  1  0.68490200  0.08017900  0.61754700  1
  O  O39  1  0.99731800  0.23974200  0.71050600  1
  O  O40  1  0.72196800  0.55441600  0.37456600  1
