# generated using pymatgen
data_NdAl3(BO3)4
_symmetry_space_group_name_H-M   'P 1'
_cell_length_a   7.33075000
_cell_length_b   9.43263400
_cell_length_c   11.25222485
_cell_angle_alpha   90.00000000
_cell_angle_beta   103.55264072
_cell_angle_gamma   90.00000000
_symmetry_Int_Tables_number   1
_chemical_formula_structural   NdAl3(BO3)4
_chemical_formula_sum   'Nd4 Al12 B16 O48'
_cell_volume   756.40662268
_cell_formula_units_Z   4
loop_
 _symmetry_equiv_pos_site_id
 _symmetry_equiv_pos_as_xyz
  1  'x, y, z'
loop_
 _atom_site_type_symbol
 _atom_site_label
 _atom_site_symmetry_multiplicity
 _atom_site_fract_x
 _atom_site_fract_y
 _atom_site_fract_z
 _atom_site_occupancy
  Nd  Nd0  1  0.50000000  0.46345200  0.25000000  1
  Nd  Nd1  1  0.50000000  0.53654800  0.75000000  1
  Nd  Nd2  1  0.00000000  0.96345200  0.25000000  1
  Nd  Nd3  1  0.00000000  0.03654800  0.75000000  1
  Al  Al4  1  0.50000000  0.91145700  0.25000000  1
  Al  Al5  1  0.50000000  0.08854300  0.75000000  1
  Al  Al6  1  0.55500050  0.24978050  0.52824400  1
  Al  Al7  1  0.44499950  0.24978050  0.97175600  1
  Al  Al8  1  0.44499950  0.75021950  0.47175600  1
  Al  Al9  1  0.55500050  0.75021950  0.02824400  1
  Al  Al10  1  0.00000000  0.41145700  0.25000000  1
  Al  Al11  1  0.00000000  0.58854300  0.75000000  1
  Al  Al12  1  0.05500050  0.74978050  0.52824400  1
  Al  Al13  1  0.94499950  0.74978050  0.97175600  1
  Al  Al14  1  0.94499950  0.25021950  0.47175600  1
  Al  Al15  1  0.05500050  0.25021950  0.02824400  1
  B  B16  1  0.74837850  0.02865550  0.99431600  1
  B  B17  1  0.25162150  0.02865550  0.50568400  1
  B  B18  1  0.25162150  0.97134450  0.00568400  1
  B  B19  1  0.74837850  0.97134450  0.49431600  1
  B  B20  1  0.69331700  0.18579900  0.22222600  1
  B  B21  1  0.30668300  0.18579900  0.27777400  1
  B  B22  1  0.30668300  0.81420100  0.77777400  1
  B  B23  1  0.69331700  0.81420100  0.72222600  1
  B  B24  1  0.24837850  0.52865550  0.99431600  1
  B  B25  1  0.75162150  0.52865550  0.50568400  1
  B  B26  1  0.75162150  0.47134450  0.00568400  1
  B  B27  1  0.24837850  0.47134450  0.49431600  1
  B  B28  1  0.19331700  0.68579900  0.22222600  1
  B  B29  1  0.80668300  0.68579900  0.27777400  1
  B  B30  1  0.80668300  0.31420100  0.77777400  1
  B  B31  1  0.19331700  0.31420100  0.72222600  1
  O  O32  1  0.68757600  0.95734000  0.74226900  1
  O  O33  1  0.31242400  0.95734000  0.75773100  1
  O  O34  1  0.31242400  0.04266000  0.25773100  1
  O  O35  1  0.68757600  0.04266000  0.24226900  1
  O  O36  1  0.56231450  0.74171850  0.63734200  1
  O  O37  1  0.43768550  0.74171850  0.86265800  1
  O  O38  1  0.43768550  0.25828150  0.36265800  1
  O  O39  1  0.56231450  0.25828150  0.13734200  1
  O  O40  1  0.40479200  0.40199300  0.56154100  1
  O  O41  1  0.59520800  0.40199300  0.93845900  1
  O  O42  1  0.59520800  0.59800700  0.43845900  1
  O  O43  1  0.40479200  0.59800700  0.06154100  1
  O  O44  1  0.40441950  0.10223650  0.57429000  1
  O  O45  1  0.59558050  0.10223650  0.92571000  1
  O  O46  1  0.59558050  0.89776350  0.42571000  1
  O  O47  1  0.40441950  0.89776350  0.07429000  1
  O  O48  1  0.75001300  0.11937900  0.50329700  1
  O  O49  1  0.24998700  0.11937900  0.99670300  1
  O  O50  1  0.24998700  0.88062100  0.49670300  1
  O  O51  1  0.75001300  0.88062100  0.00329700  1
  O  O52  1  0.34049200  0.23672400  0.79500700  1
  O  O53  1  0.65950800  0.23672400  0.70499300  1
  O  O54  1  0.65950800  0.76327600  0.20499300  1
  O  O55  1  0.34049200  0.76327600  0.29500700  1
  O  O56  1  0.18757600  0.45734000  0.74226900  1
  O  O57  1  0.81242400  0.45734000  0.75773100  1
  O  O58  1  0.81242400  0.54266000  0.25773100  1
  O  O59  1  0.18757600  0.54266000  0.24226900  1
  O  O60  1  0.06231450  0.24171850  0.63734200  1
  O  O61  1  0.93768550  0.24171850  0.86265800  1
  O  O62  1  0.93768550  0.75828150  0.36265800  1
  O  O63  1  0.06231450  0.75828150  0.13734200  1
  O  O64  1  0.90479200  0.90199300  0.56154100  1
  O  O65  1  0.09520800  0.90199300  0.93845900  1
  O  O66  1  0.09520800  0.09800700  0.43845900  1
  O  O67  1  0.90479200  0.09800700  0.06154100  1
  O  O68  1  0.90441950  0.60223650  0.57429000  1
  O  O69  1  0.09558050  0.60223650  0.92571000  1
  O  O70  1  0.09558050  0.39776350  0.42571000  1
  O  O71  1  0.90441950  0.39776350  0.07429000  1
  O  O72  1  0.25001300  0.61937900  0.50329700  1
  O  O73  1  0.74998700  0.61937900  0.99670300  1
  O  O74  1  0.74998700  0.38062100  0.49670300  1
  O  O75  1  0.25001300  0.38062100  0.00329700  1
  O  O76  1  0.84049200  0.73672400  0.79500700  1
  O  O77  1  0.15950800  0.73672400  0.70499300  1
  O  O78  1  0.15950800  0.26327600  0.20499300  1
  O  O79  1  0.84049200  0.26327600  0.29500700  1
