# generated using pymatgen
data_CsTaI6
_symmetry_space_group_name_H-M   'P 1'
_cell_length_a   14.13541200
_cell_length_b   7.43750000
_cell_length_c   14.38164558
_cell_angle_alpha   90.00000000
_cell_angle_beta   101.52287393
_cell_angle_gamma   90.00000000
_symmetry_Int_Tables_number   1
_chemical_formula_structural   CsTaI6
_chemical_formula_sum   'Cs4 Ta4 I24'
_cell_volume   1481.49922162
_cell_formula_units_Z   4
loop_
 _symmetry_equiv_pos_site_id
 _symmetry_equiv_pos_as_xyz
  1  'x, y, z'
loop_
 _atom_site_type_symbol
 _atom_site_label
 _atom_site_symmetry_multiplicity
 _atom_site_fract_x
 _atom_site_fract_y
 _atom_site_fract_z
 _atom_site_occupancy
  Cs  Cs0  1  0.00000000  0.08901400  0.25000000  1
  Cs  Cs1  1  0.00000000  0.91098600  0.75000000  1
  Cs  Cs2  1  0.50000000  0.58901400  0.25000000  1
  Cs  Cs3  1  0.50000000  0.41098600  0.75000000  1
  Ta  Ta4  1  0.75000000  0.75000000  0.00000000  1
  Ta  Ta5  1  0.75000000  0.25000000  0.50000000  1
  Ta  Ta6  1  0.25000000  0.25000000  0.00000000  1
  Ta  Ta7  1  0.25000000  0.75000000  0.50000000  1
  I  I8  1  0.92026250  0.39545750  0.60193400  1
  I  I9  1  0.92026250  0.60454250  0.10193400  1
  I  I10  1  0.57973750  0.89545750  0.89806600  1
  I  I11  1  0.78647550  0.40819250  0.33603000  1
  I  I12  1  0.71352450  0.09180750  0.66397000  1
  I  I13  1  0.65108550  0.55643550  0.53434100  1
  I  I14  1  0.84891450  0.94356450  0.46565900  1
  I  I15  1  0.57973750  0.10454250  0.39806600  1
  I  I16  1  0.65108550  0.44356450  0.03434100  1
  I  I17  1  0.71352450  0.90819250  0.16397000  1
  I  I18  1  0.78647550  0.59180750  0.83603000  1
  I  I19  1  0.84891450  0.05643550  0.96565900  1
  I  I20  1  0.42026250  0.89545750  0.60193400  1
  I  I21  1  0.42026250  0.10454250  0.10193400  1
  I  I22  1  0.07973750  0.39545750  0.89806600  1
  I  I23  1  0.28647550  0.90819250  0.33603000  1
  I  I24  1  0.21352450  0.59180750  0.66397000  1
  I  I25  1  0.15108550  0.05643550  0.53434100  1
  I  I26  1  0.34891450  0.44356450  0.46565900  1
  I  I27  1  0.07973750  0.60454250  0.39806600  1
  I  I28  1  0.15108550  0.94356450  0.03434100  1
  I  I29  1  0.21352450  0.40819250  0.16397000  1
  I  I30  1  0.28647550  0.09180750  0.83603000  1
  I  I31  1  0.34891450  0.55643550  0.96565900  1
