# generated using pymatgen
data_NaCo2H3(SeO5)2
_symmetry_space_group_name_H-M   'P 1'
_cell_length_a   13.49032600
_cell_length_b   6.14127800
_cell_length_c   8.71042733
_cell_angle_alpha   90.00000000
_cell_angle_beta   103.62704290
_cell_angle_gamma   90.00000000
_symmetry_Int_Tables_number   1
_chemical_formula_structural   NaCo2H3(SeO5)2
_chemical_formula_sum   'Na2 Co4 H6 Se4 O20'
_cell_volume   701.32587418
_cell_formula_units_Z   2
loop_
 _symmetry_equiv_pos_site_id
 _symmetry_equiv_pos_as_xyz
  1  'x, y, z'
loop_
 _atom_site_type_symbol
 _atom_site_label
 _atom_site_symmetry_multiplicity
 _atom_site_fract_x
 _atom_site_fract_y
 _atom_site_fract_z
 _atom_site_occupancy
  Na  Na0  1  0.97919600  0.50000000  0.52588200  1
  Na  Na1  1  0.47919600  0.00000000  0.52588200  1
  Co  Co2  1  0.74775800  0.29721400  0.93188600  1
  Co  Co3  1  0.74775800  0.70278600  0.93188600  1
  Co  Co4  1  0.24775800  0.79721400  0.93188600  1
  Co  Co5  1  0.24775800  0.20278600  0.93188600  1
  H  H6  1  0.97875200  0.00000000  0.96314700  1
  H  H7  1  0.90779400  0.50000000  0.90857500  1
  H  H8  1  0.52278400  0.50000000  0.03457400  1
  H  H9  1  0.47875200  0.50000000  0.96314700  1
  H  H10  1  0.40779400  0.00000000  0.90857500  1
  H  H11  1  0.02278400  0.00000000  0.03457400  1
  Se  Se12  1  0.87481400  0.00000000  0.26507900  1
  Se  Se13  1  0.61262700  0.50000000  0.67567900  1
  Se  Se14  1  0.37481400  0.50000000  0.26507900  1
  Se  Se15  1  0.11262700  0.00000000  0.67567900  1
  O  O16  1  0.83657600  0.50000000  0.84964700  1
  O  O17  1  0.70167400  0.00000000  0.97005200  1
  O  O18  1  0.70402400  0.50000000  0.05065200  1
  O  O19  1  0.54518850  0.72316350  0.69539500  1
  O  O20  1  0.94183200  0.21819500  0.33489200  1
  O  O21  1  0.54518850  0.27683650  0.69539500  1
  O  O22  1  0.94183200  0.78180500  0.33489200  1
  O  O23  1  0.80793600  0.00000000  0.95239600  1
  O  O24  1  0.54267300  0.00000000  0.15527000  1
  O  O25  1  0.62059100  0.00000000  0.26370100  1
  O  O26  1  0.33657600  0.00000000  0.84964700  1
  O  O27  1  0.20167400  0.50000000  0.97005200  1
  O  O28  1  0.20402400  0.00000000  0.05065200  1
  O  O29  1  0.04518850  0.22316350  0.69539500  1
  O  O30  1  0.44183200  0.71819500  0.33489200  1
  O  O31  1  0.04518850  0.77683650  0.69539500  1
  O  O32  1  0.44183200  0.28180500  0.33489200  1
  O  O33  1  0.30793600  0.50000000  0.95239600  1
  O  O34  1  0.04267300  0.50000000  0.15527000  1
  O  O35  1  0.12059100  0.50000000  0.26370100  1
