# generated using pymatgen
data_Ba3La3Ti4NbO18
_symmetry_space_group_name_H-M   'P 1'
_cell_length_a   5.68411631
_cell_length_b   5.68411631
_cell_length_c   41.37724253
_cell_angle_alpha   90.00000000
_cell_angle_beta   90.00000000
_cell_angle_gamma   120.00000000
_symmetry_Int_Tables_number   1
_chemical_formula_structural   Ba3La3Ti4NbO18
_chemical_formula_sum   'Ba9 La9 Ti12 Nb3 O54'
_cell_volume   1157.75879297
_cell_formula_units_Z   3
loop_
 _symmetry_equiv_pos_site_id
 _symmetry_equiv_pos_as_xyz
  1  'x, y, z'
loop_
 _atom_site_type_symbol
 _atom_site_label
 _atom_site_symmetry_multiplicity
 _atom_site_fract_x
 _atom_site_fract_y
 _atom_site_fract_z
 _atom_site_occupancy
  Ba  Ba0  1  0.66666667  0.33333333  0.19523033  1
  Ba  Ba1  1  0.66666667  0.33333333  0.02110333  1
  Ba  Ba2  1  0.33333333  0.66666667  0.08268067  1
  Ba  Ba3  1  0.33333333  0.66666667  0.52856367  1
  Ba  Ba4  1  0.33333333  0.66666667  0.35443667  1
  Ba  Ba5  1  0.00000000  0.00000000  0.41601400  1
  Ba  Ba6  1  0.00000000  0.00000000  0.86189700  1
  Ba  Ba7  1  0.00000000  0.00000000  0.68777000  1
  Ba  Ba8  1  0.66666667  0.33333333  0.74934733  1
  La  La9  1  0.33333333  0.66666667  0.25702267  1
  La  La10  1  0.00000000  0.00000000  0.31514900  1
  La  La11  1  0.00000000  0.00000000  0.13922100  1
  La  La12  1  0.00000000  0.00000000  0.59035600  1
  La  La13  1  0.66666667  0.33333333  0.64848233  1
  La  La14  1  0.66666667  0.33333333  0.47255433  1
  La  La15  1  0.66666667  0.33333333  0.92368933  1
  La  La16  1  0.33333333  0.66666667  0.98181567  1
  La  La17  1  0.33333333  0.66666667  0.80588767  1
  Ti  Ti18  1  0.66666667  0.33333333  0.28099733  1
  Ti  Ti19  1  0.66666667  0.33333333  0.11146333  1
  Ti  Ti20  1  0.33333333  0.66666667  0.16863867  1
  Ti  Ti21  1  0.00000000  0.00000000  0.22468800  1
  Ti  Ti22  1  0.33333333  0.66666667  0.61433067  1
  Ti  Ti23  1  0.33333333  0.66666667  0.44479667  1
  Ti  Ti24  1  0.00000000  0.00000000  0.50197200  1
  Ti  Ti25  1  0.66666667  0.33333333  0.55802133  1
  Ti  Ti26  1  0.00000000  0.00000000  0.94766400  1
  Ti  Ti27  1  0.00000000  0.00000000  0.77813000  1
  Ti  Ti28  1  0.66666667  0.33333333  0.83530533  1
  Ti  Ti29  1  0.33333333  0.66666667  0.89135467  1
  Nb  Nb30  1  0.00000000  0.00000000  0.05108300  1
  Nb  Nb31  1  0.66666667  0.33333333  0.38441633  1
  Nb  Nb32  1  0.33333333  0.66666667  0.71774967  1
  O  O33  1  0.83584433  0.67168867  0.08594367  1
  O  O34  1  0.83584433  0.16415567  0.08594367  1
  O  O35  1  0.32831133  0.16415567  0.08594367  1
  O  O36  1  0.49734000  0.99468000  0.30073800  1
  O  O37  1  0.49734000  0.50266000  0.30073800  1
  O  O38  1  0.00532000  0.50266000  0.30073800  1
  O  O39  1  0.67015267  0.83507633  0.19284433  1
  O  O40  1  0.16492367  0.32984733  0.19284433  1
  O  O41  1  0.16492367  0.83507633  0.19284433  1
  O  O42  1  0.50058000  0.49942000  0.13941400  1
  O  O43  1  0.50058000  0.00116000  0.13941400  1
  O  O44  1  0.99884000  0.49942000  0.13941400  1
  O  O45  1  0.66366533  0.83183267  0.02765167  1
  O  O46  1  0.16816733  0.33633467  0.02765167  1
  O  O47  1  0.16816733  0.83183267  0.02765167  1
  O  O48  1  0.32713867  0.16356933  0.24876133  1
  O  O49  1  0.83643067  0.16356933  0.24876133  1
  O  O50  1  0.83643067  0.67286133  0.24876133  1
  O  O51  1  0.50251100  0.00502200  0.41927700  1
  O  O52  1  0.50251100  0.49748900  0.41927700  1
  O  O53  1  0.99497800  0.49748900  0.41927700  1
  O  O54  1  0.16400667  0.32801333  0.63407133  1
  O  O55  1  0.16400667  0.83599333  0.63407133  1
  O  O56  1  0.67198667  0.83599333  0.63407133  1
  O  O57  1  0.33681933  0.16840967  0.52617767  1
  O  O58  1  0.83159033  0.66318067  0.52617767  1
  O  O59  1  0.83159033  0.16840967  0.52617767  1
  O  O60  1  0.16724667  0.83275333  0.47274733  1
  O  O61  1  0.16724667  0.33449333  0.47274733  1
  O  O62  1  0.66550667  0.83275333  0.47274733  1
  O  O63  1  0.33033200  0.16516600  0.36098500  1
  O  O64  1  0.83483400  0.66966800  0.36098500  1
  O  O65  1  0.83483400  0.16516600  0.36098500  1
  O  O66  1  0.99380533  0.49690267  0.58209467  1
  O  O67  1  0.50309733  0.49690267  0.58209467  1
  O  O68  1  0.50309733  0.00619467  0.58209467  1
  O  O69  1  0.16917767  0.33835533  0.75261033  1
  O  O70  1  0.16917767  0.83082233  0.75261033  1
  O  O71  1  0.66164467  0.83082233  0.75261033  1
  O  O72  1  0.83067333  0.66134667  0.96740467  1
  O  O73  1  0.83067333  0.16932667  0.96740467  1
  O  O74  1  0.33865333  0.16932667  0.96740467  1
  O  O75  1  0.00348600  0.50174300  0.85951100  1
  O  O76  1  0.49825700  0.99651400  0.85951100  1
  O  O77  1  0.49825700  0.50174300  0.85951100  1
  O  O78  1  0.83391333  0.16608667  0.80608067  1
  O  O79  1  0.83391333  0.66782667  0.80608067  1
  O  O80  1  0.33217333  0.16608667  0.80608067  1
  O  O81  1  0.99699867  0.49849933  0.69431833  1
  O  O82  1  0.50150067  0.00300133  0.69431833  1
  O  O83  1  0.50150067  0.49849933  0.69431833  1
  O  O84  1  0.66047200  0.83023600  0.91542800  1
  O  O85  1  0.16976400  0.83023600  0.91542800  1
  O  O86  1  0.16976400  0.33952800  0.91542800  1
