# generated using pymatgen
data_Fe(PO3)2
_symmetry_space_group_name_H-M   'P 1'
_cell_length_a   12.12906800
_cell_length_b   8.51097400
_cell_length_c   10.02562043
_cell_angle_alpha   90.00000000
_cell_angle_beta   118.26632214
_cell_angle_gamma   90.00000000
_symmetry_Int_Tables_number   1
_chemical_formula_structural   Fe(PO3)2
_chemical_formula_sum   'Fe8 P16 O48'
_cell_volume   911.53531107
_cell_formula_units_Z   8
loop_
 _symmetry_equiv_pos_site_id
 _symmetry_equiv_pos_as_xyz
  1  'x, y, z'
loop_
 _atom_site_type_symbol
 _atom_site_label
 _atom_site_symmetry_multiplicity
 _atom_site_fract_x
 _atom_site_fract_y
 _atom_site_fract_z
 _atom_site_occupancy
  Fe  Fe0  1  0.50000000  0.55081600  0.25000000  1
  Fe  Fe1  1  0.00000000  0.94918400  0.75000000  1
  Fe  Fe2  1  0.25000000  0.25000000  0.50000000  1
  Fe  Fe3  1  0.25000000  0.75000000  0.00000000  1
  Fe  Fe4  1  0.00000000  0.05081600  0.25000000  1
  Fe  Fe5  1  0.50000000  0.44918400  0.75000000  1
  Fe  Fe6  1  0.75000000  0.75000000  0.50000000  1
  Fe  Fe7  1  0.75000000  0.25000000  0.00000000  1
  P  P8  1  0.19229050  0.49419550  0.19390900  1
  P  P9  1  0.50901200  0.76486400  0.97546000  1
  P  P10  1  0.49098800  0.76486400  0.52454000  1
  P  P11  1  0.99098800  0.73513600  0.02454000  1
  P  P12  1  0.30770950  0.00580450  0.80609100  1
  P  P13  1  0.00901200  0.73513600  0.47546000  1
  P  P14  1  0.19229050  0.50580450  0.69390900  1
  P  P15  1  0.30770950  0.99419550  0.30609100  1
  P  P16  1  0.69229050  0.99419550  0.19390900  1
  P  P17  1  0.00901200  0.26486400  0.97546000  1
  P  P18  1  0.99098800  0.26486400  0.52454000  1
  P  P19  1  0.49098800  0.23513600  0.02454000  1
  P  P20  1  0.80770950  0.50580450  0.80609100  1
  P  P21  1  0.50901200  0.23513600  0.47546000  1
  P  P22  1  0.69229050  0.00580450  0.69390900  1
  P  P23  1  0.80770950  0.49419550  0.30609100  1
  O  O24  1  0.27753700  0.08240200  0.65832600  1
  O  O25  1  0.29599250  0.42252350  0.68081500  1
  O  O26  1  0.96313950  0.87360150  0.09200100  1
  O  O27  1  0.72246300  0.08240200  0.84167400  1
  O  O28  1  0.95414450  0.23912350  0.08266300  1
  O  O29  1  0.41911200  0.88347100  0.84177700  1
  O  O30  1  0.77753700  0.41759800  0.15832600  1
  O  O31  1  0.20400750  0.92252350  0.81918500  1
  O  O32  1  0.13509600  0.36767700  0.05780200  1
  O  O33  1  0.91911200  0.61652900  0.34177700  1
  O  O34  1  0.13509600  0.63232300  0.55780200  1
  O  O35  1  0.20400750  0.07747650  0.31918500  1
  O  O36  1  0.46313950  0.62639850  0.59200100  1
  O  O37  1  0.03686050  0.87360150  0.40799900  1
  O  O38  1  0.58088800  0.88347100  0.65822300  1
  O  O39  1  0.54585550  0.73912350  0.41733700  1
  O  O40  1  0.29599250  0.57747650  0.18081500  1
  O  O41  1  0.36490400  0.13232300  0.94219800  1
  O  O42  1  0.53686050  0.62639850  0.90799900  1
  O  O43  1  0.54585550  0.26087650  0.91733700  1
  O  O44  1  0.08088800  0.61652900  0.15822300  1
  O  O45  1  0.95414450  0.76087650  0.58266300  1
  O  O46  1  0.36490400  0.86767700  0.44219800  1
  O  O47  1  0.22246300  0.41759800  0.34167400  1
  O  O48  1  0.77753700  0.58240200  0.65832600  1
  O  O49  1  0.79599250  0.92252350  0.68081500  1
  O  O50  1  0.46313950  0.37360150  0.09200100  1
  O  O51  1  0.22246300  0.58240200  0.84167400  1
  O  O52  1  0.45414450  0.73912350  0.08266300  1
  O  O53  1  0.91911200  0.38347100  0.84177700  1
  O  O54  1  0.27753700  0.91759800  0.15832600  1
  O  O55  1  0.70400750  0.42252350  0.81918500  1
  O  O56  1  0.63509600  0.86767700  0.05780200  1
  O  O57  1  0.41911200  0.11652900  0.34177700  1
  O  O58  1  0.63509600  0.13232300  0.55780200  1
  O  O59  1  0.70400750  0.57747650  0.31918500  1
  O  O60  1  0.96313950  0.12639850  0.59200100  1
  O  O61  1  0.53686050  0.37360150  0.40799900  1
  O  O62  1  0.08088800  0.38347100  0.65822300  1
  O  O63  1  0.04585550  0.23912350  0.41733700  1
  O  O64  1  0.79599250  0.07747650  0.18081500  1
  O  O65  1  0.86490400  0.63232300  0.94219800  1
  O  O66  1  0.03686050  0.12639850  0.90799900  1
  O  O67  1  0.04585550  0.76087650  0.91733700  1
  O  O68  1  0.58088800  0.11652900  0.15822300  1
  O  O69  1  0.45414450  0.26087650  0.58266300  1
  O  O70  1  0.86490400  0.36767700  0.44219800  1
  O  O71  1  0.72246300  0.91759800  0.34167400  1
