# generated using pymatgen
data_NaV3H6(SO7)2
_symmetry_space_group_name_H-M   'P 1'
_cell_length_a   7.41322425
_cell_length_b   7.41322425
_cell_length_c   17.10714500
_cell_angle_alpha   90.00000000
_cell_angle_beta   90.00000000
_cell_angle_gamma   120.00000000
_symmetry_Int_Tables_number   1
_chemical_formula_structural   NaV3H6(SO7)2
_chemical_formula_sum   'Na3 V9 H18 S6 O42'
_cell_volume   814.18377565
_cell_formula_units_Z   3
loop_
 _symmetry_equiv_pos_site_id
 _symmetry_equiv_pos_as_xyz
  1  'x, y, z'
loop_
 _atom_site_type_symbol
 _atom_site_label
 _atom_site_symmetry_multiplicity
 _atom_site_fract_x
 _atom_site_fract_y
 _atom_site_fract_z
 _atom_site_occupancy
  Na  Na0  1  0.66666667  0.33333333  0.33333333  1
  Na  Na1  1  0.33333333  0.66666667  0.66666667  1
  Na  Na2  1  1.00000000  1.00000000  0.00000000  1
  V  V3  1  0.16666667  0.83333333  0.83333333  1
  V  V4  1  0.66666667  0.83333333  0.83333333  1
  V  V5  1  0.16666667  0.33333333  0.83333333  1
  V  V6  1  0.83333333  0.16666667  0.16666667  1
  V  V7  1  0.33333333  0.16666667  0.16666667  1
  V  V8  1  0.83333333  0.66666667  0.16666667  1
  V  V9  1  0.50000000  0.50000000  0.50000000  1
  V  V10  1  0.00000000  0.50000000  0.50000000  1
  V  V11  1  0.50000000  0.00000000  0.50000000  1
  H  H12  1  0.52845800  0.05691600  0.77196500  1
  H  H13  1  0.52845800  0.47154200  0.77196500  1
  H  H14  1  0.94308400  0.47154200  0.77196500  1
  H  H15  1  0.80487533  0.60975067  0.89470167  1
  H  H16  1  0.80487533  0.19512467  0.89470167  1
  H  H17  1  0.39024933  0.19512467  0.89470167  1
  H  H18  1  0.19512467  0.39024933  0.10529833  1
  H  H19  1  0.19512467  0.80487533  0.10529833  1
  H  H20  1  0.60975067  0.80487533  0.10529833  1
  H  H21  1  0.47154200  0.94308400  0.22803500  1
  H  H22  1  0.47154200  0.52845800  0.22803500  1
  H  H23  1  0.05691600  0.52845800  0.22803500  1
  H  H24  1  0.86179133  0.72358267  0.43863167  1
  H  H25  1  0.86179133  0.13820867  0.43863167  1
  H  H26  1  0.27641733  0.13820867  0.43863167  1
  H  H27  1  0.13820867  0.27641733  0.56136833  1
  H  H28  1  0.13820867  0.86179133  0.56136833  1
  H  H29  1  0.72358267  0.86179133  0.56136833  1
  S  S30  1  0.66666667  0.33333333  0.02344467  1
  S  S31  1  0.66666667  0.33333333  0.64322200  1
  S  S32  1  0.33333333  0.66666667  0.35677800  1
  S  S33  1  0.33333333  0.66666667  0.97655533  1
  S  S34  1  0.00000000  0.00000000  0.69011133  1
  S  S35  1  0.00000000  0.00000000  0.30988867  1
  O  O36  1  0.66666667  0.33333333  0.93712733  1
  O  O37  1  0.66666667  0.33333333  0.72953933  1
  O  O38  1  0.77654050  0.22345950  0.05222400  1
  O  O39  1  0.44691900  0.22345950  0.05222400  1
  O  O40  1  0.77654050  0.55308100  0.05222400  1
  O  O41  1  0.55679283  0.44320717  0.61444267  1
  O  O42  1  0.88641433  0.44320717  0.61444267  1
  O  O43  1  0.55679283  0.11358567  0.61444267  1
  O  O44  1  0.87315600  0.74631200  0.86822000  1
  O  O45  1  0.87315600  0.12684400  0.86822000  1
  O  O46  1  0.25368800  0.12684400  0.86822000  1
  O  O47  1  0.46017733  0.92035467  0.79844667  1
  O  O48  1  0.46017733  0.53982267  0.79844667  1
  O  O49  1  0.07964533  0.53982267  0.79844667  1
  O  O50  1  0.33333333  0.66666667  0.27046067  1
  O  O51  1  0.33333333  0.66666667  0.06287267  1
  O  O52  1  0.44320717  0.55679283  0.38555733  1
  O  O53  1  0.11358567  0.55679283  0.38555733  1
  O  O54  1  0.44320717  0.88641433  0.38555733  1
  O  O55  1  0.22345950  0.77654050  0.94777600  1
  O  O56  1  0.55308100  0.77654050  0.94777600  1
  O  O57  1  0.22345950  0.44691900  0.94777600  1
  O  O58  1  0.53982267  0.07964533  0.20155333  1
  O  O59  1  0.53982267  0.46017733  0.20155333  1
  O  O60  1  0.92035467  0.46017733  0.20155333  1
  O  O61  1  0.12684400  0.25368800  0.13178000  1
  O  O62  1  0.12684400  0.87315600  0.13178000  1
  O  O63  1  0.74631200  0.87315600  0.13178000  1
  O  O64  1  0.00000000  0.00000000  0.60379400  1
  O  O65  1  0.00000000  0.00000000  0.39620600  1
  O  O66  1  0.10987383  0.89012617  0.71889067  1
  O  O67  1  0.78025233  0.89012617  0.71889067  1
  O  O68  1  0.10987383  0.21974767  0.71889067  1
  O  O69  1  0.89012617  0.10987383  0.28110933  1
  O  O70  1  0.21974767  0.10987383  0.28110933  1
  O  O71  1  0.89012617  0.78025233  0.28110933  1
  O  O72  1  0.20648933  0.41297867  0.53488667  1
  O  O73  1  0.20648933  0.79351067  0.53488667  1
  O  O74  1  0.58702133  0.79351067  0.53488667  1
  O  O75  1  0.79351067  0.58702133  0.46511333  1
  O  O76  1  0.79351067  0.20648933  0.46511333  1
  O  O77  1  0.41297867  0.20648933  0.46511333  1
