# generated using pymatgen
data_NaSi2(HO2)3
_symmetry_space_group_name_H-M   'P 1'
_cell_length_a   7.20950400
_cell_length_b   16.32585000
_cell_length_c   18.29890000
_cell_angle_alpha   90.00000000
_cell_angle_beta   90.00000000
_cell_angle_gamma   90.00000000
_symmetry_Int_Tables_number   1
_chemical_formula_structural   NaSi2(HO2)3
_chemical_formula_sum   'Na16 Si32 H48 O96'
_cell_volume   2153.80396867
_cell_formula_units_Z   16
loop_
 _symmetry_equiv_pos_site_id
 _symmetry_equiv_pos_as_xyz
  1  'x, y, z'
loop_
 _atom_site_type_symbol
 _atom_site_label
 _atom_site_symmetry_multiplicity
 _atom_site_fract_x
 _atom_site_fract_y
 _atom_site_fract_z
 _atom_site_occupancy
  Na  Na0  1  0.63756650  0.11050700  0.98687650  1
  Na  Na1  1  0.63756650  0.38949300  0.51312350  1
  Na  Na2  1  0.38756650  0.13949300  0.73687650  1
  Na  Na3  1  0.38756650  0.36050700  0.76312350  1
  Na  Na4  1  0.13756650  0.11050700  0.48687650  1
  Na  Na5  1  0.13756650  0.38949300  0.01312350  1
  Na  Na6  1  0.88756650  0.13949300  0.23687650  1
  Na  Na7  1  0.88756650  0.36050700  0.26312350  1
  Na  Na8  1  0.13756650  0.61050700  0.98687650  1
  Na  Na9  1  0.13756650  0.88949300  0.51312350  1
  Na  Na10  1  0.88756650  0.63949300  0.73687650  1
  Na  Na11  1  0.88756650  0.86050700  0.76312350  1
  Na  Na12  1  0.63756650  0.61050700  0.48687650  1
  Na  Na13  1  0.63756650  0.88949300  0.01312350  1
  Na  Na14  1  0.38756650  0.63949300  0.23687650  1
  Na  Na15  1  0.38756650  0.86050700  0.26312350  1
  Si  Si16  1  0.12563850  0.14805700  0.97601150  1
  Si  Si17  1  0.12563850  0.35194300  0.52398850  1
  Si  Si18  1  0.87563850  0.10194300  0.72601150  1
  Si  Si19  1  0.87563850  0.39805700  0.77398850  1
  Si  Si20  1  0.12049650  0.02577600  0.84203250  1
  Si  Si21  1  0.12049650  0.47422400  0.65796750  1
  Si  Si22  1  0.87049650  0.22422400  0.59203250  1
  Si  Si23  1  0.87049650  0.27577600  0.90796750  1
  Si  Si24  1  0.62563850  0.14805700  0.47601150  1
  Si  Si25  1  0.62563850  0.35194300  0.02398850  1
  Si  Si26  1  0.37563850  0.10194300  0.22601150  1
  Si  Si27  1  0.37563850  0.39805700  0.27398850  1
  Si  Si28  1  0.62049650  0.02577600  0.34203250  1
  Si  Si29  1  0.62049650  0.47422400  0.15796750  1
  Si  Si30  1  0.37049650  0.22422400  0.09203250  1
  Si  Si31  1  0.37049650  0.27577600  0.40796750  1
  Si  Si32  1  0.62563850  0.64805700  0.97601150  1
  Si  Si33  1  0.62563850  0.85194300  0.52398850  1
  Si  Si34  1  0.37563850  0.60194300  0.72601150  1
  Si  Si35  1  0.37563850  0.89805700  0.77398850  1
  Si  Si36  1  0.62049650  0.52577600  0.84203250  1
  Si  Si37  1  0.62049650  0.97422400  0.65796750  1
  Si  Si38  1  0.37049650  0.72422400  0.59203250  1
  Si  Si39  1  0.37049650  0.77577600  0.90796750  1
  Si  Si40  1  0.12563850  0.64805700  0.47601150  1
  Si  Si41  1  0.12563850  0.85194300  0.02398850  1
  Si  Si42  1  0.87563850  0.60194300  0.22601150  1
  Si  Si43  1  0.87563850  0.89805700  0.27398850  1
  Si  Si44  1  0.12049650  0.52577600  0.34203250  1
  Si  Si45  1  0.12049650  0.97422400  0.15796750  1
  Si  Si46  1  0.87049650  0.72422400  0.09203250  1
  Si  Si47  1  0.87049650  0.77577600  0.40796750  1
  H  H48  1  0.49742000  0.23470700  0.86310400  1
  H  H49  1  0.49742000  0.26529300  0.63689600  1
  H  H50  1  0.24742000  0.01529300  0.61310400  1
  H  H51  1  0.24742000  0.48470700  0.88689600  1
  H  H52  1  0.27844300  0.24533750  0.87001350  1
  H  H53  1  0.27844300  0.25466250  0.62998650  1
  H  H54  1  0.02844300  0.00466250  0.62001350  1
  H  H55  1  0.02844300  0.49533750  0.87998650  1
  H  H56  1  0.71665350  0.16357350  0.82409100  1
  H  H57  1  0.71665350  0.33642650  0.67590900  1
  H  H58  1  0.46665350  0.08642650  0.57409100  1
  H  H59  1  0.46665350  0.41357350  0.92590900  1
  H  H60  1  0.99742000  0.23470700  0.36310400  1
  H  H61  1  0.99742000  0.26529300  0.13689600  1
  H  H62  1  0.74742000  0.01529300  0.11310400  1
  H  H63  1  0.74742000  0.48470700  0.38689600  1
  H  H64  1  0.77844300  0.24533750  0.37001350  1
  H  H65  1  0.77844300  0.25466250  0.12998650  1
  H  H66  1  0.52844300  0.00466250  0.12001350  1
  H  H67  1  0.52844300  0.49533750  0.37998650  1
  H  H68  1  0.21665350  0.16357350  0.32409100  1
  H  H69  1  0.21665350  0.33642650  0.17590900  1
  H  H70  1  0.96665350  0.08642650  0.07409100  1
  H  H71  1  0.96665350  0.41357350  0.42590900  1
  H  H72  1  0.99742000  0.73470700  0.86310400  1
  H  H73  1  0.99742000  0.76529300  0.63689600  1
  H  H74  1  0.74742000  0.51529300  0.61310400  1
  H  H75  1  0.74742000  0.98470700  0.88689600  1
  H  H76  1  0.77844300  0.74533750  0.87001350  1
  H  H77  1  0.77844300  0.75466250  0.62998650  1
  H  H78  1  0.52844300  0.50466250  0.62001350  1
  H  H79  1  0.52844300  0.99533750  0.87998650  1
  H  H80  1  0.21665350  0.66357350  0.82409100  1
  H  H81  1  0.21665350  0.83642650  0.67590900  1
  H  H82  1  0.96665350  0.58642650  0.57409100  1
  H  H83  1  0.96665350  0.91357350  0.92590900  1
  H  H84  1  0.49742000  0.73470700  0.36310400  1
  H  H85  1  0.49742000  0.76529300  0.13689600  1
  H  H86  1  0.24742000  0.51529300  0.11310400  1
  H  H87  1  0.24742000  0.98470700  0.38689600  1
  H  H88  1  0.27844300  0.74533750  0.37001350  1
  H  H89  1  0.27844300  0.75466250  0.12998650  1
  H  H90  1  0.02844300  0.50466250  0.12001350  1
  H  H91  1  0.02844300  0.99533750  0.37998650  1
  H  H92  1  0.71665350  0.66357350  0.32409100  1
  H  H93  1  0.71665350  0.83642650  0.17590900  1
  H  H94  1  0.46665350  0.58642650  0.07409100  1
  H  H95  1  0.46665350  0.91357350  0.42590900  1
  O  O96  1  0.17948050  0.08095450  0.91331900  1
  O  O97  1  0.17948050  0.41904550  0.58668100  1
  O  O98  1  0.92948050  0.16904550  0.66331900  1
  O  O99  1  0.92948050  0.33095450  0.83668100  1
  O  O100  1  0.06629250  0.08985650  0.77434900  1
  O  O101  1  0.06629250  0.41014350  0.72565100  1
  O  O102  1  0.81629250  0.16014350  0.52434900  1
  O  O103  1  0.81629250  0.33985650  0.97565100  1
  O  O104  1  0.38013100  0.24195800  0.83457300  1
  O  O105  1  0.38013100  0.25804200  0.66542700  1
  O  O106  1  0.13013100  0.00804200  0.58457300  1
  O  O107  1  0.13013100  0.49195800  0.91542700  1
  O  O108  1  0.71426450  0.20900750  0.89397700  1
  O  O109  1  0.71426450  0.29099250  0.60602300  1
  O  O110  1  0.46426450  0.04099250  0.64397700  1
  O  O111  1  0.46426450  0.45900750  0.85602300  1
  O  O112  1  0.70041700  0.13099300  0.77517700  1
  O  O113  1  0.70041700  0.36900700  0.72482300  1
  O  O114  1  0.45041700  0.11900700  0.52517700  1
  O  O115  1  0.45041700  0.38099300  0.97482300  1
  O  O116  1  0.07354250  0.23548850  0.93488300  1
  O  O117  1  0.07354250  0.26451150  0.56511700  1
  O  O118  1  0.82354250  0.01451150  0.68488300  1
  O  O119  1  0.82354250  0.48548850  0.81511700  1
  O  O120  1  0.67948050  0.08095450  0.41331900  1
  O  O121  1  0.67948050  0.41904550  0.08668100  1
  O  O122  1  0.42948050  0.16904550  0.16331900  1
  O  O123  1  0.42948050  0.33095450  0.33668100  1
  O  O124  1  0.56629250  0.08985650  0.27434900  1
  O  O125  1  0.56629250  0.41014350  0.22565100  1
  O  O126  1  0.31629250  0.16014350  0.02434900  1
  O  O127  1  0.31629250  0.33985650  0.47565100  1
  O  O128  1  0.88013100  0.24195800  0.33457300  1
  O  O129  1  0.88013100  0.25804200  0.16542700  1
  O  O130  1  0.63013100  0.00804200  0.08457300  1
  O  O131  1  0.63013100  0.49195800  0.41542700  1
  O  O132  1  0.21426450  0.20900750  0.39397700  1
  O  O133  1  0.21426450  0.29099250  0.10602300  1
  O  O134  1  0.96426450  0.04099250  0.14397700  1
  O  O135  1  0.96426450  0.45900750  0.35602300  1
  O  O136  1  0.20041700  0.13099300  0.27517700  1
  O  O137  1  0.20041700  0.36900700  0.22482300  1
  O  O138  1  0.95041700  0.11900700  0.02517700  1
  O  O139  1  0.95041700  0.38099300  0.47482300  1
  O  O140  1  0.57354250  0.23548850  0.43488300  1
  O  O141  1  0.57354250  0.26451150  0.06511700  1
  O  O142  1  0.32354250  0.01451150  0.18488300  1
  O  O143  1  0.32354250  0.48548850  0.31511700  1
  O  O144  1  0.67948050  0.58095450  0.91331900  1
  O  O145  1  0.67948050  0.91904550  0.58668100  1
  O  O146  1  0.42948050  0.66904550  0.66331900  1
  O  O147  1  0.42948050  0.83095450  0.83668100  1
  O  O148  1  0.56629250  0.58985650  0.77434900  1
  O  O149  1  0.56629250  0.91014350  0.72565100  1
  O  O150  1  0.31629250  0.66014350  0.52434900  1
  O  O151  1  0.31629250  0.83985650  0.97565100  1
  O  O152  1  0.88013100  0.74195800  0.83457300  1
  O  O153  1  0.88013100  0.75804200  0.66542700  1
  O  O154  1  0.63013100  0.50804200  0.58457300  1
  O  O155  1  0.63013100  0.99195800  0.91542700  1
  O  O156  1  0.21426450  0.70900750  0.89397700  1
  O  O157  1  0.21426450  0.79099250  0.60602300  1
  O  O158  1  0.96426450  0.54099250  0.64397700  1
  O  O159  1  0.96426450  0.95900750  0.85602300  1
  O  O160  1  0.20041700  0.63099300  0.77517700  1
  O  O161  1  0.20041700  0.86900700  0.72482300  1
  O  O162  1  0.95041700  0.61900700  0.52517700  1
  O  O163  1  0.95041700  0.88099300  0.97482300  1
  O  O164  1  0.57354250  0.73548850  0.93488300  1
  O  O165  1  0.57354250  0.76451150  0.56511700  1
  O  O166  1  0.32354250  0.51451150  0.68488300  1
  O  O167  1  0.32354250  0.98548850  0.81511700  1
  O  O168  1  0.17948050  0.58095450  0.41331900  1
  O  O169  1  0.17948050  0.91904550  0.08668100  1
  O  O170  1  0.92948050  0.66904550  0.16331900  1
  O  O171  1  0.92948050  0.83095450  0.33668100  1
  O  O172  1  0.06629250  0.58985650  0.27434900  1
  O  O173  1  0.06629250  0.91014350  0.22565100  1
  O  O174  1  0.81629250  0.66014350  0.02434900  1
  O  O175  1  0.81629250  0.83985650  0.47565100  1
  O  O176  1  0.38013100  0.74195800  0.33457300  1
  O  O177  1  0.38013100  0.75804200  0.16542700  1
  O  O178  1  0.13013100  0.50804200  0.08457300  1
  O  O179  1  0.13013100  0.99195800  0.41542700  1
  O  O180  1  0.71426450  0.70900750  0.39397700  1
  O  O181  1  0.71426450  0.79099250  0.10602300  1
  O  O182  1  0.46426450  0.54099250  0.14397700  1
  O  O183  1  0.46426450  0.95900750  0.35602300  1
  O  O184  1  0.70041700  0.63099300  0.27517700  1
  O  O185  1  0.70041700  0.86900700  0.22482300  1
  O  O186  1  0.45041700  0.61900700  0.02517700  1
  O  O187  1  0.45041700  0.88099300  0.47482300  1
  O  O188  1  0.07354250  0.73548850  0.43488300  1
  O  O189  1  0.07354250  0.76451150  0.06511700  1
  O  O190  1  0.82354250  0.51451150  0.18488300  1
  O  O191  1  0.82354250  0.98548850  0.31511700  1
