# generated using pymatgen
data_K3Yb(SO4)3
_symmetry_space_group_name_H-M   'P 1'
_cell_length_a   10.61466000
_cell_length_b   15.71847800
_cell_length_c   9.03653741
_cell_angle_alpha   90.00000000
_cell_angle_beta   121.45680656
_cell_angle_gamma   90.00000000
_symmetry_Int_Tables_number   1
_chemical_formula_structural   K3Yb(SO4)3
_chemical_formula_sum   'K12 Yb4 S12 O48'
_cell_volume   1286.13002944
_cell_formula_units_Z   4
loop_
 _symmetry_equiv_pos_site_id
 _symmetry_equiv_pos_as_xyz
  1  'x, y, z'
loop_
 _atom_site_type_symbol
 _atom_site_label
 _atom_site_symmetry_multiplicity
 _atom_site_fract_x
 _atom_site_fract_y
 _atom_site_fract_z
 _atom_site_occupancy
  K  K0  1  0.32055550  0.25605150  0.40926700  1
  K  K1  1  0.32055550  0.74394850  0.90926700  1
  K  K2  1  0.76306400  0.95739500  0.04861900  1
  K  K3  1  0.76306400  0.04260500  0.54861900  1
  K  K4  1  0.19649000  0.00116100  0.66782500  1
  K  K5  1  0.19649000  0.99883900  0.16782500  1
  K  K6  1  0.82055550  0.75605150  0.40926700  1
  K  K7  1  0.82055550  0.24394850  0.90926700  1
  K  K8  1  0.26306400  0.45739500  0.04861900  1
  K  K9  1  0.26306400  0.54260500  0.54861900  1
  K  K10  1  0.69649000  0.50116100  0.66782500  1
  K  K11  1  0.69649000  0.49883900  0.16782500  1
  Yb  Yb12  1  0.50098450  0.84829050  0.51248800  1
  Yb  Yb13  1  0.50098450  0.15170950  0.01248800  1
  Yb  Yb14  1  0.00098450  0.34829050  0.51248800  1
  Yb  Yb15  1  0.00098450  0.65170950  0.01248800  1
  S  S16  1  0.15468350  0.15305550  0.89220700  1
  S  S17  1  0.37711950  0.66400150  0.32587200  1
  S  S18  1  0.50734550  0.06826850  0.64827500  1
  S  S19  1  0.37711950  0.33599850  0.82587200  1
  S  S20  1  0.50734550  0.93173150  0.14827500  1
  S  S21  1  0.15468350  0.84694450  0.39220700  1
  S  S22  1  0.65468350  0.65305550  0.89220700  1
  S  S23  1  0.87711950  0.16400150  0.32587200  1
  S  S24  1  0.00734550  0.56826850  0.64827500  1
  S  S25  1  0.87711950  0.83599850  0.82587200  1
  S  S26  1  0.00734550  0.43173150  0.14827500  1
  S  S27  1  0.65468350  0.34694450  0.39220700  1
  O  O28  1  0.56481400  0.01977900  0.15176600  1
  O  O29  1  0.36014800  0.74624200  0.57584500  1
  O  O30  1  0.71262600  0.26986200  0.53558100  1
  O  O31  1  0.75765100  0.84659500  0.63502700  1
  O  O32  1  0.75765100  0.15340500  0.13502700  1
  O  O33  1  0.36014800  0.25375800  0.07584500  1
  O  O34  1  0.47043650  0.07121050  0.78779600  1
  O  O35  1  0.52010950  0.37427150  0.38581500  1
  O  O36  1  0.64083600  0.31268000  0.23549100  1
  O  O37  1  0.37298200  0.08720300  0.47846900  1
  O  O38  1  0.52010950  0.62572850  0.88581500  1
  O  O39  1  0.37298200  0.91279700  0.97846900  1
  O  O40  1  0.44658000  0.42079700  0.89942300  1
  O  O41  1  0.64083600  0.68732000  0.73549100  1
  O  O42  1  0.62672750  0.87041850  0.18764100  1
  O  O43  1  0.44658000  0.57920300  0.39942300  1
  O  O44  1  0.56481400  0.98022100  0.65176600  1
  O  O45  1  0.27404650  0.91128150  0.47201800  1
  O  O46  1  0.71262600  0.73013800  0.03558100  1
  O  O47  1  0.48680150  0.27049050  0.84057500  1
  O  O48  1  0.27404650  0.08871850  0.97201800  1
  O  O49  1  0.48680150  0.72950950  0.34057500  1
  O  O50  1  0.62672750  0.12958150  0.68764100  1
  O  O51  1  0.47043650  0.92878950  0.28779600  1
  O  O52  1  0.06481400  0.51977900  0.15176600  1
  O  O53  1  0.86014800  0.24624200  0.57584500  1
  O  O54  1  0.21262600  0.76986200  0.53558100  1
  O  O55  1  0.25765100  0.34659500  0.63502700  1
  O  O56  1  0.25765100  0.65340500  0.13502700  1
  O  O57  1  0.86014800  0.75375800  0.07584500  1
  O  O58  1  0.97043650  0.57121050  0.78779600  1
  O  O59  1  0.02010950  0.87427150  0.38581500  1
  O  O60  1  0.14083600  0.81268000  0.23549100  1
  O  O61  1  0.87298200  0.58720300  0.47846900  1
  O  O62  1  0.02010950  0.12572850  0.88581500  1
  O  O63  1  0.87298200  0.41279700  0.97846900  1
  O  O64  1  0.94658000  0.92079700  0.89942300  1
  O  O65  1  0.14083600  0.18732000  0.73549100  1
  O  O66  1  0.12672750  0.37041850  0.18764100  1
  O  O67  1  0.94658000  0.07920300  0.39942300  1
  O  O68  1  0.06481400  0.48022100  0.65176600  1
  O  O69  1  0.77404650  0.41128150  0.47201800  1
  O  O70  1  0.21262600  0.23013800  0.03558100  1
  O  O71  1  0.98680150  0.77049050  0.84057500  1
  O  O72  1  0.77404650  0.58871850  0.97201800  1
  O  O73  1  0.98680150  0.22950950  0.34057500  1
  O  O74  1  0.12672750  0.62958150  0.68764100  1
  O  O75  1  0.97043650  0.42878950  0.28779600  1
