# generated using pymatgen
data_Li3ScCl6
_symmetry_space_group_name_H-M   'P 1'
_cell_length_a   6.38387000
_cell_length_b   10.99201400
_cell_length_c   24.27172042
_cell_angle_alpha   90.00000000
_cell_angle_beta   95.35626940
_cell_angle_gamma   90.00000000
_symmetry_Int_Tables_number   1
_chemical_formula_structural   Li3ScCl6
_chemical_formula_sum   'Li24 Sc8 Cl48'
_cell_volume   1695.74822066
_cell_formula_units_Z   8
loop_
 _symmetry_equiv_pos_site_id
 _symmetry_equiv_pos_as_xyz
  1  'x, y, z'
loop_
 _atom_site_type_symbol
 _atom_site_label
 _atom_site_symmetry_multiplicity
 _atom_site_fract_x
 _atom_site_fract_y
 _atom_site_fract_z
 _atom_site_occupancy
  Li  Li0  1  0.12499950  0.04194650  0.37500700  1
  Li  Li1  1  0.87500050  0.04194650  0.62499300  1
  Li  Li2  1  0.62389200  0.04065800  0.87500800  1
  Li  Li3  1  0.62500250  0.20835050  0.37500200  1
  Li  Li4  1  0.37610800  0.04065800  0.12499200  1
  Li  Li5  1  0.74938100  0.04270300  0.24999600  1
  Li  Li6  1  0.37499750  0.20835050  0.62499800  1
  Li  Li7  1  0.50000000  0.87544100  0.00000000  1
  Li  Li8  1  0.50000000  0.04293300  0.50000000  1
  Li  Li9  1  0.62621850  0.70952350  0.87493500  1
  Li  Li10  1  0.25061900  0.04270300  0.75000400  1
  Li  Li11  1  0.37378150  0.70952350  0.12506500  1
  Li  Li12  1  0.62499950  0.54194650  0.37500700  1
  Li  Li13  1  0.37500050  0.54194650  0.62499300  1
  Li  Li14  1  0.12389200  0.54065800  0.87500800  1
  Li  Li15  1  0.12500250  0.70835050  0.37500200  1
  Li  Li16  1  0.87610800  0.54065800  0.12499200  1
  Li  Li17  1  0.24938100  0.54270300  0.24999600  1
  Li  Li18  1  0.87499750  0.70835050  0.62499800  1
  Li  Li19  1  0.00000000  0.37544100  0.00000000  1
  Li  Li20  1  0.00000000  0.54293300  0.50000000  1
  Li  Li21  1  0.12621850  0.20952350  0.87493500  1
  Li  Li22  1  0.75061900  0.54270300  0.75000400  1
  Li  Li23  1  0.87378150  0.20952350  0.12506500  1
  Sc  Sc24  1  0.62501200  0.87315700  0.37498800  1
  Sc  Sc25  1  0.37498800  0.87315700  0.62501200  1
  Sc  Sc26  1  0.62192500  0.37412300  0.87500700  1
  Sc  Sc27  1  0.37807500  0.37412300  0.12499300  1
  Sc  Sc28  1  0.12501200  0.37315700  0.37498800  1
  Sc  Sc29  1  0.87498800  0.37315700  0.62501200  1
  Sc  Sc30  1  0.12192500  0.87412300  0.87500700  1
  Sc  Sc31  1  0.87807500  0.87412300  0.12499300  1
  Cl  Cl32  1  0.45410700  0.03641000  0.31557600  1
  Cl  Cl33  1  0.57786650  0.87947850  0.18337500  1
  Cl  Cl34  1  0.20420300  0.03638900  0.56556200  1
  Cl  Cl35  1  0.04646950  0.03809350  0.18387600  1
  Cl  Cl36  1  0.32471200  0.87985500  0.43275900  1
  Cl  Cl37  1  0.95353050  0.03809350  0.81612400  1
  Cl  Cl38  1  0.79579700  0.03638900  0.43443800  1
  Cl  Cl39  1  0.44047300  0.70995600  0.31719400  1
  Cl  Cl40  1  0.57457300  0.37989500  0.68275200  1
  Cl  Cl41  1  0.42542700  0.37989500  0.31724800  1
  Cl  Cl42  1  0.68987450  0.03159150  0.06557600  1
  Cl  Cl43  1  0.54589300  0.03641000  0.68442400  1
  Cl  Cl44  1  0.69051000  0.20999900  0.56721400  1
  Cl  Cl45  1  0.55803900  0.20941700  0.18282000  1
  Cl  Cl46  1  0.81511250  0.87551850  0.93173900  1
  Cl  Cl47  1  0.67528800  0.87985500  0.56724100  1
  Cl  Cl48  1  0.31012550  0.03159150  0.93442400  1
  Cl  Cl49  1  0.44196100  0.20941700  0.81718000  1
  Cl  Cl50  1  0.30949000  0.20999900  0.43278600  1
  Cl  Cl51  1  0.42213350  0.87947850  0.81662500  1
  Cl  Cl52  1  0.68800050  0.71724950  0.06612900  1
  Cl  Cl53  1  0.55952700  0.70995600  0.68280600  1
  Cl  Cl54  1  0.18488750  0.87551850  0.06826100  1
  Cl  Cl55  1  0.31199950  0.71724950  0.93387100  1
  Cl  Cl56  1  0.95410700  0.53641000  0.31557600  1
  Cl  Cl57  1  0.07786650  0.37947850  0.18337500  1
  Cl  Cl58  1  0.70420300  0.53638900  0.56556200  1
  Cl  Cl59  1  0.54646950  0.53809350  0.18387600  1
  Cl  Cl60  1  0.82471200  0.37985500  0.43275900  1
  Cl  Cl61  1  0.45353050  0.53809350  0.81612400  1
  Cl  Cl62  1  0.29579700  0.53638900  0.43443800  1
  Cl  Cl63  1  0.94047300  0.20995600  0.31719400  1
  Cl  Cl64  1  0.07457300  0.87989500  0.68275200  1
  Cl  Cl65  1  0.92542700  0.87989500  0.31724800  1
  Cl  Cl66  1  0.18987450  0.53159150  0.06557600  1
  Cl  Cl67  1  0.04589300  0.53641000  0.68442400  1
  Cl  Cl68  1  0.19051000  0.70999900  0.56721400  1
  Cl  Cl69  1  0.05803900  0.70941700  0.18282000  1
  Cl  Cl70  1  0.31511250  0.37551850  0.93173900  1
  Cl  Cl71  1  0.17528800  0.37985500  0.56724100  1
  Cl  Cl72  1  0.81012550  0.53159150  0.93442400  1
  Cl  Cl73  1  0.94196100  0.70941700  0.81718000  1
  Cl  Cl74  1  0.80949000  0.70999900  0.43278600  1
  Cl  Cl75  1  0.92213350  0.37947850  0.81662500  1
  Cl  Cl76  1  0.18800050  0.21724950  0.06612900  1
  Cl  Cl77  1  0.05952700  0.20995600  0.68280600  1
  Cl  Cl78  1  0.68488750  0.37551850  0.06826100  1
  Cl  Cl79  1  0.81199950  0.21724950  0.93387100  1
