# generated using pymatgen
data_Fe5Te6(ClO9)2
_symmetry_space_group_name_H-M   'P 1'
_cell_length_a   4.97610300
_cell_length_b   9.36193732
_cell_length_c   10.63963932
_cell_angle_alpha   106.04243072
_cell_angle_beta   90.79964152
_cell_angle_gamma   104.02069801
_symmetry_Int_Tables_number   1
_chemical_formula_structural   Fe5Te6(ClO9)2
_chemical_formula_sum   'Fe5 Te6 Cl2 O18'
_cell_volume   460.42098869
_cell_formula_units_Z   1
loop_
 _symmetry_equiv_pos_site_id
 _symmetry_equiv_pos_as_xyz
  1  'x, y, z'
loop_
 _atom_site_type_symbol
 _atom_site_label
 _atom_site_symmetry_multiplicity
 _atom_site_fract_x
 _atom_site_fract_y
 _atom_site_fract_z
 _atom_site_occupancy
  Fe  Fe0  1  0.29307200  0.58610300  0.04579100  1
  Fe  Fe1  1  0.50814700  0.08415000  0.80167400  1
  Fe  Fe2  1  0.49185300  0.91585000  0.19832600  1
  Fe  Fe3  1  0.00000000  0.00000000  0.50000000  1
  Fe  Fe4  1  0.70692800  0.41389700  0.95420900  1
  Te  Te5  1  0.18040700  0.35051800  0.70279100  1
  Te  Te6  1  0.91164000  0.80122700  0.93072000  1
  Te  Te7  1  0.81959300  0.64948200  0.29720900  1
  Te  Te8  1  0.08836000  0.19877300  0.06928000  1
  Te  Te9  1  0.40953900  0.76601300  0.60722800  1
  Te  Te10  1  0.59046100  0.23398700  0.39277200  1
  Cl  Cl11  1  0.76084700  0.55323100  0.63214600  1
  Cl  Cl12  1  0.23915300  0.44676900  0.36785400  1
  O  O13  1  0.45718200  0.29044100  0.79034600  1
  O  O14  1  0.90461900  0.15815000  0.66595600  1
  O  O15  1  0.63053800  0.61644900  0.94405100  1
  O  O16  1  0.21197500  0.05774600  0.93065400  1
  O  O17  1  0.72861800  0.05218900  0.37600100  1
  O  O18  1  0.27138200  0.94781100  0.62399900  1
  O  O19  1  0.78802500  0.94225400  0.06934600  1
  O  O20  1  0.58585200  0.87609700  0.77914000  1
  O  O21  1  0.41414800  0.12390300  0.22086000  1
  O  O22  1  0.54281800  0.70955900  0.20965400  1
  O  O23  1  0.36946200  0.38355100  0.05594900  1
  O  O24  1  0.06176600  0.46685700  0.86906400  1
  O  O25  1  0.70106700  0.81864800  0.50025900  1
  O  O26  1  0.09538100  0.84185000  0.33404400  1
  O  O27  1  0.79621100  0.21802200  0.95466800  1
  O  O28  1  0.20378900  0.78197800  0.04533200  1
  O  O29  1  0.93823400  0.53314300  0.13093600  1
  O  O30  1  0.29893300  0.18135200  0.49974100  1
