# generated using pymatgen
data_K3P6S6N7
_symmetry_space_group_name_H-M   'P 1'
_cell_length_a   11.37503220
_cell_length_b   11.37503220
_cell_length_c   61.33040863
_cell_angle_alpha   90.00000000
_cell_angle_beta   90.00000000
_cell_angle_gamma   120.00000000
_symmetry_Int_Tables_number   1
_chemical_formula_structural   K3P6S6N7
_chemical_formula_sum   'K36 P72 S72 N84'
_cell_volume   6872.45269395
_cell_formula_units_Z   12
loop_
 _symmetry_equiv_pos_site_id
 _symmetry_equiv_pos_as_xyz
  1  'x, y, z'
loop_
 _atom_site_type_symbol
 _atom_site_label
 _atom_site_symmetry_multiplicity
 _atom_site_fract_x
 _atom_site_fract_y
 _atom_site_fract_z
 _atom_site_occupancy
  K  K0  1  0.51036133  0.01706267  0.03337667  1
  K  K1  1  0.84003467  0.68372933  0.20004333  1
  K  K2  1  0.84369467  0.15996533  0.20004333  1
  K  K3  1  0.50670133  0.48963867  0.03337667  1
  K  K4  1  0.35039600  0.17702800  0.13329000  1
  K  K5  1  0.15630533  0.31627067  0.29995667  1
  K  K6  1  0.15996533  0.84369467  0.29995667  1
  K  K7  1  0.31627067  0.15630533  0.20004333  1
  K  K8  1  0.82663200  0.64960400  0.13329000  1
  K  K9  1  0.98293733  0.49329867  0.03337667  1
  K  K10  1  0.68372933  0.84003467  0.29995667  1
  K  K11  1  0.82297200  0.17336800  0.13329000  1
  K  K12  1  0.17702800  0.35039600  0.36671000  1
  K  K13  1  0.50670133  0.01706267  0.53337667  1
  K  K14  1  0.51036133  0.49329867  0.53337667  1
  K  K15  1  0.17336800  0.82297200  0.36671000  1
  K  K16  1  0.01706267  0.51036133  0.46662333  1
  K  K17  1  0.82297200  0.64960400  0.63329000  1
  K  K18  1  0.82663200  0.17702800  0.63329000  1
  K  K19  1  0.98293733  0.48963867  0.53337667  1
  K  K20  1  0.49329867  0.98293733  0.46662333  1
  K  K21  1  0.64960400  0.82663200  0.36671000  1
  K  K22  1  0.35039600  0.17336800  0.63329000  1
  K  K23  1  0.48963867  0.50670133  0.46662333  1
  K  K24  1  0.84369467  0.68372933  0.70004333  1
  K  K25  1  0.17336800  0.35039600  0.86671000  1
  K  K26  1  0.17702800  0.82663200  0.86671000  1
  K  K27  1  0.84003467  0.15630533  0.70004333  1
  K  K28  1  0.68372933  0.84369467  0.79995667  1
  K  K29  1  0.48963867  0.98293733  0.96662333  1
  K  K30  1  0.49329867  0.51036133  0.96662333  1
  K  K31  1  0.64960400  0.82297200  0.86671000  1
  K  K32  1  0.15996533  0.31627067  0.79995667  1
  K  K33  1  0.31627067  0.15996533  0.70004333  1
  K  K34  1  0.01706267  0.50670133  0.96662333  1
  K  K35  1  0.15630533  0.84003467  0.79995667  1
  P  P36  1  0.15771167  0.56861433  0.12976433  1
  P  P37  1  0.23528100  0.74423600  0.20356900  1
  P  P38  1  0.10415800  0.83297100  0.00947200  1
  P  P39  1  0.76471900  0.50895500  0.29643100  1
  P  P40  1  0.72881300  0.89584200  0.00947200  1
  P  P41  1  0.49963767  0.06214633  0.32386133  1
  P  P42  1  0.90194767  0.82437833  0.03690233  1
  P  P43  1  0.50036233  0.56250867  0.17613867  1
  P  P44  1  0.56250867  0.50036233  0.32386133  1
  P  P45  1  0.41090267  0.84228833  0.12976433  1
  P  P46  1  0.17562167  0.07756933  0.03690233  1
  P  P47  1  0.25576400  0.49104500  0.20356900  1
  P  P48  1  0.16630433  0.77082467  0.15719467  1
  P  P49  1  0.43749133  0.93785367  0.17613867  1
  P  P50  1  0.22917533  0.39547967  0.15719467  1
  P  P51  1  0.49104500  0.25576400  0.29643100  1
  P  P52  1  0.43138567  0.58909733  0.12976433  1
  P  P53  1  0.93785367  0.43749133  0.32386133  1
  P  P54  1  0.92243067  0.09805233  0.03690233  1
  P  P55  1  0.06214633  0.49963767  0.17613867  1
  P  P56  1  0.74423600  0.23528100  0.29643100  1
  P  P57  1  0.50895500  0.76471900  0.20356900  1
  P  P58  1  0.60452033  0.83369567  0.15719467  1
  P  P59  1  0.16702900  0.27118700  0.00947200  1
  P  P60  1  0.82437833  0.90194767  0.46309767  1
  P  P61  1  0.90194767  0.07756933  0.53690233  1
  P  P62  1  0.77082467  0.16630433  0.34280533  1
  P  P63  1  0.43138567  0.84228833  0.62976433  1
  P  P64  1  0.39547967  0.22917533  0.34280533  1
  P  P65  1  0.16630433  0.39547967  0.65719467  1
  P  P66  1  0.56861433  0.15771167  0.37023567  1
  P  P67  1  0.16702900  0.89584200  0.50947200  1
  P  P68  1  0.22917533  0.83369567  0.65719467  1
  P  P69  1  0.07756933  0.17562167  0.46309767  1
  P  P70  1  0.84228833  0.41090267  0.37023567  1
  P  P71  1  0.92243067  0.82437833  0.53690233  1
  P  P72  1  0.83297100  0.10415800  0.49052800  1
  P  P73  1  0.10415800  0.27118700  0.50947200  1
  P  P74  1  0.89584200  0.72881300  0.49052800  1
  P  P75  1  0.15771167  0.58909733  0.62976433  1
  P  P76  1  0.09805233  0.92243067  0.46309767  1
  P  P77  1  0.60452033  0.77082467  0.65719467  1
  P  P78  1  0.58909733  0.43138567  0.37023567  1
  P  P79  1  0.72881300  0.83297100  0.50947200  1
  P  P80  1  0.41090267  0.56861433  0.62976433  1
  P  P81  1  0.17562167  0.09805233  0.53690233  1
  P  P82  1  0.27118700  0.16702900  0.49052800  1
  P  P83  1  0.83369567  0.60452033  0.34280533  1
  P  P84  1  0.49104500  0.23528100  0.79643100  1
  P  P85  1  0.56861433  0.41090267  0.87023567  1
  P  P86  1  0.43749133  0.49963767  0.67613867  1
  P  P87  1  0.09805233  0.17562167  0.96309767  1
  P  P88  1  0.06214633  0.56250867  0.67613867  1
  P  P89  1  0.83297100  0.72881300  0.99052800  1
  P  P90  1  0.23528100  0.49104500  0.70356900  1
  P  P91  1  0.83369567  0.22917533  0.84280533  1
  P  P92  1  0.89584200  0.16702900  0.99052800  1
  P  P93  1  0.74423600  0.50895500  0.79643100  1
  P  P94  1  0.50895500  0.74423600  0.70356900  1
  P  P95  1  0.58909733  0.15771167  0.87023567  1
  P  P96  1  0.49963767  0.43749133  0.82386133  1
  P  P97  1  0.77082467  0.60452033  0.84280533  1
  P  P98  1  0.56250867  0.06214633  0.82386133  1
  P  P99  1  0.82437833  0.92243067  0.96309767  1
  P  P100  1  0.76471900  0.25576400  0.79643100  1
  P  P101  1  0.27118700  0.10415800  0.99052800  1
  P  P102  1  0.25576400  0.76471900  0.70356900  1
  P  P103  1  0.39547967  0.16630433  0.84280533  1
  P  P104  1  0.07756933  0.90194767  0.96309767  1
  P  P105  1  0.84228833  0.43138567  0.87023567  1
  P  P106  1  0.93785367  0.50036233  0.82386133  1
  P  P107  1  0.50036233  0.93785367  0.67613867  1
  S  S108  1  0.40280367  0.28628633  0.27176333  1
  S  S109  1  0.24857733  0.46761167  0.00502267  1
  S  S110  1  0.11651733  0.71371367  0.22823667  1
  S  S111  1  0.44763233  0.58191067  0.32831067  1
  S  S112  1  0.80094500  0.91524400  0.16164400  1
  S  S113  1  0.28628633  0.40280367  0.22823667  1
  S  S114  1  0.38038033  0.93052967  0.10509667  1
  S  S115  1  0.86572167  0.41808933  0.17168933  1
  S  S116  1  0.41808933  0.86572167  0.32831067  1
  S  S117  1  0.11429900  0.19905500  0.16164400  1
  S  S118  1  0.08475600  0.88570100  0.16164400  1
  S  S119  1  0.26386300  0.04704700  0.06157000  1
  S  S120  1  0.55236767  0.13427833  0.17168933  1
  S  S121  1  0.88348267  0.59719633  0.27176333  1
  S  S122  1  0.58191067  0.44763233  0.17168933  1
  S  S123  1  0.95295300  0.21681600  0.06157000  1
  S  S124  1  0.71371367  0.11651733  0.27176333  1
  S  S125  1  0.21903433  0.75142267  0.00502267  1
  S  S126  1  0.78318400  0.73613700  0.06157000  1
  S  S127  1  0.13427833  0.55236767  0.32831067  1
  S  S128  1  0.55014933  0.61961967  0.10509667  1
  S  S129  1  0.59719633  0.88348267  0.22823667  1
  S  S130  1  0.06947033  0.44985067  0.10509667  1
  S  S131  1  0.53238833  0.78096567  0.00502267  1
  S  S132  1  0.06947033  0.61961967  0.60509667  1
  S  S133  1  0.91524400  0.80094500  0.33835600  1
  S  S134  1  0.78318400  0.04704700  0.56157000  1
  S  S135  1  0.11429900  0.91524400  0.66164400  1
  S  S136  1  0.46761167  0.24857733  0.49497733  1
  S  S137  1  0.95295300  0.73613700  0.56157000  1
  S  S138  1  0.04704700  0.26386300  0.43843000  1
  S  S139  1  0.53238833  0.75142267  0.50502267  1
  S  S140  1  0.08475600  0.19905500  0.66164400  1
  S  S141  1  0.78096567  0.53238833  0.49497733  1
  S  S142  1  0.75142267  0.21903433  0.49497733  1
  S  S143  1  0.93052967  0.38038033  0.39490333  1
  S  S144  1  0.21903433  0.46761167  0.50502267  1
  S  S145  1  0.55014933  0.93052967  0.60509667  1
  S  S146  1  0.24857733  0.78096567  0.50502267  1
  S  S147  1  0.61961967  0.55014933  0.39490333  1
  S  S148  1  0.38038033  0.44985067  0.60509667  1
  S  S149  1  0.88570100  0.08475600  0.33835600  1
  S  S150  1  0.44985067  0.06947033  0.39490333  1
  S  S151  1  0.80094500  0.88570100  0.66164400  1
  S  S152  1  0.21681600  0.95295300  0.43843000  1
  S  S153  1  0.26386300  0.21681600  0.56157000  1
  S  S154  1  0.73613700  0.78318400  0.43843000  1
  S  S155  1  0.19905500  0.11429900  0.33835600  1
  S  S156  1  0.73613700  0.95295300  0.93843000  1
  S  S157  1  0.58191067  0.13427833  0.67168933  1
  S  S158  1  0.44985067  0.38038033  0.89490333  1
  S  S159  1  0.78096567  0.24857733  0.99497733  1
  S  S160  1  0.13427833  0.58191067  0.82831067  1
  S  S161  1  0.61961967  0.06947033  0.89490333  1
  S  S162  1  0.71371367  0.59719633  0.77176333  1
  S  S163  1  0.19905500  0.08475600  0.83835600  1
  S  S164  1  0.75142267  0.53238833  0.99497733  1
  S  S165  1  0.44763233  0.86572167  0.82831067  1
  S  S166  1  0.41808933  0.55236767  0.82831067  1
  S  S167  1  0.59719633  0.71371367  0.72823667  1
  S  S168  1  0.88570100  0.80094500  0.83835600  1
  S  S169  1  0.21681600  0.26386300  0.93843000  1
  S  S170  1  0.91524400  0.11429900  0.83835600  1
  S  S171  1  0.28628633  0.88348267  0.72823667  1
  S  S172  1  0.04704700  0.78318400  0.93843000  1
  S  S173  1  0.55236767  0.41808933  0.67168933  1
  S  S174  1  0.11651733  0.40280367  0.72823667  1
  S  S175  1  0.46761167  0.21903433  0.99497733  1
  S  S176  1  0.88348267  0.28628633  0.77176333  1
  S  S177  1  0.93052967  0.55014933  0.89490333  1
  S  S178  1  0.40280367  0.11651733  0.77176333  1
  S  S179  1  0.86572167  0.44763233  0.67168933  1
  N  N180  1  0.66666667  0.33333333  0.29415933  1
  N  N181  1  0.00000000  0.00000000  0.03917400  1
  N  N182  1  0.43640367  0.09969233  0.30331533  1
  N  N183  1  0.23026300  0.23364100  0.03001800  1
  N  N184  1  0.10307033  0.67004467  0.13664867  1
  N  N185  1  0.81270633  0.80802867  0.01291167  1
  N  N186  1  0.19197133  0.00467767  0.01291167  1
  N  N187  1  0.67134433  0.14603967  0.32042167  1
  N  N188  1  0.52530467  0.85396033  0.17957833  1
  N  N189  1  0.76635900  0.99662200  0.03001800  1
  N  N190  1  0.52062700  0.66198900  0.15375500  1
  N  N191  1  0.33671133  0.90030767  0.19668467  1
  N  N192  1  0.85396033  0.52530467  0.32042167  1
  N  N193  1  0.66328867  0.56359633  0.30331533  1
  N  N194  1  0.33801100  0.85863800  0.15375500  1
  N  N195  1  0.33333333  0.66666667  0.20584067  1
  N  N196  1  0.14603967  0.67134433  0.17957833  1
  N  N197  1  0.33333333  0.66666667  0.12749267  1
  N  N198  1  0.14136200  0.47937300  0.15375500  1
  N  N199  1  0.09969233  0.43640367  0.19668467  1
  N  N200  1  0.00337800  0.76973700  0.03001800  1
  N  N201  1  0.90030767  0.33671133  0.30331533  1
  N  N202  1  0.56697433  0.89692967  0.13664867  1
  N  N203  1  0.32865567  0.47469533  0.17957833  1
  N  N204  1  0.32995533  0.43302567  0.13664867  1
  N  N205  1  0.99532233  0.18729367  0.01291167  1
  N  N206  1  0.47469533  0.32865567  0.32042167  1
  N  N207  1  0.56359633  0.66328867  0.19668467  1
  N  N208  1  0.33333333  0.66666667  0.62749267  1
  N  N209  1  0.66666667  0.33333333  0.37250733  1
  N  N210  1  0.10307033  0.43302567  0.63664867  1
  N  N211  1  0.89692967  0.56697433  0.36335133  1
  N  N212  1  0.76973700  0.00337800  0.46998200  1
  N  N213  1  0.47937300  0.14136200  0.34624500  1
  N  N214  1  0.85863800  0.33801100  0.34624500  1
  N  N215  1  0.33801100  0.47937300  0.65375500  1
  N  N216  1  0.19197133  0.18729367  0.51291167  1
  N  N217  1  0.43302567  0.32995533  0.36335133  1
  N  N218  1  0.18729367  0.99532233  0.48708833  1
  N  N219  1  0.00337800  0.23364100  0.53001800  1
  N  N220  1  0.52062700  0.85863800  0.65375500  1
  N  N221  1  0.32995533  0.89692967  0.63664867  1
  N  N222  1  0.00467767  0.19197133  0.48708833  1
  N  N223  1  0.00000000  0.00000000  0.53917400  1
  N  N224  1  0.81270633  0.00467767  0.51291167  1
  N  N225  1  0.00000000  0.00000000  0.46082600  1
  N  N226  1  0.80802867  0.81270633  0.48708833  1
  N  N227  1  0.76635900  0.76973700  0.53001800  1
  N  N228  1  0.67004467  0.10307033  0.36335133  1
  N  N229  1  0.56697433  0.67004467  0.63664867  1
  N  N230  1  0.23364100  0.23026300  0.46998200  1
  N  N231  1  0.99532233  0.80802867  0.51291167  1
  N  N232  1  0.99662200  0.76635900  0.46998200  1
  N  N233  1  0.66198900  0.52062700  0.34624500  1
  N  N234  1  0.14136200  0.66198900  0.65375500  1
  N  N235  1  0.23026300  0.99662200  0.53001800  1
  N  N236  1  0.00000000  0.00000000  0.96082600  1
  N  N237  1  0.33333333  0.66666667  0.70584067  1
  N  N238  1  0.76973700  0.76635900  0.96998200  1
  N  N239  1  0.56359633  0.90030767  0.69668467  1
  N  N240  1  0.43640367  0.33671133  0.80331533  1
  N  N241  1  0.14603967  0.47469533  0.67957833  1
  N  N242  1  0.52530467  0.67134433  0.67957833  1
  N  N243  1  0.00467767  0.81270633  0.98708833  1
  N  N244  1  0.85863800  0.52062700  0.84624500  1
  N  N245  1  0.09969233  0.66328867  0.69668467  1
  N  N246  1  0.85396033  0.32865567  0.82042167  1
  N  N247  1  0.67004467  0.56697433  0.86335133  1
  N  N248  1  0.18729367  0.19197133  0.98708833  1
  N  N249  1  0.99662200  0.23026300  0.96998200  1
  N  N250  1  0.67134433  0.52530467  0.82042167  1
  N  N251  1  0.66666667  0.33333333  0.87250733  1
  N  N252  1  0.47937300  0.33801100  0.84624500  1
  N  N253  1  0.66666667  0.33333333  0.79415933  1
  N  N254  1  0.47469533  0.14603967  0.82042167  1
  N  N255  1  0.43302567  0.10307033  0.86335133  1
  N  N256  1  0.33671133  0.43640367  0.69668467  1
  N  N257  1  0.23364100  0.00337800  0.96998200  1
  N  N258  1  0.90030767  0.56359633  0.80331533  1
  N  N259  1  0.66198900  0.14136200  0.84624500  1
  N  N260  1  0.66328867  0.09969233  0.80331533  1
  N  N261  1  0.32865567  0.85396033  0.67957833  1
  N  N262  1  0.80802867  0.99532233  0.98708833  1
  N  N263  1  0.89692967  0.32995533  0.86335133  1
