# generated using pymatgen
data_Sr22Nb10O47
_symmetry_space_group_name_H-M   'P 1'
_cell_length_a   6.00792700
_cell_length_b   6.30185129
_cell_length_c   39.91098228
_cell_angle_alpha   91.58496747
_cell_angle_beta   93.11171073
_cell_angle_gamma   116.05613739
_symmetry_Int_Tables_number   1
_chemical_formula_structural   Sr22Nb10O47
_chemical_formula_sum   'Sr22 Nb10 O47'
_cell_volume   1353.25553407
_cell_formula_units_Z   1
loop_
 _symmetry_equiv_pos_site_id
 _symmetry_equiv_pos_as_xyz
  1  'x, y, z'
loop_
 _atom_site_type_symbol
 _atom_site_label
 _atom_site_symmetry_multiplicity
 _atom_site_fract_x
 _atom_site_fract_y
 _atom_site_fract_z
 _atom_site_occupancy
  Sr  Sr0  1  0.55539600  0.34700000  0.02800600  1
  Sr  Sr1  1  0.44392100  0.81179500  0.05802400  1
  Sr  Sr2  1  0.38370500  0.90924000  0.15709900  1
  Sr  Sr3  1  0.22785200  0.34504400  0.19376200  1
  Sr  Sr4  1  0.20434200  0.47762300  0.30424000  1
  Sr  Sr5  1  0.07802500  0.18077600  0.09279900  1
  Sr  Sr6  1  0.83452400  0.90108000  0.40693500  1
  Sr  Sr7  1  0.92866600  0.88020400  0.31879000  1
  Sr  Sr8  1  0.82351400  0.75307000  0.22990000  1
  Sr  Sr9  1  0.55996700  0.27280000  0.44750300  1
  Sr  Sr10  1  0.52958200  0.21822400  0.36144900  1
  Sr  Sr11  1  0.74397600  0.41185300  0.54144800  1
  Sr  Sr12  1  0.25745800  0.60748300  0.47369500  1
  Sr  Sr13  1  0.38706700  0.88919600  0.64966500  1
  Sr  Sr14  1  0.07323600  0.16657000  0.60088400  1
  Sr  Sr15  1  0.20280100  0.48401400  0.79896900  1
  Sr  Sr16  1  0.90556700  0.88220200  0.81895600  1
  Sr  Sr17  1  0.95752900  0.71406800  0.71539100  1
  Sr  Sr18  1  0.92082200  0.97724100  0.90900700  1
  Sr  Sr19  1  0.72562300  0.44897900  0.94994100  1
  Sr  Sr20  1  0.56393000  0.23351400  0.85990100  1
  Sr  Sr21  1  0.34044400  0.74279100  0.96417200  1
  Nb  Nb22  1  0.92955000  0.04851500  0.00619900  1
  Nb  Nb23  1  0.66669400  0.58179700  0.13140400  1
  Nb  Nb24  1  0.43000600  0.08260900  0.25885200  1
  Nb  Nb25  1  0.17448700  0.55006000  0.38424900  1
  Nb  Nb26  1  0.89207600  0.93413600  0.49793900  1
  Nb  Nb27  1  0.71523300  0.58780700  0.62928800  1
  Nb  Nb28  1  0.47968800  0.78517100  0.56397700  1
  Nb  Nb29  1  0.49815700  0.11847100  0.76049100  1
  Nb  Nb30  1  0.36083100  0.35978300  0.69498900  1
  Nb  Nb31  1  0.22353400  0.57486800  0.87930500  1
  O  O32  1  0.80561100  0.16380800  0.04914200  1
  O  O33  1  0.16843900  0.36350500  0.99621000  1
  O  O34  1  0.17049300  0.00509000  0.04220600  1
  O  O35  1  0.63409800  0.73179300  0.01239600  1
  O  O36  1  0.51021100  0.49111400  0.08625000  1
  O  O37  1  0.58911200  0.67681800  0.17767000  1
  O  O38  1  0.71627400  0.90278100  0.12181200  1
  O  O39  1  0.98084900  0.57459000  0.13717500  1
  O  O40  1  0.39274500  0.27135100  0.14346700  1
  O  O41  1  0.25407800  0.99139200  0.21112000  1
  O  O42  1  0.47849300  0.40510300  0.24611900  1
  O  O43  1  0.37796400  0.17951000  0.30223900  1
  O  O44  1  0.73887500  0.06021100  0.26069400  1
  O  O45  1  0.10503500  0.22128200  0.35561400  1
  O  O46  1  0.15665900  0.77131600  0.26860400  1
  O  O47  1  0.92522800  0.56065800  0.34766100  1
  O  O48  1  0.21831700  0.83594400  0.41050000  1
  O  O49  1  0.45433400  0.75139700  0.35169700  1
  O  O50  1  0.44019600  0.50938000  0.41131700  1
  O  O51  1  0.87585200  0.62941400  0.48179400  1
  O  O52  1  0.88768300  0.32683200  0.40942500  1
  O  O53  1  0.66971200  0.96656900  0.46590200  1
  O  O54  1  0.90516600  0.10847600  0.53916600  1
  O  O55  1  0.19755000  0.15441200  0.48140400  1
  O  O56  1  0.51636800  0.07993000  0.58101100  1
  O  O57  1  0.16734700  0.67733500  0.54216900  1
  O  O58  1  0.89085400  0.41511800  0.62750000  1
  O  O59  1  0.57060100  0.67784700  0.52164600  1
  O  O60  1  0.38070400  0.59766000  0.60480900  1
  O  O61  1  0.58296000  0.66792000  0.68014600  1
  O  O62  1  0.79153900  0.72398000  0.58471600  1
  O  O63  1  0.97012600  0.87376000  0.64898900  1
  O  O64  1  0.07845000  0.39037500  0.70174000  1
  O  O65  1  0.41589500  0.28186100  0.64794600  1
  O  O66  1  0.35281800  0.04611000  0.70865600  1
  O  O67  1  0.44990700  0.26166400  0.79891900  1
  O  O68  1  0.56827800  0.44245500  0.73895200  1
  O  O69  1  0.79397300  0.10045000  0.77193600  1
  O  O70  1  0.15266100  0.23645800  0.85568800  1
  O  O71  1  0.22130000  0.82157800  0.76758000  1
  O  O72  1  0.97483000  0.57099100  0.84166000  1
  O  O73  1  0.25387300  0.86330400  0.90252900  1
  O  O74  1  0.50619500  0.75927400  0.84784800  1
  O  O75  1  0.47785700  0.56033000  0.91316600  1
  O  O76  1  0.99586100  0.87418900  0.96798200  1
  O  O77  1  0.66201300  0.12085500  0.98103900  1
  O  O78  1  0.92325500  0.36552600  0.90563500  1
