# generated using pymatgen
data_Sb6Pb6S17
_symmetry_space_group_name_H-M   'P 1'
_cell_length_a   3.99170600
_cell_length_b   15.64545900
_cell_length_c   23.37396500
_cell_angle_alpha   90.00000000
_cell_angle_beta   90.00000000
_cell_angle_gamma   90.00000000
_symmetry_Int_Tables_number   1
_chemical_formula_structural   Sb6Pb6S17
_chemical_formula_sum   'Sb12 Pb12 S34'
_cell_volume   1459.75255827
_cell_formula_units_Z   2
loop_
 _symmetry_equiv_pos_site_id
 _symmetry_equiv_pos_as_xyz
  1  'x, y, z'
loop_
 _atom_site_type_symbol
 _atom_site_label
 _atom_site_symmetry_multiplicity
 _atom_site_fract_x
 _atom_site_fract_y
 _atom_site_fract_z
 _atom_site_occupancy
  Sb  Sb0  1  0.50120700  0.82427800  0.39814700  1
  Sb  Sb1  1  0.52588500  0.43458800  0.93011700  1
  Sb  Sb2  1  0.47411500  0.93458800  0.56988300  1
  Sb  Sb3  1  0.51192000  0.55778700  0.75804700  1
  Sb  Sb4  1  0.47411500  0.06541200  0.43011700  1
  Sb  Sb5  1  0.52588500  0.56541200  0.06988300  1
  Sb  Sb6  1  0.49879300  0.32427800  0.10185300  1
  Sb  Sb7  1  0.49879300  0.67572200  0.89814700  1
  Sb  Sb8  1  0.48808000  0.05778700  0.74195300  1
  Sb  Sb9  1  0.51192000  0.44221300  0.24195300  1
  Sb  Sb10  1  0.48808000  0.94221300  0.25804700  1
  Sb  Sb11  1  0.50120700  0.17572200  0.60185300  1
  Pb  Pb12  1  0.99593900  0.17872400  0.29590100  1
  Pb  Pb13  1  0.00140500  0.07946000  0.12532100  1
  Pb  Pb14  1  0.99593900  0.82127600  0.70409900  1
  Pb  Pb15  1  0.00211600  0.79839100  0.03768900  1
  Pb  Pb16  1  0.99788400  0.70160900  0.53768900  1
  Pb  Pb17  1  0.99859500  0.42054000  0.62532100  1
  Pb  Pb18  1  0.00140500  0.92054000  0.87467900  1
  Pb  Pb19  1  0.00406100  0.67872400  0.20409900  1
  Pb  Pb20  1  0.99788400  0.29839100  0.46231100  1
  Pb  Pb21  1  0.99859500  0.57946000  0.37467900  1
  Pb  Pb22  1  0.00211600  0.20160900  0.96231100  1
  Pb  Pb23  1  0.00406100  0.32127600  0.79590100  1
  S  S24  1  0.99147100  0.48008700  0.85077100  1
  S  S25  1  0.49946400  0.29095200  0.88584700  1
  S  S26  1  0.77686500  0.00000000  0.00000000  1
  S  S27  1  0.50053600  0.79095200  0.61415300  1
  S  S28  1  0.99375000  0.62363900  0.99641700  1
  S  S29  1  0.22313500  0.50000000  0.50000000  1
  S  S30  1  0.50053600  0.20904800  0.38584700  1
  S  S31  1  0.49453600  0.18600400  0.05333200  1
  S  S32  1  0.50341400  0.40950500  0.72142700  1
  S  S33  1  0.00625000  0.12363900  0.50358300  1
  S  S34  1  0.49707800  0.95539300  0.06875200  1
  S  S35  1  0.00270200  0.09867200  0.80822100  1
  S  S36  1  0.00417200  0.77442900  0.33465700  1
  S  S37  1  0.00625000  0.87636100  0.49641700  1
  S  S38  1  0.49453600  0.81399600  0.94666800  1
  S  S39  1  0.49707800  0.04460700  0.93124800  1
  S  S40  1  0.00417200  0.22557100  0.66534300  1
  S  S41  1  0.50546400  0.68600400  0.44666800  1
  S  S42  1  0.00852900  0.01991300  0.35077100  1
  S  S43  1  0.50341400  0.59049500  0.27857300  1
  S  S44  1  0.50292200  0.54460700  0.56875200  1
  S  S45  1  0.49658600  0.09049500  0.22142700  1
  S  S46  1  0.99582800  0.27442900  0.16534300  1
  S  S47  1  0.00852900  0.98008700  0.64922900  1
  S  S48  1  0.99729800  0.59867200  0.69177900  1
  S  S49  1  0.99375000  0.37636100  0.00358300  1
  S  S50  1  0.49946400  0.70904800  0.11415300  1
  S  S51  1  0.00270200  0.90132800  0.19177900  1
  S  S52  1  0.99729800  0.40132800  0.30822100  1
  S  S53  1  0.50546400  0.31399600  0.55333200  1
  S  S54  1  0.99582800  0.72557100  0.83465700  1
  S  S55  1  0.50292200  0.45539300  0.43124800  1
  S  S56  1  0.49658600  0.90950500  0.77857300  1
  S  S57  1  0.99147100  0.51991300  0.14922900  1
