# generated using pymatgen
data_CuAg7As4ClO14
_symmetry_space_group_name_H-M   'P 1'
_cell_length_a   10.48724000
_cell_length_b   9.12491200
_cell_length_c   16.77058424
_cell_angle_alpha   90.00000000
_cell_angle_beta   95.18524765
_cell_angle_gamma   90.00000000
_symmetry_Int_Tables_number   1
_chemical_formula_structural   CuAg7As4ClO14
_chemical_formula_sum   'Cu4 Ag28 As16 Cl4 O56'
_cell_volume   1598.29586176
_cell_formula_units_Z   4
loop_
 _symmetry_equiv_pos_site_id
 _symmetry_equiv_pos_as_xyz
  1  'x, y, z'
loop_
 _atom_site_type_symbol
 _atom_site_label
 _atom_site_symmetry_multiplicity
 _atom_site_fract_x
 _atom_site_fract_y
 _atom_site_fract_z
 _atom_site_occupancy
  Cu  Cu0  1  0.78155450  0.50502150  0.15901300  1
  Cu  Cu1  1  0.78155450  0.49497850  0.65901300  1
  Cu  Cu2  1  0.28155450  0.00502150  0.15901300  1
  Cu  Cu3  1  0.28155450  0.99497850  0.65901300  1
  Ag  Ag4  1  0.24447800  0.26045300  0.99081700  1
  Ag  Ag5  1  0.14418550  0.26014950  0.48364100  1
  Ag  Ag6  1  0.27555300  0.60741800  0.15693300  1
  Ag  Ag7  1  0.88021200  0.26603400  0.32183300  1
  Ag  Ag8  1  0.27555300  0.39258200  0.65693300  1
  Ag  Ag9  1  0.00023050  0.05730250  0.00001500  1
  Ag  Ag10  1  0.24447800  0.73954700  0.49081700  1
  Ag  Ag11  1  0.05879750  0.42664450  0.81473300  1
  Ag  Ag12  1  0.14418550  0.73985050  0.98364100  1
  Ag  Ag13  1  0.88021200  0.73396600  0.82183300  1
  Ag  Ag14  1  0.00023050  0.94269750  0.50001500  1
  Ag  Ag15  1  0.81727400  0.23393600  0.81980900  1
  Ag  Ag16  1  0.81727400  0.76606400  0.31980900  1
  Ag  Ag17  1  0.05879750  0.57335550  0.31473300  1
  Ag  Ag18  1  0.74447800  0.76045300  0.99081700  1
  Ag  Ag19  1  0.64418550  0.76014950  0.48364100  1
  Ag  Ag20  1  0.77555300  0.10741800  0.15693300  1
  Ag  Ag21  1  0.38021200  0.76603400  0.32183300  1
  Ag  Ag22  1  0.77555300  0.89258200  0.65693300  1
  Ag  Ag23  1  0.50023050  0.55730250  0.00001500  1
  Ag  Ag24  1  0.74447800  0.23954700  0.49081700  1
  Ag  Ag25  1  0.55879750  0.92664450  0.81473300  1
  Ag  Ag26  1  0.64418550  0.23985050  0.98364100  1
  Ag  Ag27  1  0.38021200  0.23396600  0.82183300  1
  Ag  Ag28  1  0.50023050  0.44269750  0.50001500  1
  Ag  Ag29  1  0.31727400  0.73393600  0.81980900  1
  Ag  Ag30  1  0.31727400  0.26606400  0.31980900  1
  Ag  Ag31  1  0.55879750  0.07335550  0.31473300  1
  As  As32  1  0.98558200  0.82573400  0.15707500  1
  As  As33  1  0.98558200  0.17426600  0.65707500  1
  As  As34  1  0.92659900  0.45052800  0.99698500  1
  As  As35  1  0.06984200  0.68291400  0.65522700  1
  As  As36  1  0.92659900  0.54947200  0.49698500  1
  As  As37  1  0.61410250  0.48572950  0.31546800  1
  As  As38  1  0.61410250  0.51427050  0.81546800  1
  As  As39  1  0.06984200  0.31708600  0.15522700  1
  As  As40  1  0.48558200  0.32573400  0.15707500  1
  As  As41  1  0.48558200  0.67426600  0.65707500  1
  As  As42  1  0.42659900  0.95052800  0.99698500  1
  As  As43  1  0.56984200  0.18291400  0.65522700  1
  As  As44  1  0.42659900  0.04947200  0.49698500  1
  As  As45  1  0.11410250  0.98572950  0.31546800  1
  As  As46  1  0.11410250  0.01427050  0.81546800  1
  As  As47  1  0.56984200  0.81708600  0.15522700  1
  Cl  Cl48  1  0.29100050  0.46687850  0.89177600  1
  Cl  Cl49  1  0.29100050  0.53312150  0.39177600  1
  Cl  Cl50  1  0.79100050  0.96687850  0.89177600  1
  Cl  Cl51  1  0.79100050  0.03312150  0.39177600  1
  O  O52  1  0.98264500  0.56444000  0.92733600  1
  O  O53  1  0.17126550  0.41107850  0.22159600  1
  O  O54  1  0.12158400  0.85244500  0.62887000  1
  O  O55  1  0.81555600  0.45955000  0.54906200  1
  O  O56  1  0.13524450  0.81128150  0.12362000  1
  O  O57  1  0.91103200  0.32053200  0.17493500  1
  O  O58  1  0.81555600  0.54045000  0.04906200  1
  O  O59  1  0.07062300  0.42458300  0.06317700  1
  O  O60  1  0.98679650  0.04031150  0.73768600  1
  O  O61  1  0.86998000  0.28384900  0.96393500  1
  O  O62  1  0.12158400  0.14755500  0.12887000  1
  O  O63  1  0.75773700  0.47260300  0.27202700  1
  O  O64  1  0.75773700  0.52739700  0.77202700  1
  O  O65  1  0.37966550  0.40693250  0.08716900  1
  O  O66  1  0.93358500  0.67077300  0.20231300  1
  O  O67  1  0.17126550  0.58892150  0.72159600  1
  O  O68  1  0.37966550  0.59306750  0.58716900  1
  O  O69  1  0.93358500  0.32922700  0.70231300  1
  O  O70  1  0.13524450  0.18871850  0.62362000  1
  O  O71  1  0.91103200  0.67946800  0.67493500  1
  O  O72  1  0.09225950  0.15981350  0.34875100  1
  O  O73  1  0.86998000  0.71615100  0.46393500  1
  O  O74  1  0.07062300  0.57541700  0.56317700  1
  O  O75  1  0.10004600  0.15130500  0.88316900  1
  O  O76  1  0.98679650  0.95968850  0.23768600  1
  O  O77  1  0.10004600  0.84869500  0.38316900  1
  O  O78  1  0.09225950  0.84018650  0.84875100  1
  O  O79  1  0.98264500  0.43556000  0.42733600  1
  O  O80  1  0.48264500  0.06444000  0.92733600  1
  O  O81  1  0.67126550  0.91107850  0.22159600  1
  O  O82  1  0.62158400  0.35244500  0.62887000  1
  O  O83  1  0.31555600  0.95955000  0.54906200  1
  O  O84  1  0.63524450  0.31128150  0.12362000  1
  O  O85  1  0.41103200  0.82053200  0.17493500  1
  O  O86  1  0.31555600  0.04045000  0.04906200  1
  O  O87  1  0.57062300  0.92458300  0.06317700  1
  O  O88  1  0.48679650  0.54031150  0.73768600  1
  O  O89  1  0.36998000  0.78384900  0.96393500  1
  O  O90  1  0.62158400  0.64755500  0.12887000  1
  O  O91  1  0.25773700  0.97260300  0.27202700  1
  O  O92  1  0.25773700  0.02739700  0.77202700  1
  O  O93  1  0.87966550  0.90693250  0.08716900  1
  O  O94  1  0.43358500  0.17077300  0.20231300  1
  O  O95  1  0.67126550  0.08892150  0.72159600  1
  O  O96  1  0.87966550  0.09306750  0.58716900  1
  O  O97  1  0.43358500  0.82922700  0.70231300  1
  O  O98  1  0.63524450  0.68871850  0.62362000  1
  O  O99  1  0.41103200  0.17946800  0.67493500  1
  O  O100  1  0.59225950  0.65981350  0.34875100  1
  O  O101  1  0.36998000  0.21615100  0.46393500  1
  O  O102  1  0.57062300  0.07541700  0.56317700  1
  O  O103  1  0.60004600  0.65130500  0.88316900  1
  O  O104  1  0.48679650  0.45968850  0.23768600  1
  O  O105  1  0.60004600  0.34869500  0.38316900  1
  O  O106  1  0.59225950  0.34018650  0.84875100  1
  O  O107  1  0.48264500  0.93556000  0.42733600  1
