# generated using pymatgen
data_RbTeHOF4
_symmetry_space_group_name_H-M   'P 1'
_cell_length_a   16.10775600
_cell_length_b   4.98343800
_cell_length_c   14.07560884
_cell_angle_alpha   90.00000000
_cell_angle_beta   94.30623240
_cell_angle_gamma   90.00000000
_symmetry_Int_Tables_number   1
_chemical_formula_structural   RbTeHOF4
_chemical_formula_sum   'Rb8 Te8 H8 O8 F32'
_cell_volume   1126.68764441
_cell_formula_units_Z   8
loop_
 _symmetry_equiv_pos_site_id
 _symmetry_equiv_pos_as_xyz
  1  'x, y, z'
loop_
 _atom_site_type_symbol
 _atom_site_label
 _atom_site_symmetry_multiplicity
 _atom_site_fract_x
 _atom_site_fract_y
 _atom_site_fract_z
 _atom_site_occupancy
  Rb  Rb0  1  0.76383050  0.59572450  0.51303000  1
  Rb  Rb1  1  0.76383050  0.40427550  0.01303000  1
  Rb  Rb2  1  0.55785200  0.08234300  0.74953300  1
  Rb  Rb3  1  0.55785200  0.91765700  0.24953300  1
  Rb  Rb4  1  0.26383050  0.09572450  0.51303000  1
  Rb  Rb5  1  0.26383050  0.90427550  0.01303000  1
  Rb  Rb6  1  0.05785200  0.58234300  0.74953300  1
  Rb  Rb7  1  0.05785200  0.41765700  0.24953300  1
  Te  Te8  1  0.50167150  0.52100550  0.49657700  1
  Te  Te9  1  0.50167150  0.47899450  0.99657700  1
  Te  Te10  1  0.81925500  0.01698400  0.75443000  1
  Te  Te11  1  0.81925500  0.98301600  0.25443000  1
  Te  Te12  1  0.00167150  0.02100550  0.49657700  1
  Te  Te13  1  0.00167150  0.97899450  0.99657700  1
  Te  Te14  1  0.31925500  0.51698400  0.75443000  1
  Te  Te15  1  0.31925500  0.48301600  0.25443000  1
  H  H16  1  0.72758500  0.62245400  0.75431600  1
  H  H17  1  0.72758500  0.37754600  0.25431600  1
  H  H18  1  0.59344900  0.87195800  0.00649100  1
  H  H19  1  0.59344900  0.12804200  0.50649100  1
  H  H20  1  0.22758500  0.12245400  0.75431600  1
  H  H21  1  0.22758500  0.87754600  0.25431600  1
  H  H22  1  0.09344900  0.37195800  0.00649100  1
  H  H23  1  0.09344900  0.62804200  0.50649100  1
  O  O24  1  0.71956300  0.80784400  0.72748800  1
  O  O25  1  0.71956300  0.19215600  0.22748800  1
  O  O26  1  0.60129400  0.31714200  0.53037900  1
  O  O27  1  0.60129400  0.68285800  0.03037900  1
  O  O28  1  0.21956300  0.30784400  0.72748800  1
  O  O29  1  0.21956300  0.69215600  0.22748800  1
  O  O30  1  0.10129400  0.81714200  0.53037900  1
  O  O31  1  0.10129400  0.18285800  0.03037900  1
  F  F32  1  0.72970650  0.30491150  0.78413100  1
  F  F33  1  0.72970650  0.69508850  0.28413100  1
  F  F34  1  0.80232000  0.11117200  0.61374500  1
  F  F35  1  0.80232000  0.88882800  0.11374500  1
  F  F36  1  0.81551650  0.87648450  0.89081500  1
  F  F37  1  0.81551650  0.12351550  0.39081500  1
  F  F38  1  0.88039400  0.68006100  0.72259900  1
  F  F39  1  0.88039400  0.31993900  0.22259900  1
  F  F40  1  0.51144050  0.59195050  0.85791900  1
  F  F41  1  0.51144050  0.40804950  0.35791900  1
  F  F42  1  0.94194300  0.66977600  0.51104100  1
  F  F43  1  0.94194300  0.33022400  0.01104100  1
  F  F44  1  0.51007750  0.59826050  0.63927000  1
  F  F45  1  0.51007750  0.40173950  0.13927000  1
  F  F46  1  0.59010200  0.18448500  0.96723600  1
  F  F47  1  0.59010200  0.81551500  0.46723600  1
  F  F48  1  0.22970650  0.80491150  0.78413100  1
  F  F49  1  0.22970650  0.19508850  0.28413100  1
  F  F50  1  0.30232000  0.61117200  0.61374500  1
  F  F51  1  0.30232000  0.38882800  0.11374500  1
  F  F52  1  0.31551650  0.37648450  0.89081500  1
  F  F53  1  0.31551650  0.62351550  0.39081500  1
  F  F54  1  0.38039400  0.18006100  0.72259900  1
  F  F55  1  0.38039400  0.81993900  0.22259900  1
  F  F56  1  0.01144050  0.09195050  0.85791900  1
  F  F57  1  0.01144050  0.90804950  0.35791900  1
  F  F58  1  0.44194300  0.16977600  0.51104100  1
  F  F59  1  0.44194300  0.83022400  0.01104100  1
  F  F60  1  0.01007750  0.09826050  0.63927000  1
  F  F61  1  0.01007750  0.90173950  0.13927000  1
  F  F62  1  0.09010200  0.68448500  0.96723600  1
  F  F63  1  0.09010200  0.31551500  0.46723600  1
