# generated using pymatgen
data_NaPH5C2SN3O4
_symmetry_space_group_name_H-M   'P 1'
_cell_length_a   5.92577700
_cell_length_b   7.04360911
_cell_length_c   10.22096714
_cell_angle_alpha   90.14842579
_cell_angle_beta   98.80592096
_cell_angle_gamma   103.04234424
_symmetry_Int_Tables_number   1
_chemical_formula_structural   NaPH5C2SN3O4
_chemical_formula_sum   'Na2 P2 H10 C4 S2 N6 O8'
_cell_volume   410.40178467
_cell_formula_units_Z   2
loop_
 _symmetry_equiv_pos_site_id
 _symmetry_equiv_pos_as_xyz
  1  'x, y, z'
loop_
 _atom_site_type_symbol
 _atom_site_label
 _atom_site_symmetry_multiplicity
 _atom_site_fract_x
 _atom_site_fract_y
 _atom_site_fract_z
 _atom_site_occupancy
  Na  Na0  1  0.47942700  0.67230400  0.20066000  1
  Na  Na1  1  0.52057300  0.32769600  0.79934000  1
  P  P2  1  0.96725200  0.24485800  0.22373800  1
  P  P3  1  0.03274800  0.75514200  0.77626200  1
  H  H4  1  0.99623300  0.91849900  0.18255600  1
  H  H5  1  0.00376700  0.08150100  0.81744400  1
  H  H6  1  0.91128000  0.41837500  0.40844000  1
  H  H7  1  0.08872000  0.58162500  0.59156000  1
  H  H8  1  0.56082700  0.86407700  0.47584100  1
  H  H9  1  0.43917300  0.13592300  0.52415900  1
  H  H10  1  0.91596800  0.59240600  0.13580000  1
  H  H11  1  0.08403200  0.40759400  0.86420000  1
  H  H12  1  0.83294200  0.67782900  0.00387700  1
  H  H13  1  0.16705800  0.32217100  0.99612300  1
  C  C14  1  0.23645400  0.01221200  0.34805800  1
  C  C15  1  0.76354600  0.98778800  0.65194200  1
  C  C16  1  0.18125600  0.28901200  0.48083900  1
  C  C17  1  0.81874400  0.71098800  0.51916100  1
  S  S18  1  0.64023000  0.17929800  0.14022300  1
  S  S19  1  0.35977000  0.82070200  0.85977700  1
  N  N20  1  0.06925800  0.03771400  0.24811000  1
  N  N21  1  0.93074200  0.96228600  0.75189000  1
  N  N22  1  0.00083200  0.31374300  0.38801700  1
  N  N23  1  0.99916800  0.68625700  0.61198300  1
  N  N24  1  0.29929600  0.14921100  0.45202800  1
  N  N25  1  0.70070400  0.85078900  0.54797200  1
  O  O26  1  0.13940700  0.39809000  0.16076800  1
  O  O27  1  0.86059300  0.60191000  0.83923200  1
  O  O28  1  0.33021500  0.86836800  0.35087200  1
  O  O29  1  0.66978500  0.13163200  0.64912800  1
  O  O30  1  0.75886800  0.61792400  0.40983500  1
  O  O31  1  0.24113200  0.38207600  0.59016500  1
  O  O32  1  0.83404800  0.69298100  0.10081100  1
  O  O33  1  0.16595200  0.30701900  0.89918900  1
