# generated using pymatgen
data_KYb(PO3)4
_symmetry_space_group_name_H-M   'P 1'
_cell_length_a   7.90065700
_cell_length_b   9.11006800
_cell_length_c   16.41983468
_cell_angle_alpha   90.00000000
_cell_angle_beta   112.22450595
_cell_angle_gamma   90.00000000
_symmetry_Int_Tables_number   1
_chemical_formula_structural   KYb(PO3)4
_chemical_formula_sum   'K4 Yb4 P16 O48'
_cell_volume   1094.02700654
_cell_formula_units_Z   4
loop_
 _symmetry_equiv_pos_site_id
 _symmetry_equiv_pos_as_xyz
  1  'x, y, z'
loop_
 _atom_site_type_symbol
 _atom_site_label
 _atom_site_symmetry_multiplicity
 _atom_site_fract_x
 _atom_site_fract_y
 _atom_site_fract_z
 _atom_site_occupancy
  K  K0  1  0.19338100  0.14697000  0.61160000  1
  K  K1  1  0.80661900  0.64697000  0.88840000  1
  K  K2  1  0.80661900  0.85303000  0.38840000  1
  K  K3  1  0.19338100  0.35303000  0.11160000  1
  Yb  Yb4  1  0.69466800  0.34288400  0.64752200  1
  Yb  Yb5  1  0.30533200  0.65711600  0.35247800  1
  Yb  Yb6  1  0.69466800  0.15711600  0.14752200  1
  Yb  Yb7  1  0.30533200  0.84288400  0.85247800  1
  P  P8  1  0.75901900  0.27296000  0.44579300  1
  P  P9  1  0.64591500  0.04569900  0.78202900  1
  P  P10  1  0.62910400  0.72960200  0.57300700  1
  P  P11  1  0.11843500  0.46571300  0.81202300  1
  P  P12  1  0.62910400  0.77039800  0.07300700  1
  P  P13  1  0.24098100  0.72704000  0.55420700  1
  P  P14  1  0.24098100  0.77296000  0.05420700  1
  P  P15  1  0.35408500  0.54569900  0.71797100  1
  P  P16  1  0.11843500  0.03428700  0.31202300  1
  P  P17  1  0.88156500  0.53428700  0.18797700  1
  P  P18  1  0.37089600  0.27039800  0.42699300  1
  P  P19  1  0.37089600  0.22960200  0.92699300  1
  P  P20  1  0.64591500  0.45430100  0.28202900  1
  P  P21  1  0.88156500  0.96571300  0.68797700  1
  P  P22  1  0.35408500  0.95430100  0.21797100  1
  P  P23  1  0.75901900  0.22704000  0.94579300  1
  O  O24  1  0.42776000  0.84059600  0.28825800  1
  O  O25  1  0.72442300  0.60204900  0.62905200  1
  O  O26  1  0.78786800  0.56119400  0.26010700  1
  O  O27  1  0.57213700  0.78157200  0.97509200  1
  O  O28  1  0.21519600  0.61964300  0.62654600  1
  O  O29  1  0.79850500  0.14268700  0.02967000  1
  O  O30  1  0.74710000  0.62182800  0.10219300  1
  O  O31  1  0.20149500  0.64268700  0.47033000  1
  O  O32  1  0.54602800  0.22421300  0.40236000  1
  O  O33  1  0.93489200  0.39375100  0.77717800  1
  O  O34  1  0.12655900  0.87600600  0.33830600  1
  O  O35  1  0.78786800  0.93880600  0.76010700  1
  O  O36  1  0.48634700  0.04856700  0.19682200  1
  O  O37  1  0.51365300  0.54856700  0.30317800  1
  O  O38  1  0.74710000  0.87817200  0.60219300  1
  O  O39  1  0.87344100  0.37600600  0.16169400  1
  O  O40  1  0.25290000  0.37817200  0.89780700  1
  O  O41  1  0.25290000  0.12182800  0.39780700  1
  O  O42  1  0.57213700  0.71842800  0.47509200  1
  O  O43  1  0.45397200  0.72421300  0.09764000  1
  O  O44  1  0.12527900  0.86123600  0.54583600  1
  O  O45  1  0.51365300  0.95143300  0.80317800  1
  O  O46  1  0.21213200  0.43880600  0.73989300  1
  O  O47  1  0.57224000  0.15940400  0.71174200  1
  O  O48  1  0.54602800  0.27578700  0.90236000  1
  O  O49  1  0.57224000  0.34059600  0.21174200  1
  O  O50  1  0.93489200  0.10624900  0.27717800  1
  O  O51  1  0.06510800  0.89375100  0.72282200  1
  O  O52  1  0.12527900  0.63876400  0.04583600  1
  O  O53  1  0.27557700  0.10204900  0.87094800  1
  O  O54  1  0.21213200  0.06119400  0.23989300  1
  O  O55  1  0.42776000  0.65940400  0.78825800  1
  O  O56  1  0.48634700  0.45143300  0.69682200  1
  O  O57  1  0.20149500  0.85731300  0.97033000  1
  O  O58  1  0.42786300  0.21842800  0.02490800  1
  O  O59  1  0.78480400  0.11964300  0.87345400  1
  O  O60  1  0.87472100  0.36123600  0.95416400  1
  O  O61  1  0.06510800  0.60624900  0.22282200  1
  O  O62  1  0.87344100  0.12399400  0.66169400  1
  O  O63  1  0.72442300  0.89795100  0.12905200  1
  O  O64  1  0.21519600  0.88035700  0.12654600  1
  O  O65  1  0.78480400  0.38035700  0.37345400  1
  O  O66  1  0.42786300  0.28157200  0.52490800  1
  O  O67  1  0.12655900  0.62399400  0.83830600  1
  O  O68  1  0.45397200  0.77578700  0.59764000  1
  O  O69  1  0.87472100  0.13876400  0.45416400  1
  O  O70  1  0.79850500  0.35731300  0.52967000  1
  O  O71  1  0.27557700  0.39795100  0.37094800  1
