# generated using pymatgen
data_SiO2
_symmetry_space_group_name_H-M   'P 1'
_cell_length_a   13.58266200
_cell_length_b   13.58266200
_cell_length_c   22.06674400
_cell_angle_alpha   90.00000000
_cell_angle_beta   90.00000000
_cell_angle_gamma   90.00000000
_symmetry_Int_Tables_number   1
_chemical_formula_structural   SiO2
_chemical_formula_sum   'Si56 O112'
_cell_volume   4071.06506840
_cell_formula_units_Z   56
loop_
 _symmetry_equiv_pos_site_id
 _symmetry_equiv_pos_as_xyz
  1  'x, y, z'
loop_
 _atom_site_type_symbol
 _atom_site_label
 _atom_site_symmetry_multiplicity
 _atom_site_fract_x
 _atom_site_fract_y
 _atom_site_fract_z
 _atom_site_occupancy
  Si  Si0  1  0.61312300  0.61234850  0.38737975  1
  Si  Si1  1  0.11234850  0.88687700  0.11262025  1
  Si  Si2  1  0.88765150  0.11312300  0.11262025  1
  Si  Si3  1  0.38687700  0.38765150  0.38737975  1
  Si  Si4  1  0.88765150  0.88687700  0.11262025  1
  Si  Si5  1  0.11234850  0.11312300  0.11262025  1
  Si  Si6  1  0.61312300  0.38765150  0.38737975  1
  Si  Si7  1  0.38687700  0.61234850  0.38737975  1
  Si  Si8  1  0.61467800  0.88652350  0.43618875  1
  Si  Si9  1  0.38652350  0.88532200  0.06381125  1
  Si  Si10  1  0.61347650  0.11467800  0.06381125  1
  Si  Si11  1  0.38532200  0.11347650  0.43618875  1
  Si  Si12  1  0.61347650  0.88532200  0.06381125  1
  Si  Si13  1  0.38652350  0.11467800  0.06381125  1
  Si  Si14  1  0.61467800  0.11347650  0.43618875  1
  Si  Si15  1  0.38532200  0.88652350  0.43618875  1
  Si  Si16  1  0.38368100  0.79455450  0.30993475  1
  Si  Si17  1  0.29455450  0.11631900  0.19006525  1
  Si  Si18  1  0.70544550  0.88368100  0.19006525  1
  Si  Si19  1  0.61631900  0.20544550  0.30993475  1
  Si  Si20  1  0.70544550  0.11631900  0.19006525  1
  Si  Si21  1  0.29455450  0.88368100  0.19006525  1
  Si  Si22  1  0.38368100  0.20544550  0.30993475  1
  Si  Si23  1  0.61631900  0.79455450  0.30993475  1
  Si  Si24  1  0.79683625  0.79683625  0.00000000  1
  Si  Si25  1  0.79683625  0.20316375  0.00000000  1
  Si  Si26  1  0.20316375  0.79683625  0.00000000  1
  Si  Si27  1  0.20316375  0.20316375  0.00000000  1
  Si  Si28  1  0.11312300  0.11234850  0.88737975  1
  Si  Si29  1  0.61234850  0.38687700  0.61262025  1
  Si  Si30  1  0.38765150  0.61312300  0.61262025  1
  Si  Si31  1  0.88687700  0.88765150  0.88737975  1
  Si  Si32  1  0.38765150  0.38687700  0.61262025  1
  Si  Si33  1  0.61234850  0.61312300  0.61262025  1
  Si  Si34  1  0.11312300  0.88765150  0.88737975  1
  Si  Si35  1  0.88687700  0.11234850  0.88737975  1
  Si  Si36  1  0.11467800  0.38652350  0.93618875  1
  Si  Si37  1  0.88652350  0.38532200  0.56381125  1
  Si  Si38  1  0.11347650  0.61467800  0.56381125  1
  Si  Si39  1  0.88532200  0.61347650  0.93618875  1
  Si  Si40  1  0.11347650  0.38532200  0.56381125  1
  Si  Si41  1  0.88652350  0.61467800  0.56381125  1
  Si  Si42  1  0.11467800  0.61347650  0.93618875  1
  Si  Si43  1  0.88532200  0.38652350  0.93618875  1
  Si  Si44  1  0.88368100  0.29455450  0.80993475  1
  Si  Si45  1  0.79455450  0.61631900  0.69006525  1
  Si  Si46  1  0.20544550  0.38368100  0.69006525  1
  Si  Si47  1  0.11631900  0.70544550  0.80993475  1
  Si  Si48  1  0.20544550  0.61631900  0.69006525  1
  Si  Si49  1  0.79455450  0.38368100  0.69006525  1
  Si  Si50  1  0.88368100  0.70544550  0.80993475  1
  Si  Si51  1  0.11631900  0.29455450  0.80993475  1
  Si  Si52  1  0.29683625  0.29683625  0.50000000  1
  Si  Si53  1  0.29683625  0.70316375  0.50000000  1
  Si  Si54  1  0.70316375  0.29683625  0.50000000  1
  Si  Si55  1  0.70316375  0.70316375  0.50000000  1
  O  O56  1  0.65026250  0.68560700  0.33384625  1
  O  O57  1  0.18560700  0.84973750  0.16615375  1
  O  O58  1  0.81439300  0.15026250  0.16615375  1
  O  O59  1  0.34973750  0.31439300  0.33384625  1
  O  O60  1  0.81439300  0.84973750  0.16615375  1
  O  O61  1  0.18560700  0.15026250  0.16615375  1
  O  O62  1  0.65026250  0.31439300  0.33384625  1
  O  O63  1  0.34973750  0.68560700  0.33384625  1
  O  O64  1  0.68444600  0.62304150  0.44601175  1
  O  O65  1  0.12304150  0.81555400  0.05398825  1
  O  O66  1  0.87695850  0.18444600  0.05398825  1
  O  O67  1  0.31555400  0.37695850  0.44601175  1
  O  O68  1  0.87695850  0.81555400  0.05398825  1
  O  O69  1  0.12304150  0.18444600  0.05398825  1
  O  O70  1  0.68444600  0.37695850  0.44601175  1
  O  O71  1  0.31555400  0.62304150  0.44601175  1
  O  O72  1  0.50000000  0.35889450  0.40695375  1
  O  O73  1  0.85889450  0.00000000  0.09304625  1
  O  O74  1  0.14110550  0.00000000  0.09304625  1
  O  O75  1  0.50000000  0.64110550  0.40695375  1
  O  O76  1  0.61625550  0.50000000  0.36258625  1
  O  O77  1  0.00000000  0.88374450  0.13741375  1
  O  O78  1  0.00000000  0.11625550  0.13741375  1
  O  O79  1  0.38374450  0.50000000  0.36258625  1
  O  O80  1  0.50000000  0.20716050  0.29276975  1
  O  O81  1  0.70716050  0.00000000  0.20723025  1
  O  O82  1  0.29283950  0.00000000  0.20723025  1
  O  O83  1  0.50000000  0.79283950  0.29276975  1
  O  O84  1  0.63615450  0.87531600  0.36361325  1
  O  O85  1  0.37531600  0.86384550  0.13638675  1
  O  O86  1  0.62468400  0.13615450  0.13638675  1
  O  O87  1  0.36384550  0.12468400  0.36361325  1
  O  O88  1  0.62468400  0.86384550  0.13638675  1
  O  O89  1  0.37531600  0.13615450  0.13638675  1
  O  O90  1  0.63615450  0.12468400  0.36361325  1
  O  O91  1  0.36384550  0.87531600  0.36361325  1
  O  O92  1  0.67919625  0.17919625  0.25000000  1
  O  O93  1  0.67919625  0.82080375  0.25000000  1
  O  O94  1  0.32080375  0.17919625  0.25000000  1
  O  O95  1  0.32080375  0.82080375  0.25000000  1
  O  O96  1  0.68840150  0.81443100  0.47392525  1
  O  O97  1  0.31443100  0.81159850  0.02607475  1
  O  O98  1  0.68556900  0.18840150  0.02607475  1
  O  O99  1  0.31159850  0.18556900  0.47392525  1
  O  O100  1  0.68556900  0.81159850  0.02607475  1
  O  O101  1  0.31443100  0.18840150  0.02607475  1
  O  O102  1  0.68840150  0.18556900  0.47392525  1
  O  O103  1  0.31159850  0.81443100  0.47392525  1
  O  O104  1  0.50000000  0.14307050  0.45033175  1
  O  O105  1  0.64307050  0.00000000  0.04966825  1
  O  O106  1  0.35692950  0.00000000  0.04966825  1
  O  O107  1  0.50000000  0.85692950  0.45033175  1
  O  O108  1  0.63447700  0.00000000  0.45615275  1
  O  O109  1  0.50000000  0.86552300  0.04384725  1
  O  O110  1  0.50000000  0.13447700  0.04384725  1
  O  O111  1  0.36552300  0.00000000  0.45615275  1
  O  O112  1  0.15026250  0.18560700  0.83384625  1
  O  O113  1  0.68560700  0.34973750  0.66615375  1
  O  O114  1  0.31439300  0.65026250  0.66615375  1
  O  O115  1  0.84973750  0.81439300  0.83384625  1
  O  O116  1  0.31439300  0.34973750  0.66615375  1
  O  O117  1  0.68560700  0.65026250  0.66615375  1
  O  O118  1  0.15026250  0.81439300  0.83384625  1
  O  O119  1  0.84973750  0.18560700  0.83384625  1
  O  O120  1  0.18444600  0.12304150  0.94601175  1
  O  O121  1  0.62304150  0.31555400  0.55398825  1
  O  O122  1  0.37695850  0.68444600  0.55398825  1
  O  O123  1  0.81555400  0.87695850  0.94601175  1
  O  O124  1  0.37695850  0.31555400  0.55398825  1
  O  O125  1  0.62304150  0.68444600  0.55398825  1
  O  O126  1  0.18444600  0.87695850  0.94601175  1
  O  O127  1  0.81555400  0.12304150  0.94601175  1
  O  O128  1  0.00000000  0.85889450  0.90695375  1
  O  O129  1  0.35889450  0.50000000  0.59304625  1
  O  O130  1  0.64110550  0.50000000  0.59304625  1
  O  O131  1  0.00000000  0.14110550  0.90695375  1
  O  O132  1  0.11625550  0.00000000  0.86258625  1
  O  O133  1  0.50000000  0.38374450  0.63741375  1
  O  O134  1  0.50000000  0.61625550  0.63741375  1
  O  O135  1  0.88374450  0.00000000  0.86258625  1
  O  O136  1  0.00000000  0.70716050  0.79276975  1
  O  O137  1  0.20716050  0.50000000  0.70723025  1
  O  O138  1  0.79283950  0.50000000  0.70723025  1
  O  O139  1  0.00000000  0.29283950  0.79276975  1
  O  O140  1  0.13615450  0.37531600  0.86361325  1
  O  O141  1  0.87531600  0.36384550  0.63638675  1
  O  O142  1  0.12468400  0.63615450  0.63638675  1
  O  O143  1  0.86384550  0.62468400  0.86361325  1
  O  O144  1  0.12468400  0.36384550  0.63638675  1
  O  O145  1  0.87531600  0.63615450  0.63638675  1
  O  O146  1  0.13615450  0.62468400  0.86361325  1
  O  O147  1  0.86384550  0.37531600  0.86361325  1
  O  O148  1  0.17919625  0.67919625  0.75000000  1
  O  O149  1  0.17919625  0.32080375  0.75000000  1
  O  O150  1  0.82080375  0.67919625  0.75000000  1
  O  O151  1  0.82080375  0.32080375  0.75000000  1
  O  O152  1  0.18840150  0.31443100  0.97392525  1
  O  O153  1  0.81443100  0.31159850  0.52607475  1
  O  O154  1  0.18556900  0.68840150  0.52607475  1
  O  O155  1  0.81159850  0.68556900  0.97392525  1
  O  O156  1  0.18556900  0.31159850  0.52607475  1
  O  O157  1  0.81443100  0.68840150  0.52607475  1
  O  O158  1  0.18840150  0.68556900  0.97392525  1
  O  O159  1  0.81159850  0.31443100  0.97392525  1
  O  O160  1  0.00000000  0.64307050  0.95033175  1
  O  O161  1  0.14307050  0.50000000  0.54966825  1
  O  O162  1  0.85692950  0.50000000  0.54966825  1
  O  O163  1  0.00000000  0.35692950  0.95033175  1
  O  O164  1  0.13447700  0.50000000  0.95615275  1
  O  O165  1  0.00000000  0.36552300  0.54384725  1
  O  O166  1  0.00000000  0.63447700  0.54384725  1
  O  O167  1  0.86552300  0.50000000  0.95615275  1
