# generated using pymatgen
data_K2In3AgSe6
_symmetry_space_group_name_H-M   'P 1'
_cell_length_a   11.85941600
_cell_length_b   11.88906800
_cell_length_c   21.92997684
_cell_angle_alpha   90.00000000
_cell_angle_beta   97.91220559
_cell_angle_gamma   90.00000000
_symmetry_Int_Tables_number   1
_chemical_formula_structural   K2In3AgSe6
_chemical_formula_sum   'K16 In24 Ag8 Se48'
_cell_volume   3062.63378277
_cell_formula_units_Z   8
loop_
 _symmetry_equiv_pos_site_id
 _symmetry_equiv_pos_as_xyz
  1  'x, y, z'
loop_
 _atom_site_type_symbol
 _atom_site_label
 _atom_site_symmetry_multiplicity
 _atom_site_fract_x
 _atom_site_fract_y
 _atom_site_fract_z
 _atom_site_occupancy
  K  K0  1  0.42904750  0.82182050  0.41770600  1
  K  K1  1  0.57095250  0.82182050  0.08229400  1
  K  K2  1  0.84385950  0.94824550  0.58237900  1
  K  K3  1  0.84385950  0.05175450  0.08237900  1
  K  K4  1  0.57095250  0.17817950  0.58229400  1
  K  K5  1  0.15614050  0.05175450  0.41762100  1
  K  K6  1  0.42904750  0.17817950  0.91770600  1
  K  K7  1  0.15614050  0.94824550  0.91762100  1
  K  K8  1  0.92904750  0.32182050  0.41770600  1
  K  K9  1  0.07095250  0.32182050  0.08229400  1
  K  K10  1  0.34385950  0.44824550  0.58237900  1
  K  K11  1  0.34385950  0.55175450  0.08237900  1
  K  K12  1  0.07095250  0.67817950  0.58229400  1
  K  K13  1  0.65614050  0.55175450  0.41762100  1
  K  K14  1  0.92904750  0.67817950  0.91770600  1
  K  K15  1  0.65614050  0.44824550  0.91762100  1
  In  In16  1  0.21461550  0.93717850  0.11313700  1
  In  In17  1  0.78538450  0.06282150  0.88686300  1
  In  In18  1  0.50000000  0.56794700  0.75000000  1
  In  In19  1  0.50000000  0.94041200  0.25000000  1
  In  In20  1  0.46528750  0.81370750  0.61248500  1
  In  In21  1  0.50000000  0.43205300  0.25000000  1
  In  In22  1  0.53471250  0.18629250  0.38751500  1
  In  In23  1  0.21461550  0.06282150  0.61313700  1
  In  In24  1  0.78538450  0.93717850  0.38686300  1
  In  In25  1  0.53471250  0.81370750  0.88751500  1
  In  In26  1  0.50000000  0.05958800  0.75000000  1
  In  In27  1  0.46528750  0.18629250  0.11248500  1
  In  In28  1  0.71461550  0.43717850  0.11313700  1
  In  In29  1  0.28538450  0.56282150  0.88686300  1
  In  In30  1  0.00000000  0.06794700  0.75000000  1
  In  In31  1  0.00000000  0.44041200  0.25000000  1
  In  In32  1  0.96528750  0.31370750  0.61248500  1
  In  In33  1  0.00000000  0.93205300  0.25000000  1
  In  In34  1  0.03471250  0.68629250  0.38751500  1
  In  In35  1  0.71461550  0.56282150  0.61313700  1
  In  In36  1  0.28538450  0.43717850  0.38686300  1
  In  In37  1  0.03471250  0.31370750  0.88751500  1
  In  In38  1  0.00000000  0.55958800  0.75000000  1
  In  In39  1  0.96528750  0.68629250  0.11248500  1
  Ag  Ag40  1  0.25339200  0.81321100  0.75012600  1
  Ag  Ag41  1  0.74660800  0.81321100  0.74987400  1
  Ag  Ag42  1  0.25339200  0.18678900  0.25012600  1
  Ag  Ag43  1  0.74660800  0.18678900  0.24987400  1
  Ag  Ag44  1  0.75339200  0.31321100  0.75012600  1
  Ag  Ag45  1  0.24660800  0.31321100  0.74987400  1
  Ag  Ag46  1  0.75339200  0.68678900  0.25012600  1
  Ag  Ag47  1  0.24660800  0.68678900  0.24987400  1
  Se  Se48  1  0.38573900  0.94774500  0.82458300  1
  Se  Se49  1  0.63491350  0.80540450  0.32338000  1
  Se  Se50  1  0.34792700  0.32047100  0.17527400  1
  Se  Se51  1  0.90305700  0.93164500  0.82294800  1
  Se  Se52  1  0.09694300  0.93164500  0.67705200  1
  Se  Se53  1  0.56262550  0.67897650  0.54013800  1
  Se  Se54  1  0.43737450  0.32102350  0.45986200  1
  Se  Se55  1  0.36508650  0.80540450  0.17662000  1
  Se  Se56  1  0.43737450  0.67897650  0.95986200  1
  Se  Se57  1  0.36508650  0.19459550  0.67662000  1
  Se  Se58  1  0.38573900  0.05225500  0.32458300  1
  Se  Se59  1  0.90305700  0.06835500  0.32294800  1
  Se  Se60  1  0.09694300  0.06835500  0.17705200  1
  Se  Se61  1  0.66960900  0.94742700  0.95999200  1
  Se  Se62  1  0.65207300  0.32047100  0.32472600  1
  Se  Se63  1  0.63491350  0.19459550  0.82338000  1
  Se  Se64  1  0.65207300  0.67952900  0.82472600  1
  Se  Se65  1  0.66960900  0.05257300  0.45999200  1
  Se  Se66  1  0.33039100  0.94742700  0.54000800  1
  Se  Se67  1  0.33039100  0.05257300  0.04000800  1
  Se  Se68  1  0.34792700  0.67952900  0.67527400  1
  Se  Se69  1  0.61426100  0.94774500  0.67541700  1
  Se  Se70  1  0.56262550  0.32102350  0.04013800  1
  Se  Se71  1  0.61426100  0.05225500  0.17541700  1
  Se  Se72  1  0.88573900  0.44774500  0.82458300  1
  Se  Se73  1  0.13491350  0.30540450  0.32338000  1
  Se  Se74  1  0.84792700  0.82047100  0.17527400  1
  Se  Se75  1  0.40305700  0.43164500  0.82294800  1
  Se  Se76  1  0.59694300  0.43164500  0.67705200  1
  Se  Se77  1  0.06262550  0.17897650  0.54013800  1
  Se  Se78  1  0.93737450  0.82102350  0.45986200  1
  Se  Se79  1  0.86508650  0.30540450  0.17662000  1
  Se  Se80  1  0.93737450  0.17897650  0.95986200  1
  Se  Se81  1  0.86508650  0.69459550  0.67662000  1
  Se  Se82  1  0.88573900  0.55225500  0.32458300  1
  Se  Se83  1  0.40305700  0.56835500  0.32294800  1
  Se  Se84  1  0.59694300  0.56835500  0.17705200  1
  Se  Se85  1  0.16960900  0.44742700  0.95999200  1
  Se  Se86  1  0.15207300  0.82047100  0.32472600  1
  Se  Se87  1  0.13491350  0.69459550  0.82338000  1
  Se  Se88  1  0.15207300  0.17952900  0.82472600  1
  Se  Se89  1  0.16960900  0.55257300  0.45999200  1
  Se  Se90  1  0.83039100  0.44742700  0.54000800  1
  Se  Se91  1  0.83039100  0.55257300  0.04000800  1
  Se  Se92  1  0.84792700  0.17952900  0.67527400  1
  Se  Se93  1  0.11426100  0.44774500  0.67541700  1
  Se  Se94  1  0.06262550  0.82102350  0.04013800  1
  Se  Se95  1  0.11426100  0.55225500  0.17541700  1
