# generated using pymatgen
data_TlHO
_symmetry_space_group_name_H-M   'P 1'
_cell_length_a   4.42490500
_cell_length_b   4.51040705
_cell_length_c   22.11868157
_cell_angle_alpha   91.10321642
_cell_angle_beta   90.14120691
_cell_angle_gamma   91.40707683
_symmetry_Int_Tables_number   1
_chemical_formula_structural   TlHO
_chemical_formula_sum   'Tl8 H8 O8'
_cell_volume   441.23053819
_cell_formula_units_Z   8
loop_
 _symmetry_equiv_pos_site_id
 _symmetry_equiv_pos_as_xyz
  1  'x, y, z'
loop_
 _atom_site_type_symbol
 _atom_site_label
 _atom_site_symmetry_multiplicity
 _atom_site_fract_x
 _atom_site_fract_y
 _atom_site_fract_z
 _atom_site_occupancy
  Tl  Tl0  1  0.63277500  0.92150500  0.93592000  1
  Tl  Tl1  1  0.03515300  0.35007600  0.05739800  1
  Tl  Tl2  1  0.07231500  0.33638400  0.55802000  1
  Tl  Tl3  1  0.65073300  0.90695200  0.43927700  1
  Tl  Tl4  1  0.16842700  0.95899000  0.80840800  1
  Tl  Tl5  1  0.06749500  0.85085100  0.18483900  1
  Tl  Tl6  1  0.57729900  0.34817100  0.68414900  1
  Tl  Tl7  1  0.65123600  0.42960800  0.31191800  1
  H  H8  1  0.03090600  0.87091000  0.66405600  1
  H  H9  1  0.18003700  0.23122100  0.26312000  1
  H  H10  1  0.69293500  0.72804700  0.76255900  1
  H  H11  1  0.53214600  0.37569500  0.16669000  1
  H  H12  1  0.27025300  0.80631600  0.51657900  1
  H  H13  1  0.14182000  0.46219900  0.41143600  1
  H  H14  1  0.08789000  0.46450600  0.91323600  1
  H  H15  1  0.27168900  0.82417500  0.01924200  1
  O  O16  1  0.92198400  0.91465100  0.70149100  1
  O  O17  1  0.08644200  0.11441500  0.29582000  1
  O  O18  1  0.58208600  0.61124200  0.79285700  1
  O  O19  1  0.40104100  0.40600500  0.20177000  1
  O  O20  1  0.39114400  0.89909200  0.54950100  1
  O  O21  1  0.14136800  0.57606400  0.44950100  1
  O  O22  1  0.10661500  0.59656000  0.94872400  1
  O  O23  1  0.39065800  0.94234700  0.04896500  1
