# generated using pymatgen
data_Ca2H2S2O9
_symmetry_space_group_name_H-M   'P 1'
_cell_length_a   17.57711600
_cell_length_b   7.04219400
_cell_length_c   12.20035724
_cell_angle_alpha   90.00000000
_cell_angle_beta   133.35535286
_cell_angle_gamma   90.00000000
_symmetry_Int_Tables_number   1
_chemical_formula_structural   Ca2H2S2O9
_chemical_formula_sum   'Ca12 H12 S12 O54'
_cell_volume   1098.06533905
_cell_formula_units_Z   6
loop_
 _symmetry_equiv_pos_site_id
 _symmetry_equiv_pos_as_xyz
  1  'x, y, z'
loop_
 _atom_site_type_symbol
 _atom_site_label
 _atom_site_symmetry_multiplicity
 _atom_site_fract_x
 _atom_site_fract_y
 _atom_site_fract_z
 _atom_site_occupancy
  Ca  Ca0  1  0.50000000  0.01604300  0.50000000  1
  Ca  Ca1  1  0.33712950  0.68054350  0.55625500  1
  Ca  Ca2  1  0.66287050  0.68054350  0.44374500  1
  Ca  Ca3  1  0.66437950  0.21717350  0.92550500  1
  Ca  Ca4  1  0.33562050  0.21717350  0.07449500  1
  Ca  Ca5  1  0.00000000  0.01573700  0.00000000  1
  Ca  Ca6  1  0.00000000  0.51604300  0.50000000  1
  Ca  Ca7  1  0.83712950  0.18054350  0.55625500  1
  Ca  Ca8  1  0.16287050  0.18054350  0.44374500  1
  Ca  Ca9  1  0.16437950  0.71717350  0.92550500  1
  Ca  Ca10  1  0.83562050  0.71717350  0.07449500  1
  Ca  Ca11  1  0.50000000  0.51573700  0.00000000  1
  H  H12  1  0.46340300  0.93477400  0.91248700  1
  H  H13  1  0.53659700  0.93477400  0.08751300  1
  H  H14  1  0.34667700  0.55953900  0.32600200  1
  H  H15  1  0.65332300  0.55953900  0.67399800  1
  H  H16  1  0.29822050  0.39234350  0.34344000  1
  H  H17  1  0.70177950  0.39234350  0.65656000  1
  H  H18  1  0.96340300  0.43477400  0.91248700  1
  H  H19  1  0.03659700  0.43477400  0.08751300  1
  H  H20  1  0.84667700  0.05953900  0.32600200  1
  H  H21  1  0.15332300  0.05953900  0.67399800  1
  H  H22  1  0.79822050  0.89234350  0.34344000  1
  H  H23  1  0.20177950  0.89234350  0.65656000  1
  S  S24  1  0.74864400  0.01788300  0.74807500  1
  S  S25  1  0.25135600  0.01788300  0.25192500  1
  S  S26  1  0.58122500  0.18413500  0.30587500  1
  S  S27  1  0.41877500  0.18413500  0.69412500  1
  S  S28  1  0.41321600  0.70433900  0.18798400  1
  S  S29  1  0.58678400  0.70433900  0.81201600  1
  S  S30  1  0.24864400  0.51788300  0.74807500  1
  S  S31  1  0.75135600  0.51788300  0.25192500  1
  S  S32  1  0.08122500  0.68413500  0.30587500  1
  S  S33  1  0.91877500  0.68413500  0.69412500  1
  S  S34  1  0.91321600  0.20433900  0.18798400  1
  S  S35  1  0.08678400  0.20433900  0.81201600  1
  O  O36  1  0.68460950  0.14324650  0.75718200  1
  O  O37  1  0.31539050  0.14324650  0.24281800  1
  O  O38  1  0.82001600  0.89444500  0.88456400  1
  O  O39  1  0.17998400  0.89444500  0.11543600  1
  O  O40  1  0.81512100  0.13410500  0.73969900  1
  O  O41  1  0.18487900  0.13410500  0.26030100  1
  O  O42  1  0.67190350  0.90258650  0.60936100  1
  O  O43  1  0.32809650  0.90258650  0.39063900  1
  O  O44  1  0.66490350  0.32950050  0.40389400  1
  O  O45  1  0.33509650  0.32950050  0.59610600  1
  O  O46  1  0.51163000  0.23273600  0.14272400  1
  O  O47  1  0.48837000  0.23273600  0.85727600  1
  O  O48  1  0.51194150  0.17733850  0.33624000  1
  O  O49  1  0.48805850  0.17733850  0.66376000  1
  O  O50  1  0.63396150  0.99977950  0.33766200  1
  O  O51  1  0.36603850  0.99977950  0.66233800  1
  O  O52  1  0.35149050  0.86663350  0.08318300  1
  O  O53  1  0.64850950  0.86663350  0.91681700  1
  O  O54  1  0.47412700  0.75899600  0.34695900  1
  O  O55  1  0.52587300  0.75899600  0.65304100  1
  O  O56  1  0.48919450  0.62785950  0.18228100  1
  O  O57  1  0.51080550  0.62785950  0.81771900  1
  O  O58  1  0.33447300  0.55268300  0.13864800  1
  O  O59  1  0.66552700  0.55268300  0.86135200  1
  O  O60  1  0.34041350  0.50632450  0.39352700  1
  O  O61  1  0.65958650  0.50632450  0.60647300  1
  O  O62  1  0.00000000  0.35229100  0.00000000  1
  O  O63  1  0.18460950  0.64324650  0.75718200  1
  O  O64  1  0.81539050  0.64324650  0.24281800  1
  O  O65  1  0.32001600  0.39444500  0.88456400  1
  O  O66  1  0.67998400  0.39444500  0.11543600  1
  O  O67  1  0.31512100  0.63410500  0.73969900  1
  O  O68  1  0.68487900  0.63410500  0.26030100  1
  O  O69  1  0.17190350  0.40258650  0.60936100  1
  O  O70  1  0.82809650  0.40258650  0.39063900  1
  O  O71  1  0.16490350  0.82950050  0.40389400  1
  O  O72  1  0.83509650  0.82950050  0.59610600  1
  O  O73  1  0.01163000  0.73273600  0.14272400  1
  O  O74  1  0.98837000  0.73273600  0.85727600  1
  O  O75  1  0.01194150  0.67733850  0.33624000  1
  O  O76  1  0.98805850  0.67733850  0.66376000  1
  O  O77  1  0.13396150  0.49977950  0.33766200  1
  O  O78  1  0.86603850  0.49977950  0.66233800  1
  O  O79  1  0.85149050  0.36663350  0.08318300  1
  O  O80  1  0.14850950  0.36663350  0.91681700  1
  O  O81  1  0.97412700  0.25899600  0.34695900  1
  O  O82  1  0.02587300  0.25899600  0.65304100  1
  O  O83  1  0.98919450  0.12785950  0.18228100  1
  O  O84  1  0.01080550  0.12785950  0.81771900  1
  O  O85  1  0.83447300  0.05268300  0.13864800  1
  O  O86  1  0.16552700  0.05268300  0.86135200  1
  O  O87  1  0.84041350  0.00632450  0.39352700  1
  O  O88  1  0.15958650  0.00632450  0.60647300  1
  O  O89  1  0.50000000  0.85229100  0.00000000  1
