# generated using pymatgen
data_LiGa(SiO3)2
_symmetry_space_group_name_H-M   'P 1'
_cell_length_a   9.73761000
_cell_length_b   8.71014800
_cell_length_c   5.34004554
_cell_angle_alpha   90.00000000
_cell_angle_beta   110.82025511
_cell_angle_gamma   90.00000000
_symmetry_Int_Tables_number   1
_chemical_formula_structural   LiGa(SiO3)2
_chemical_formula_sum   'Li4 Ga4 Si8 O24'
_cell_volume   423.34569938
_cell_formula_units_Z   4
loop_
 _symmetry_equiv_pos_site_id
 _symmetry_equiv_pos_as_xyz
  1  'x, y, z'
loop_
 _atom_site_type_symbol
 _atom_site_label
 _atom_site_symmetry_multiplicity
 _atom_site_fract_x
 _atom_site_fract_y
 _atom_site_fract_z
 _atom_site_occupancy
  Li  Li0  1  0.00000000  0.25847900  0.25000000  1
  Li  Li1  1  0.00000000  0.74152100  0.75000000  1
  Li  Li2  1  0.50000000  0.75847900  0.25000000  1
  Li  Li3  1  0.50000000  0.24152100  0.75000000  1
  Ga  Ga4  1  0.00000000  0.89855600  0.25000000  1
  Ga  Ga5  1  0.00000000  0.10144400  0.75000000  1
  Ga  Ga6  1  0.50000000  0.39855600  0.25000000  1
  Ga  Ga7  1  0.50000000  0.60144400  0.75000000  1
  Si  Si8  1  0.20348650  0.59061350  0.23762800  1
  Si  Si9  1  0.79651350  0.40938650  0.76237200  1
  Si  Si10  1  0.20348650  0.40938650  0.73762800  1
  Si  Si11  1  0.79651350  0.59061350  0.26237200  1
  Si  Si12  1  0.70348650  0.09061350  0.23762800  1
  Si  Si13  1  0.29651350  0.90938650  0.76237200  1
  Si  Si14  1  0.70348650  0.90938650  0.73762800  1
  Si  Si15  1  0.29651350  0.09061350  0.26237200  1
  O  O16  1  0.85535000  0.49952900  0.05140600  1
  O  O17  1  0.85535000  0.50047100  0.55140600  1
  O  O18  1  0.14465000  0.50047100  0.94859400  1
  O  O19  1  0.14465000  0.49952900  0.44859400  1
  O  O20  1  0.38606300  0.41563900  0.85596800  1
  O  O21  1  0.86750850  0.24024650  0.82851100  1
  O  O22  1  0.61393700  0.58436100  0.14403200  1
  O  O23  1  0.38606300  0.58436100  0.35596800  1
  O  O24  1  0.61393700  0.41563900  0.64403200  1
  O  O25  1  0.13249150  0.75975350  0.17148900  1
  O  O26  1  0.86750850  0.75975350  0.32851100  1
  O  O27  1  0.13249150  0.24024650  0.67148900  1
  O  O28  1  0.35535000  0.99952900  0.05140600  1
  O  O29  1  0.35535000  0.00047100  0.55140600  1
  O  O30  1  0.64465000  0.00047100  0.94859400  1
  O  O31  1  0.64465000  0.99952900  0.44859400  1
  O  O32  1  0.88606300  0.91563900  0.85596800  1
  O  O33  1  0.36750850  0.74024650  0.82851100  1
  O  O34  1  0.11393700  0.08436100  0.14403200  1
  O  O35  1  0.88606300  0.08436100  0.35596800  1
  O  O36  1  0.11393700  0.91563900  0.64403200  1
  O  O37  1  0.63249150  0.25975350  0.17148900  1
  O  O38  1  0.36750850  0.25975350  0.32851100  1
  O  O39  1  0.63249150  0.74024650  0.67148900  1
