# generated using pymatgen
data_KBiH10C4O13
_symmetry_space_group_name_H-M   'P 1'
_cell_length_a   8.72684400
_cell_length_b   16.18590800
_cell_length_c   17.66838200
_cell_angle_alpha   90.00000000
_cell_angle_beta   90.00000000
_cell_angle_gamma   90.00000000
_symmetry_Int_Tables_number   1
_chemical_formula_structural   KBiH10C4O13
_chemical_formula_sum   'K8 Bi8 H80 C32 O104'
_cell_volume   2495.69242344
_cell_formula_units_Z   8
loop_
 _symmetry_equiv_pos_site_id
 _symmetry_equiv_pos_as_xyz
  1  'x, y, z'
loop_
 _atom_site_type_symbol
 _atom_site_label
 _atom_site_symmetry_multiplicity
 _atom_site_fract_x
 _atom_site_fract_y
 _atom_site_fract_z
 _atom_site_occupancy
  K  K0  1  0.75000000  0.84466500  0.75000000  1
  K  K1  1  0.00000000  0.59466500  0.00000000  1
  K  K2  1  0.75000000  0.34466500  0.25000000  1
  K  K3  1  0.00000000  0.09466500  0.50000000  1
  K  K4  1  0.25000000  0.34466500  0.75000000  1
  K  K5  1  0.50000000  0.09466500  0.00000000  1
  K  K6  1  0.25000000  0.84466500  0.25000000  1
  K  K7  1  0.50000000  0.59466500  0.50000000  1
  Bi  Bi8  1  0.25000000  0.84396000  0.75000000  1
  Bi  Bi9  1  0.50000000  0.59396000  0.00000000  1
  Bi  Bi10  1  0.25000000  0.34396000  0.25000000  1
  Bi  Bi11  1  0.50000000  0.09396000  0.50000000  1
  Bi  Bi12  1  0.75000000  0.34396000  0.75000000  1
  Bi  Bi13  1  0.00000000  0.09396000  0.00000000  1
  Bi  Bi14  1  0.75000000  0.84396000  0.25000000  1
  Bi  Bi15  1  0.00000000  0.59396000  0.50000000  1
  H  H16  1  0.34093900  0.55282500  0.75396500  1
  H  H17  1  0.65906100  0.55282500  0.24603500  1
  H  H18  1  0.90906100  0.80282500  0.00396500  1
  H  H19  1  0.09093900  0.80282500  0.99603500  1
  H  H20  1  0.79481050  0.69912800  0.87081350  1
  H  H21  1  0.20518950  0.69912800  0.12918650  1
  H  H22  1  0.45518950  0.94912800  0.12081350  1
  H  H23  1  0.54481050  0.94912800  0.87918650  1
  H  H24  1  0.96794300  0.72720850  0.85868550  1
  H  H25  1  0.03205700  0.72720850  0.14131450  1
  H  H26  1  0.28205700  0.97720850  0.10868550  1
  H  H27  1  0.71794300  0.97720850  0.89131450  1
  H  H28  1  0.67478850  0.89055650  0.98481000  1
  H  H29  1  0.32521150  0.89055650  0.01519000  1
  H  H30  1  0.07521150  0.64055650  0.23481000  1
  H  H31  1  0.92478850  0.64055650  0.76519000  1
  H  H32  1  0.66567250  0.79665950  0.97599900  1
  H  H33  1  0.33432750  0.79665950  0.02400100  1
  H  H34  1  0.08432750  0.54665950  0.22599900  1
  H  H35  1  0.91567250  0.54665950  0.77400100  1
  H  H36  1  0.34093900  0.05282500  0.25396500  1
  H  H37  1  0.65906100  0.05282500  0.74603500  1
  H  H38  1  0.90906100  0.30282500  0.50396500  1
  H  H39  1  0.09093900  0.30282500  0.49603500  1
  H  H40  1  0.79481050  0.19912800  0.37081350  1
  H  H41  1  0.20518950  0.19912800  0.62918650  1
  H  H42  1  0.45518950  0.44912800  0.62081350  1
  H  H43  1  0.54481050  0.44912800  0.37918650  1
  H  H44  1  0.96794300  0.22720850  0.35868550  1
  H  H45  1  0.03205700  0.22720850  0.64131450  1
  H  H46  1  0.28205700  0.47720850  0.60868550  1
  H  H47  1  0.71794300  0.47720850  0.39131450  1
  H  H48  1  0.67478850  0.39055650  0.48481000  1
  H  H49  1  0.32521150  0.39055650  0.51519000  1
  H  H50  1  0.07521150  0.14055650  0.73481000  1
  H  H51  1  0.92478850  0.14055650  0.26519000  1
  H  H52  1  0.66567250  0.29665950  0.47599900  1
  H  H53  1  0.33432750  0.29665950  0.52400100  1
  H  H54  1  0.08432750  0.04665950  0.72599900  1
  H  H55  1  0.91567250  0.04665950  0.27400100  1
  H  H56  1  0.84093900  0.05282500  0.75396500  1
  H  H57  1  0.15906100  0.05282500  0.24603500  1
  H  H58  1  0.40906100  0.30282500  0.00396500  1
  H  H59  1  0.59093900  0.30282500  0.99603500  1
  H  H60  1  0.29481050  0.19912800  0.87081350  1
  H  H61  1  0.70518950  0.19912800  0.12918650  1
  H  H62  1  0.95518950  0.44912800  0.12081350  1
  H  H63  1  0.04481050  0.44912800  0.87918650  1
  H  H64  1  0.46794300  0.22720850  0.85868550  1
  H  H65  1  0.53205700  0.22720850  0.14131450  1
  H  H66  1  0.78205700  0.47720850  0.10868550  1
  H  H67  1  0.21794300  0.47720850  0.89131450  1
  H  H68  1  0.17478850  0.39055650  0.98481000  1
  H  H69  1  0.82521150  0.39055650  0.01519000  1
  H  H70  1  0.57521150  0.14055650  0.23481000  1
  H  H71  1  0.42478850  0.14055650  0.76519000  1
  H  H72  1  0.16567250  0.29665950  0.97599900  1
  H  H73  1  0.83432750  0.29665950  0.02400100  1
  H  H74  1  0.58432750  0.04665950  0.22599900  1
  H  H75  1  0.41567250  0.04665950  0.77400100  1
  H  H76  1  0.84093900  0.55282500  0.25396500  1
  H  H77  1  0.15906100  0.55282500  0.74603500  1
  H  H78  1  0.40906100  0.80282500  0.50396500  1
  H  H79  1  0.59093900  0.80282500  0.49603500  1
  H  H80  1  0.29481050  0.69912800  0.37081350  1
  H  H81  1  0.70518950  0.69912800  0.62918650  1
  H  H82  1  0.95518950  0.94912800  0.62081350  1
  H  H83  1  0.04481050  0.94912800  0.37918650  1
  H  H84  1  0.46794300  0.72720850  0.35868550  1
  H  H85  1  0.53205700  0.72720850  0.64131450  1
  H  H86  1  0.78205700  0.97720850  0.60868550  1
  H  H87  1  0.21794300  0.97720850  0.39131450  1
  H  H88  1  0.17478850  0.89055650  0.48481000  1
  H  H89  1  0.82521150  0.89055650  0.51519000  1
  H  H90  1  0.57521150  0.64055650  0.73481000  1
  H  H91  1  0.42478850  0.64055650  0.26519000  1
  H  H92  1  0.16567250  0.79665950  0.47599900  1
  H  H93  1  0.83432750  0.79665950  0.52400100  1
  H  H94  1  0.58432750  0.54665950  0.72599900  1
  H  H95  1  0.41567250  0.54665950  0.27400100  1
  C  C96  1  0.29479850  0.70308850  0.88166500  1
  C  C97  1  0.70520150  0.70308850  0.11833500  1
  C  C98  1  0.95520150  0.95308850  0.13166500  1
  C  C99  1  0.04479850  0.95308850  0.86833500  1
  C  C100  1  0.45756550  0.74018050  0.87184000  1
  C  C101  1  0.54243450  0.74018050  0.12816000  1
  C  C102  1  0.79243450  0.99018050  0.12184000  1
  C  C103  1  0.20756550  0.99018050  0.87816000  1
  C  C104  1  0.29479850  0.20308850  0.38166500  1
  C  C105  1  0.70520150  0.20308850  0.61833500  1
  C  C106  1  0.95520150  0.45308850  0.63166500  1
  C  C107  1  0.04479850  0.45308850  0.36833500  1
  C  C108  1  0.45756550  0.24018050  0.37184000  1
  C  C109  1  0.54243450  0.24018050  0.62816000  1
  C  C110  1  0.79243450  0.49018050  0.62184000  1
  C  C111  1  0.20756550  0.49018050  0.37816000  1
  C  C112  1  0.79479850  0.20308850  0.88166500  1
  C  C113  1  0.20520150  0.20308850  0.11833500  1
  C  C114  1  0.45520150  0.45308850  0.13166500  1
  C  C115  1  0.54479850  0.45308850  0.86833500  1
  C  C116  1  0.95756550  0.24018050  0.87184000  1
  C  C117  1  0.04243450  0.24018050  0.12816000  1
  C  C118  1  0.29243450  0.49018050  0.12184000  1
  C  C119  1  0.70756550  0.49018050  0.87816000  1
  C  C120  1  0.79479850  0.70308850  0.38166500  1
  C  C121  1  0.20520150  0.70308850  0.61833500  1
  C  C122  1  0.45520150  0.95308850  0.63166500  1
  C  C123  1  0.54479850  0.95308850  0.36833500  1
  C  C124  1  0.95756550  0.74018050  0.37184000  1
  C  C125  1  0.04243450  0.74018050  0.62816000  1
  C  C126  1  0.29243450  0.99018050  0.62184000  1
  C  C127  1  0.70756550  0.99018050  0.37816000  1
  O  O128  1  0.47623400  0.79526200  0.82162400  1
  O  O129  1  0.52376600  0.79526200  0.17837600  1
  O  O130  1  0.27376600  0.54526200  0.07162400  1
  O  O131  1  0.72623400  0.54526200  0.92837600  1
  O  O132  1  0.18999400  0.73066750  0.83878150  1
  O  O133  1  0.81000600  0.73066750  0.16121850  1
  O  O134  1  0.06000600  0.98066750  0.08878150  1
  O  O135  1  0.93999400  0.98066750  0.91121850  1
  O  O136  1  0.56349750  0.71331850  0.91489800  1
  O  O137  1  0.43650250  0.71331850  0.08510200  1
  O  O138  1  0.68650250  0.96331850  0.16489800  1
  O  O139  1  0.31349750  0.96331850  0.83510200  1
  O  O140  1  0.27545250  0.64834650  0.93195700  1
  O  O141  1  0.72454750  0.64834650  0.06804300  1
  O  O142  1  0.97454750  0.89834650  0.18195700  1
  O  O143  1  0.02545250  0.89834650  0.81804300  1
  O  O144  1  0.25000000  0.51661800  0.75000000  1
  O  O145  1  0.00000000  0.76661800  0.00000000  1
  O  O146  1  0.87103500  0.71398250  0.83266850  1
  O  O147  1  0.12896500  0.71398250  0.16733150  1
  O  O148  1  0.37896500  0.96398250  0.08266850  1
  O  O149  1  0.62103500  0.96398250  0.91733150  1
  O  O150  1  0.70616050  0.83868900  0.01078050  1
  O  O151  1  0.29383950  0.83868900  0.98921950  1
  O  O152  1  0.54383950  0.58868900  0.76078050  1
  O  O153  1  0.45616050  0.58868900  0.23921950  1
  O  O154  1  0.47623400  0.29526200  0.32162400  1
  O  O155  1  0.52376600  0.29526200  0.67837600  1
  O  O156  1  0.27376600  0.04526200  0.57162400  1
  O  O157  1  0.72623400  0.04526200  0.42837600  1
  O  O158  1  0.18999400  0.23066750  0.33878150  1
  O  O159  1  0.81000600  0.23066750  0.66121850  1
  O  O160  1  0.06000600  0.48066750  0.58878150  1
  O  O161  1  0.93999400  0.48066750  0.41121850  1
  O  O162  1  0.56349750  0.21331850  0.41489800  1
  O  O163  1  0.43650250  0.21331850  0.58510200  1
  O  O164  1  0.68650250  0.46331850  0.66489800  1
  O  O165  1  0.31349750  0.46331850  0.33510200  1
  O  O166  1  0.27545250  0.14834650  0.43195700  1
  O  O167  1  0.72454750  0.14834650  0.56804300  1
  O  O168  1  0.97454750  0.39834650  0.68195700  1
  O  O169  1  0.02545250  0.39834650  0.31804300  1
  O  O170  1  0.25000000  0.01661800  0.25000000  1
  O  O171  1  0.00000000  0.26661800  0.50000000  1
  O  O172  1  0.87103500  0.21398250  0.33266850  1
  O  O173  1  0.12896500  0.21398250  0.66733150  1
  O  O174  1  0.37896500  0.46398250  0.58266850  1
  O  O175  1  0.62103500  0.46398250  0.41733150  1
  O  O176  1  0.70616050  0.33868900  0.51078050  1
  O  O177  1  0.29383950  0.33868900  0.48921950  1
  O  O178  1  0.54383950  0.08868900  0.26078050  1
  O  O179  1  0.45616050  0.08868900  0.73921950  1
  O  O180  1  0.97623400  0.29526200  0.82162400  1
  O  O181  1  0.02376600  0.29526200  0.17837600  1
  O  O182  1  0.77376600  0.04526200  0.07162400  1
  O  O183  1  0.22623400  0.04526200  0.92837600  1
  O  O184  1  0.68999400  0.23066750  0.83878150  1
  O  O185  1  0.31000600  0.23066750  0.16121850  1
  O  O186  1  0.56000600  0.48066750  0.08878150  1
  O  O187  1  0.43999400  0.48066750  0.91121850  1
  O  O188  1  0.06349750  0.21331850  0.91489800  1
  O  O189  1  0.93650250  0.21331850  0.08510200  1
  O  O190  1  0.18650250  0.46331850  0.16489800  1
  O  O191  1  0.81349750  0.46331850  0.83510200  1
  O  O192  1  0.77545250  0.14834650  0.93195700  1
  O  O193  1  0.22454750  0.14834650  0.06804300  1
  O  O194  1  0.47454750  0.39834650  0.18195700  1
  O  O195  1  0.52545250  0.39834650  0.81804300  1
  O  O196  1  0.75000000  0.01661800  0.75000000  1
  O  O197  1  0.50000000  0.26661800  0.00000000  1
  O  O198  1  0.37103500  0.21398250  0.83266850  1
  O  O199  1  0.62896500  0.21398250  0.16733150  1
  O  O200  1  0.87896500  0.46398250  0.08266850  1
  O  O201  1  0.12103500  0.46398250  0.91733150  1
  O  O202  1  0.20616050  0.33868900  0.01078050  1
  O  O203  1  0.79383950  0.33868900  0.98921950  1
  O  O204  1  0.04383950  0.08868900  0.76078050  1
  O  O205  1  0.95616050  0.08868900  0.23921950  1
  O  O206  1  0.97623400  0.79526200  0.32162400  1
  O  O207  1  0.02376600  0.79526200  0.67837600  1
  O  O208  1  0.77376600  0.54526200  0.57162400  1
  O  O209  1  0.22623400  0.54526200  0.42837600  1
  O  O210  1  0.68999400  0.73066750  0.33878150  1
  O  O211  1  0.31000600  0.73066750  0.66121850  1
  O  O212  1  0.56000600  0.98066750  0.58878150  1
  O  O213  1  0.43999400  0.98066750  0.41121850  1
  O  O214  1  0.06349750  0.71331850  0.41489800  1
  O  O215  1  0.93650250  0.71331850  0.58510200  1
  O  O216  1  0.18650250  0.96331850  0.66489800  1
  O  O217  1  0.81349750  0.96331850  0.33510200  1
  O  O218  1  0.77545250  0.64834650  0.43195700  1
  O  O219  1  0.22454750  0.64834650  0.56804300  1
  O  O220  1  0.47454750  0.89834650  0.68195700  1
  O  O221  1  0.52545250  0.89834650  0.31804300  1
  O  O222  1  0.75000000  0.51661800  0.25000000  1
  O  O223  1  0.50000000  0.76661800  0.50000000  1
  O  O224  1  0.37103500  0.71398250  0.33266850  1
  O  O225  1  0.62896500  0.71398250  0.66733150  1
  O  O226  1  0.87896500  0.96398250  0.58266850  1
  O  O227  1  0.12103500  0.96398250  0.41733150  1
  O  O228  1  0.20616050  0.83868900  0.51078050  1
  O  O229  1  0.79383950  0.83868900  0.48921950  1
  O  O230  1  0.04383950  0.58868900  0.26078050  1
  O  O231  1  0.95616050  0.58868900  0.73921950  1
