# generated using pymatgen
data_SiO2
_symmetry_space_group_name_H-M   'P 1'
_cell_length_a   20.32001400
_cell_length_b   20.32001400
_cell_length_c   13.65109600
_cell_angle_alpha   90.00000000
_cell_angle_beta   90.00000000
_cell_angle_gamma   90.00000000
_symmetry_Int_Tables_number   1
_chemical_formula_structural   SiO2
_chemical_formula_sum   'Si96 O192'
_cell_volume   5636.57806796
_cell_formula_units_Z   96
loop_
 _symmetry_equiv_pos_site_id
 _symmetry_equiv_pos_as_xyz
  1  'x, y, z'
loop_
 _atom_site_type_symbol
 _atom_site_label
 _atom_site_symmetry_multiplicity
 _atom_site_fract_x
 _atom_site_fract_y
 _atom_site_fract_z
 _atom_site_occupancy
  Si  Si0  1  0.57745525  0.57745525  0.50000000  1
  Si  Si1  1  0.19465850  0.71847200  0.86402275  1
  Si  Si2  1  0.80534150  0.28152800  0.86402275  1
  Si  Si3  1  0.92293350  0.62109000  0.35708875  1
  Si  Si4  1  0.78152800  0.30534150  0.63597725  1
  Si  Si5  1  0.27557500  0.57854750  0.14738725  1
  Si  Si6  1  0.07706650  0.62109000  0.35708875  1
  Si  Si7  1  0.21847200  0.69465850  0.63597725  1
  Si  Si8  1  0.92145250  0.22442500  0.35261275  1
  Si  Si9  1  0.92254475  0.07745525  0.00000000  1
  Si  Si10  1  0.81006600  0.57473450  0.49755025  1
  Si  Si11  1  0.07473450  0.68993400  0.00244975  1
  Si  Si12  1  0.12109000  0.57706650  0.14291125  1
  Si  Si13  1  0.87891000  0.42293350  0.14291125  1
  Si  Si14  1  0.07854750  0.22442500  0.35261275  1
  Si  Si15  1  0.92293350  0.37891000  0.35708875  1
  Si  Si16  1  0.92526550  0.68993400  0.00244975  1
  Si  Si17  1  0.78152800  0.69465850  0.63597725  1
  Si  Si18  1  0.81678775  0.18321225  0.50000000  1
  Si  Si19  1  0.27557500  0.42145250  0.14738725  1
  Si  Si20  1  0.57745525  0.42254475  0.50000000  1
  Si  Si21  1  0.81678775  0.81678775  0.50000000  1
  Si  Si22  1  0.92254475  0.92254475  0.00000000  1
  Si  Si23  1  0.12346500  0.80977750  0.13665025  1
  Si  Si24  1  0.18993400  0.57473450  0.49755025  1
  Si  Si25  1  0.68321225  0.68321225  0.00000000  1
  Si  Si26  1  0.07473450  0.31006600  0.00244975  1
  Si  Si27  1  0.30977750  0.37653500  0.36334975  1
  Si  Si28  1  0.12109000  0.42293350  0.14291125  1
  Si  Si29  1  0.72442500  0.42145250  0.14738725  1
  Si  Si30  1  0.87891000  0.57706650  0.14291125  1
  Si  Si31  1  0.92145250  0.77557500  0.35261275  1
  Si  Si32  1  0.30977750  0.62346500  0.36334975  1
  Si  Si33  1  0.18993400  0.42526550  0.49755025  1
  Si  Si34  1  0.92526550  0.31006600  0.00244975  1
  Si  Si35  1  0.12346500  0.19022250  0.13665025  1
  Si  Si36  1  0.68321225  0.31678775  0.00000000  1
  Si  Si37  1  0.87653500  0.80977750  0.13665025  1
  Si  Si38  1  0.19465850  0.28152800  0.86402275  1
  Si  Si39  1  0.69022250  0.37653500  0.36334975  1
  Si  Si40  1  0.81006600  0.42526550  0.49755025  1
  Si  Si41  1  0.21847200  0.30534150  0.63597725  1
  Si  Si42  1  0.07854750  0.77557500  0.35261275  1
  Si  Si43  1  0.87653500  0.19022250  0.13665025  1
  Si  Si44  1  0.80534150  0.71847200  0.86402275  1
  Si  Si45  1  0.72442500  0.57854750  0.14738725  1
  Si  Si46  1  0.69022250  0.62346500  0.36334975  1
  Si  Si47  1  0.07706650  0.37891000  0.35708875  1
  Si  Si48  1  0.07745525  0.07745525  0.00000000  1
  Si  Si49  1  0.69465850  0.21847200  0.36402275  1
  Si  Si50  1  0.30534150  0.78152800  0.36402275  1
  Si  Si51  1  0.42293350  0.12109000  0.85708875  1
  Si  Si52  1  0.28152800  0.80534150  0.13597725  1
  Si  Si53  1  0.77557500  0.07854750  0.64738725  1
  Si  Si54  1  0.57706650  0.12109000  0.85708875  1
  Si  Si55  1  0.71847200  0.19465850  0.13597725  1
  Si  Si56  1  0.42145250  0.72442500  0.85261275  1
  Si  Si57  1  0.42254475  0.57745525  0.50000000  1
  Si  Si58  1  0.31006600  0.07473450  0.99755025  1
  Si  Si59  1  0.57473450  0.18993400  0.50244975  1
  Si  Si60  1  0.62109000  0.07706650  0.64291125  1
  Si  Si61  1  0.37891000  0.92293350  0.64291125  1
  Si  Si62  1  0.57854750  0.72442500  0.85261275  1
  Si  Si63  1  0.42293350  0.87891000  0.85708875  1
  Si  Si64  1  0.42526550  0.18993400  0.50244975  1
  Si  Si65  1  0.28152800  0.19465850  0.13597725  1
  Si  Si66  1  0.31678775  0.68321225  0.00000000  1
  Si  Si67  1  0.77557500  0.92145250  0.64738725  1
  Si  Si68  1  0.07745525  0.92254475  0.00000000  1
  Si  Si69  1  0.31678775  0.31678775  0.00000000  1
  Si  Si70  1  0.42254475  0.42254475  0.50000000  1
  Si  Si71  1  0.62346500  0.30977750  0.63665025  1
  Si  Si72  1  0.68993400  0.07473450  0.99755025  1
  Si  Si73  1  0.18321225  0.18321225  0.50000000  1
  Si  Si74  1  0.57473450  0.81006600  0.50244975  1
  Si  Si75  1  0.80977750  0.87653500  0.86334975  1
  Si  Si76  1  0.62109000  0.92293350  0.64291125  1
  Si  Si77  1  0.22442500  0.92145250  0.64738725  1
  Si  Si78  1  0.37891000  0.07706650  0.64291125  1
  Si  Si79  1  0.42145250  0.27557500  0.85261275  1
  Si  Si80  1  0.80977750  0.12346500  0.86334975  1
  Si  Si81  1  0.68993400  0.92526550  0.99755025  1
  Si  Si82  1  0.42526550  0.81006600  0.50244975  1
  Si  Si83  1  0.62346500  0.69022250  0.63665025  1
  Si  Si84  1  0.18321225  0.81678775  0.50000000  1
  Si  Si85  1  0.37653500  0.30977750  0.63665025  1
  Si  Si86  1  0.69465850  0.78152800  0.36402275  1
  Si  Si87  1  0.19022250  0.87653500  0.86334975  1
  Si  Si88  1  0.31006600  0.92526550  0.99755025  1
  Si  Si89  1  0.71847200  0.80534150  0.13597725  1
  Si  Si90  1  0.57854750  0.27557500  0.85261275  1
  Si  Si91  1  0.37653500  0.69022250  0.63665025  1
  Si  Si92  1  0.30534150  0.21847200  0.36402275  1
  Si  Si93  1  0.22442500  0.07854750  0.64738725  1
  Si  Si94  1  0.19022250  0.12346500  0.86334975  1
  Si  Si95  1  0.57706650  0.87891000  0.85708875  1
  O  O96  1  0.25656800  0.31392450  0.92162325  1
  O  O97  1  0.00000000  0.09076900  0.97873475  1
  O  O98  1  0.91674700  0.62095250  0.06150225  1
  O  O99  1  0.61830650  0.39806400  0.40433975  1
  O  O100  1  0.80703050  0.62574400  0.58894575  1
  O  O101  1  0.29785200  0.29941050  0.62555625  1
  O  O102  1  0.00000000  0.61413400  0.38698275  1
  O  O103  1  0.80189300  0.40067650  0.14565225  1
  O  O104  1  0.91173225  0.41173225  0.25000000  1
  O  O105  1  0.89806400  0.88169350  0.09566025  1
  O  O106  1  0.80380025  0.30380025  0.75000000  1
  O  O107  1  0.08616800  0.24845550  0.07696325  1
  O  O108  1  0.88671900  0.18608650  0.44287625  1
  O  O109  1  0.38169350  0.39806400  0.40433975  1
  O  O110  1  0.18607550  0.24343200  0.57837675  1
  O  O111  1  0.74845550  0.41383200  0.42303675  1
  O  O112  1  0.87425600  0.30703050  0.91105425  1
  O  O113  1  0.29785200  0.70058950  0.62555625  1
  O  O114  1  0.25656800  0.68607550  0.92162325  1
  O  O115  1  0.00000000  0.30652500  0.95984475  1
  O  O116  1  0.11328100  0.18608650  0.44287625  1
  O  O117  1  0.87904750  0.58325300  0.43849775  1
  O  O118  1  0.38169350  0.60193600  0.40433975  1
  O  O119  1  0.91674700  0.37904750  0.06150225  1
  O  O120  1  0.69209250  0.39672900  0.24915075  1
  O  O121  1  0.08826775  0.41173225  0.25000000  1
  O  O122  1  0.80652500  0.50000000  0.54015525  1
  O  O123  1  0.20058950  0.20214800  0.87444375  1
  O  O124  1  0.10193600  0.11830650  0.09566025  1
  O  O125  1  0.08826775  0.58826775  0.25000000  1
  O  O126  1  0.69209250  0.60327100  0.24915075  1
  O  O127  1  0.19810700  0.40067650  0.14565225  1
  O  O128  1  0.11328100  0.81391350  0.44287625  1
  O  O129  1  0.71602500  0.50000000  0.13662325  1
  O  O130  1  0.91383200  0.24845550  0.07696325  1
  O  O131  1  0.00000000  0.90923100  0.97873475  1
  O  O132  1  0.31391350  0.61328100  0.05712375  1
  O  O133  1  0.00000000  0.21602500  0.36337675  1
  O  O134  1  0.19296950  0.62574400  0.58894575  1
  O  O135  1  0.61830650  0.60193600  0.40433975  1
  O  O136  1  0.18607550  0.75656800  0.57837675  1
  O  O137  1  0.87425600  0.69296950  0.91105425  1
  O  O138  1  0.09932350  0.69810700  0.35434775  1
  O  O139  1  0.19810700  0.59932350  0.14565225  1
  O  O140  1  0.68608650  0.61328100  0.05712375  1
  O  O141  1  0.79941050  0.20214800  0.87444375  1
  O  O142  1  0.00000000  0.38586600  0.38698275  1
  O  O143  1  0.80189300  0.59932350  0.14565225  1
  O  O144  1  0.59076900  0.50000000  0.52126525  1
  O  O145  1  0.09932350  0.30189300  0.35434775  1
  O  O146  1  0.31391350  0.38671900  0.05712375  1
  O  O147  1  0.12574400  0.69296950  0.91105425  1
  O  O148  1  0.91383200  0.75154450  0.07696325  1
  O  O149  1  0.11413400  0.50000000  0.11301725  1
  O  O150  1  0.89672900  0.80790750  0.25084925  1
  O  O151  1  0.30790750  0.60327100  0.24915075  1
  O  O152  1  0.10327100  0.19209250  0.25084925  1
  O  O153  1  0.70214800  0.70058950  0.62555625  1
  O  O154  1  0.80703050  0.37425600  0.58894575  1
  O  O155  1  0.19619975  0.69619975  0.75000000  1
  O  O156  1  0.10193600  0.88169350  0.09566025  1
  O  O157  1  0.74845550  0.58616800  0.42303675  1
  O  O158  1  0.89672900  0.19209250  0.25084925  1
  O  O159  1  0.89806400  0.11830650  0.09566025  1
  O  O160  1  0.00000000  0.69347500  0.95984475  1
  O  O161  1  0.79941050  0.79785200  0.87444375  1
  O  O162  1  0.10327100  0.80790750  0.25084925  1
  O  O163  1  0.25154450  0.41383200  0.42303675  1
  O  O164  1  0.87904750  0.41674700  0.43849775  1
  O  O165  1  0.12095250  0.41674700  0.43849775  1
  O  O166  1  0.25154450  0.58616800  0.42303675  1
  O  O167  1  0.74343200  0.31392450  0.92162325  1
  O  O168  1  0.20058950  0.79785200  0.87444375  1
  O  O169  1  0.19296950  0.37425600  0.58894575  1
  O  O170  1  0.19619975  0.30380025  0.75000000  1
  O  O171  1  0.90067650  0.30189300  0.35434775  1
  O  O172  1  0.28397500  0.50000000  0.13662325  1
  O  O173  1  0.68608650  0.38671900  0.05712375  1
  O  O174  1  0.90067650  0.69810700  0.35434775  1
  O  O175  1  0.91173225  0.58826775  0.25000000  1
  O  O176  1  0.12574400  0.30703050  0.91105425  1
  O  O177  1  0.19347500  0.50000000  0.54015525  1
  O  O178  1  0.70214800  0.29941050  0.62555625  1
  O  O179  1  0.88671900  0.81391350  0.44287625  1
  O  O180  1  0.81392450  0.75656800  0.57837675  1
  O  O181  1  0.81392450  0.24343200  0.57837675  1
  O  O182  1  0.08325300  0.37904750  0.06150225  1
  O  O183  1  0.12095250  0.58325300  0.43849775  1
  O  O184  1  0.08325300  0.62095250  0.06150225  1
  O  O185  1  0.00000000  0.78397500  0.36337675  1
  O  O186  1  0.30790750  0.39672900  0.24915075  1
  O  O187  1  0.88586600  0.50000000  0.11301725  1
  O  O188  1  0.74343200  0.68607550  0.92162325  1
  O  O189  1  0.80380025  0.69619975  0.75000000  1
  O  O190  1  0.08616800  0.75154450  0.07696325  1
  O  O191  1  0.40923100  0.50000000  0.52126525  1
  O  O192  1  0.75656800  0.81392450  0.42162325  1
  O  O193  1  0.50000000  0.59076900  0.47873475  1
  O  O194  1  0.41674700  0.12095250  0.56150225  1
  O  O195  1  0.11830650  0.89806400  0.90433975  1
  O  O196  1  0.30703050  0.12574400  0.08894575  1
  O  O197  1  0.79785200  0.79941050  0.12555625  1
  O  O198  1  0.50000000  0.11413400  0.88698275  1
  O  O199  1  0.30189300  0.90067650  0.64565225  1
  O  O200  1  0.41173225  0.91173225  0.75000000  1
  O  O201  1  0.39806400  0.38169350  0.59566025  1
  O  O202  1  0.30380025  0.80380025  0.25000000  1
  O  O203  1  0.58616800  0.74845550  0.57696325  1
  O  O204  1  0.38671900  0.68608650  0.94287625  1
  O  O205  1  0.88169350  0.89806400  0.90433975  1
  O  O206  1  0.68607550  0.74343200  0.07837675  1
  O  O207  1  0.24845550  0.91383200  0.92303675  1
  O  O208  1  0.37425600  0.80703050  0.41105425  1
  O  O209  1  0.79785200  0.20058950  0.12555625  1
  O  O210  1  0.75656800  0.18607550  0.42162325  1
  O  O211  1  0.50000000  0.80652500  0.45984475  1
  O  O212  1  0.61328100  0.68608650  0.94287625  1
  O  O213  1  0.37904750  0.08325300  0.93849775  1
  O  O214  1  0.88169350  0.10193600  0.90433975  1
  O  O215  1  0.41674700  0.87904750  0.56150225  1
  O  O216  1  0.19209250  0.89672900  0.74915075  1
  O  O217  1  0.58826775  0.91173225  0.75000000  1
  O  O218  1  0.30652500  0.00000000  0.04015525  1
  O  O219  1  0.70058950  0.70214800  0.37444375  1
  O  O220  1  0.60193600  0.61830650  0.59566025  1
  O  O221  1  0.58826775  0.08826775  0.75000000  1
  O  O222  1  0.19209250  0.10327100  0.74915075  1
  O  O223  1  0.69810700  0.90067650  0.64565225  1
  O  O224  1  0.61328100  0.31391350  0.94287625  1
  O  O225  1  0.21602500  0.00000000  0.63662325  1
  O  O226  1  0.41383200  0.74845550  0.57696325  1
  O  O227  1  0.50000000  0.40923100  0.47873475  1
  O  O228  1  0.81391350  0.11328100  0.55712375  1
  O  O229  1  0.50000000  0.71602500  0.86337675  1
  O  O230  1  0.69296950  0.12574400  0.08894575  1
  O  O231  1  0.11830650  0.10193600  0.90433975  1
  O  O232  1  0.68607550  0.25656800  0.07837675  1
  O  O233  1  0.37425600  0.19296950  0.41105425  1
  O  O234  1  0.59932350  0.19810700  0.85434775  1
  O  O235  1  0.69810700  0.09932350  0.64565225  1
  O  O236  1  0.18608650  0.11328100  0.55712375  1
  O  O237  1  0.29941050  0.70214800  0.37444375  1
  O  O238  1  0.50000000  0.88586600  0.88698275  1
  O  O239  1  0.30189300  0.09932350  0.64565225  1
  O  O240  1  0.09076900  0.00000000  0.02126525  1
  O  O241  1  0.59932350  0.80189300  0.85434775  1
  O  O242  1  0.81391350  0.88671900  0.55712375  1
  O  O243  1  0.62574400  0.19296950  0.41105425  1
  O  O244  1  0.41383200  0.25154450  0.57696325  1
  O  O245  1  0.61413400  0.00000000  0.61301725  1
  O  O246  1  0.39672900  0.30790750  0.75084925  1
  O  O247  1  0.80790750  0.10327100  0.74915075  1
  O  O248  1  0.60327100  0.69209250  0.75084925  1
  O  O249  1  0.20214800  0.20058950  0.12555625  1
  O  O250  1  0.30703050  0.87425600  0.08894575  1
  O  O251  1  0.69619975  0.19619975  0.25000000  1
  O  O252  1  0.60193600  0.38169350  0.59566025  1
  O  O253  1  0.24845550  0.08616800  0.92303675  1
  O  O254  1  0.39672900  0.69209250  0.75084925  1
  O  O255  1  0.39806400  0.61830650  0.59566025  1
  O  O256  1  0.50000000  0.19347500  0.45984475  1
  O  O257  1  0.29941050  0.29785200  0.37444375  1
  O  O258  1  0.60327100  0.30790750  0.75084925  1
  O  O259  1  0.75154450  0.91383200  0.92303675  1
  O  O260  1  0.37904750  0.91674700  0.93849775  1
  O  O261  1  0.62095250  0.91674700  0.93849775  1
  O  O262  1  0.75154450  0.08616800  0.92303675  1
  O  O263  1  0.24343200  0.81392450  0.42162325  1
  O  O264  1  0.70058950  0.29785200  0.37444375  1
  O  O265  1  0.69296950  0.87425600  0.08894575  1
  O  O266  1  0.69619975  0.80380025  0.25000000  1
  O  O267  1  0.40067650  0.80189300  0.85434775  1
  O  O268  1  0.78397500  0.00000000  0.63662325  1
  O  O269  1  0.18608650  0.88671900  0.55712375  1
  O  O270  1  0.40067650  0.19810700  0.85434775  1
  O  O271  1  0.41173225  0.08826775  0.75000000  1
  O  O272  1  0.62574400  0.80703050  0.41105425  1
  O  O273  1  0.69347500  0.00000000  0.04015525  1
  O  O274  1  0.20214800  0.79941050  0.12555625  1
  O  O275  1  0.38671900  0.31391350  0.94287625  1
  O  O276  1  0.31392450  0.25656800  0.07837675  1
  O  O277  1  0.31392450  0.74343200  0.07837675  1
  O  O278  1  0.58325300  0.87904750  0.56150225  1
  O  O279  1  0.62095250  0.08325300  0.93849775  1
  O  O280  1  0.58325300  0.12095250  0.56150225  1
  O  O281  1  0.50000000  0.28397500  0.86337675  1
  O  O282  1  0.80790750  0.89672900  0.74915075  1
  O  O283  1  0.38586600  0.00000000  0.61301725  1
  O  O284  1  0.24343200  0.18607550  0.42162325  1
  O  O285  1  0.30380025  0.19619975  0.25000000  1
  O  O286  1  0.58616800  0.25154450  0.57696325  1
  O  O287  1  0.90923100  0.00000000  0.02126525  1
