# generated using pymatgen
data_Pr(HO)3
_symmetry_space_group_name_H-M   'P 1'
_cell_length_a   6.56126700
_cell_length_b   3.77059100
_cell_length_c   6.59709241
_cell_angle_alpha   90.00000000
_cell_angle_beta   119.21083286
_cell_angle_gamma   90.00000000
_symmetry_Int_Tables_number   1
_chemical_formula_structural   Pr(HO)3
_chemical_formula_sum   'Pr2 H6 O6'
_cell_volume   142.45551989
_cell_formula_units_Z   2
loop_
 _symmetry_equiv_pos_site_id
 _symmetry_equiv_pos_as_xyz
  1  'x, y, z'
loop_
 _atom_site_type_symbol
 _atom_site_label
 _atom_site_symmetry_multiplicity
 _atom_site_fract_x
 _atom_site_fract_y
 _atom_site_fract_z
 _atom_site_occupancy
  Pr  Pr0  1  0.33454300  0.00000000  0.66469400  1
  Pr  Pr1  1  0.66046300  0.50000000  0.32405600  1
  H  H2  1  0.85973300  0.00000000  0.14110200  1
  H  H3  1  0.85862000  0.00000000  0.68821900  1
  H  H4  1  0.28190000  0.00000000  0.14000700  1
  H  H5  1  0.13593000  0.50000000  0.85372700  1
  H  H6  1  0.14114100  0.50000000  0.28553700  1
  H  H7  1  0.71963000  0.50000000  0.85754200  1
  O  O8  1  0.91137500  0.00000000  0.30700200  1
  O  O9  1  0.68982300  0.00000000  0.59240200  1
  O  O10  1  0.39221100  0.00000000  0.08168200  1
  O  O11  1  0.08783900  0.50000000  0.68860400  1
  O  O12  1  0.30785500  0.50000000  0.39405800  1
  O  O13  1  0.60334000  0.50000000  0.90842000  1
