# generated using pymatgen
data_CsMnMo(OF)3
_symmetry_space_group_name_H-M   'P 1'
_cell_length_a   10.49935829
_cell_length_b   10.76257837
_cell_length_c   7.53382080
_cell_angle_alpha   90.00000000
_cell_angle_beta   132.73271936
_cell_angle_gamma   90.00000000
_symmetry_Int_Tables_number   1
_chemical_formula_structural   CsMnMo(OF)3
_chemical_formula_sum   'Cs4 Mn4 Mo4 O12 F12'
_cell_volume   625.31990694
_cell_formula_units_Z   4
loop_
 _symmetry_equiv_pos_site_id
 _symmetry_equiv_pos_as_xyz
  1  'x, y, z'
loop_
 _atom_site_type_symbol
 _atom_site_label
 _atom_site_symmetry_multiplicity
 _atom_site_fract_x
 _atom_site_fract_y
 _atom_site_fract_z
 _atom_site_occupancy
  Cs  Cs0  1  0.00000000  0.62530500  0.75000000  1
  Cs  Cs1  1  0.00000000  0.37469500  0.25000000  1
  Cs  Cs2  1  0.50000000  0.12530500  0.75000000  1
  Cs  Cs3  1  0.50000000  0.87469500  0.25000000  1
  Mn  Mn4  1  0.25000000  0.75000000  0.50000000  1
  Mn  Mn5  1  0.75000000  0.75000000  0.00000000  1
  Mn  Mn6  1  0.75000000  0.25000000  0.50000000  1
  Mn  Mn7  1  0.25000000  0.25000000  0.00000000  1
  Mo  Mo8  1  0.50000000  0.50000000  0.50000000  1
  Mo  Mo9  1  0.00000000  0.00000000  0.00000000  1
  Mo  Mo10  1  0.00000000  0.00000000  0.50000000  1
  Mo  Mo11  1  0.50000000  0.50000000  0.00000000  1
  O  O12  1  0.00000000  0.95803200  0.75000000  1
  O  O13  1  0.00000000  0.04196800  0.25000000  1
  O  O14  1  0.65706800  0.62543400  0.10518400  1
  O  O15  1  0.34293200  0.62543400  0.39481600  1
  O  O16  1  0.65706800  0.37456600  0.60518400  1
  O  O17  1  0.34293200  0.37456600  0.89481600  1
  O  O18  1  0.50000000  0.45803200  0.75000000  1
  O  O19  1  0.50000000  0.54196800  0.25000000  1
  O  O20  1  0.15706800  0.12543400  0.10518400  1
  O  O21  1  0.84293200  0.12543400  0.39481600  1
  O  O22  1  0.15706800  0.87456600  0.60518400  1
  O  O23  1  0.84293200  0.87456600  0.89481600  1
  F  F24  1  0.00000000  0.66552100  0.25000000  1
  F  F25  1  0.00000000  0.33447900  0.75000000  1
  F  F26  1  0.30213550  0.61907750  0.77156200  1
  F  F27  1  0.30213550  0.38092250  0.27156200  1
  F  F28  1  0.69786450  0.61907750  0.72843800  1
  F  F29  1  0.69786450  0.38092250  0.22843800  1
  F  F30  1  0.50000000  0.16552100  0.25000000  1
  F  F31  1  0.50000000  0.83447900  0.75000000  1
  F  F32  1  0.80213550  0.11907750  0.77156200  1
  F  F33  1  0.80213550  0.88092250  0.27156200  1
  F  F34  1  0.19786450  0.11907750  0.72843800  1
  F  F35  1  0.19786450  0.88092250  0.22843800  1
