# generated using pymatgen
data_Sm2Th3O9
_symmetry_space_group_name_H-M   'P 1'
_cell_length_a   3.96020400
_cell_length_b   3.96020400
_cell_length_c   28.01835600
_cell_angle_alpha   90.00000000
_cell_angle_beta   90.00000000
_cell_angle_gamma   90.00000000
_symmetry_Int_Tables_number   1
_chemical_formula_structural   Sm2Th3O9
_chemical_formula_sum   'Sm4 Th6 O18'
_cell_volume   439.41792131
_cell_formula_units_Z   2
loop_
 _symmetry_equiv_pos_site_id
 _symmetry_equiv_pos_as_xyz
  1  'x, y, z'
loop_
 _atom_site_type_symbol
 _atom_site_label
 _atom_site_symmetry_multiplicity
 _atom_site_fract_x
 _atom_site_fract_y
 _atom_site_fract_z
 _atom_site_occupancy
  Sm  Sm0  1  0.50000000  0.50000000  0.30572300  1
  Sm  Sm1  1  0.00000000  0.00000000  0.19427700  1
  Sm  Sm2  1  0.00000000  0.00000000  0.80572300  1
  Sm  Sm3  1  0.50000000  0.50000000  0.69427700  1
  Th  Th4  1  0.00000000  0.00000000  0.39969600  1
  Th  Th5  1  0.00000000  0.00000000  0.00000000  1
  Th  Th6  1  0.50000000  0.50000000  0.10030400  1
  Th  Th7  1  0.50000000  0.50000000  0.89969600  1
  Th  Th8  1  0.50000000  0.50000000  0.50000000  1
  Th  Th9  1  0.00000000  0.00000000  0.60030400  1
  O  O10  1  0.50000000  0.00000000  0.05325000  1
  O  O11  1  0.00000000  0.50000000  0.14558800  1
  O  O12  1  0.00000000  0.50000000  0.35441200  1
  O  O13  1  0.50000000  0.00000000  0.34352100  1
  O  O14  1  0.50000000  0.00000000  0.44675000  1
  O  O15  1  0.00000000  0.50000000  0.45301300  1
  O  O16  1  0.00000000  0.50000000  0.04698700  1
  O  O17  1  0.50000000  0.00000000  0.15647900  1
  O  O18  1  0.00000000  0.50000000  0.25000000  1
  O  O19  1  0.00000000  0.50000000  0.55325000  1
  O  O20  1  0.50000000  0.00000000  0.64558800  1
  O  O21  1  0.50000000  0.00000000  0.85441200  1
  O  O22  1  0.00000000  0.50000000  0.84352100  1
  O  O23  1  0.00000000  0.50000000  0.94675000  1
  O  O24  1  0.50000000  0.00000000  0.95301300  1
  O  O25  1  0.50000000  0.00000000  0.54698700  1
  O  O26  1  0.00000000  0.50000000  0.65647900  1
  O  O27  1  0.50000000  0.00000000  0.75000000  1
