# generated using pymatgen
data_PbI2
_symmetry_space_group_name_H-M   'P 1'
_cell_length_a   4.65040040
_cell_length_b   4.65040040
_cell_length_c   110.03646500
_cell_angle_alpha   90.00000000
_cell_angle_beta   90.00000000
_cell_angle_gamma   120.00000000
_symmetry_Int_Tables_number   1
_chemical_formula_structural   PbI2
_chemical_formula_sum   'Pb15 I30'
_cell_volume   2060.85746764
_cell_formula_units_Z   15
loop_
 _symmetry_equiv_pos_site_id
 _symmetry_equiv_pos_as_xyz
  1  'x, y, z'
loop_
 _atom_site_type_symbol
 _atom_site_label
 _atom_site_symmetry_multiplicity
 _atom_site_fract_x
 _atom_site_fract_y
 _atom_site_fract_z
 _atom_site_occupancy
  Pb  Pb0  1  0.00000000  0.00000000  0.01664600  1
  Pb  Pb1  1  0.33333333  0.66666667  0.94998900  1
  Pb  Pb2  1  0.33333333  0.66666667  0.61668100  1
  Pb  Pb3  1  0.33333333  0.66666667  0.41664300  1
  Pb  Pb4  1  0.33333333  0.66666667  0.48330900  1
  Pb  Pb5  1  0.33333333  0.66666667  0.81668800  1
  Pb  Pb6  1  0.00000000  0.00000000  0.35004800  1
  Pb  Pb7  1  0.33333333  0.66666667  0.68334000  1
  Pb  Pb8  1  0.33333333  0.66666667  0.21663200  1
  Pb  Pb9  1  0.00000000  0.00000000  0.55001700  1
  Pb  Pb10  1  0.33333333  0.66666667  0.08335300  1
  Pb  Pb11  1  0.33333333  0.66666667  0.28329600  1
  Pb  Pb12  1  0.00000000  0.00000000  0.15001200  1
  Pb  Pb13  1  0.33333333  0.66666667  0.88333800  1
  Pb  Pb14  1  0.00000000  0.00000000  0.75000300  1
  I  I15  1  0.33333333  0.66666667  0.73294200  1
  I  I16  1  0.66666667  0.33333333  0.56709900  1
  I  I17  1  0.66666667  0.33333333  0.16706900  1
  I  I18  1  0.66666667  0.33333333  0.36708800  1
  I  I19  1  0.66666667  0.33333333  0.90042100  1
  I  I20  1  0.66666667  0.33333333  0.96707900  1
  I  I21  1  0.66666667  0.33333333  0.63377400  1
  I  I22  1  0.00000000  0.00000000  0.26624400  1
  I  I23  1  0.66666667  0.33333333  0.23372100  1
  I  I24  1  0.33333333  0.66666667  0.53292200  1
  I  I25  1  0.00000000  0.00000000  0.39959000  1
  I  I26  1  0.66666667  0.33333333  0.70038700  1
  I  I27  1  0.00000000  0.00000000  0.86624500  1
  I  I28  1  0.66666667  0.33333333  0.76710000  1
  I  I29  1  0.00000000  0.00000000  0.46626000  1
  I  I30  1  0.66666667  0.33333333  0.43373700  1
  I  I31  1  0.00000000  0.00000000  0.19957100  1
  I  I32  1  0.66666667  0.33333333  0.10045300  1
  I  I33  1  0.00000000  0.00000000  0.59958700  1
  I  I34  1  0.33333333  0.66666667  0.99956900  1
  I  I35  1  0.33333333  0.66666667  0.13290500  1
  I  I36  1  0.00000000  0.00000000  0.06624500  1
  I  I37  1  0.66666667  0.33333333  0.03371800  1
  I  I38  1  0.66666667  0.33333333  0.30040300  1
  I  I39  1  0.33333333  0.66666667  0.33293300  1
  I  I40  1  0.00000000  0.00000000  0.93291200  1
  I  I41  1  0.66666667  0.33333333  0.83378000  1
  I  I42  1  0.00000000  0.00000000  0.66625200  1
  I  I43  1  0.00000000  0.00000000  0.79961000  1
  I  I44  1  0.66666667  0.33333333  0.50039000  1
