# generated using pymatgen
data_Ga2(Hg4Te5)3
_symmetry_space_group_name_H-M   'P 1'
_cell_length_a   8.06384800
_cell_length_b   13.97153600
_cell_length_c   18.98692147
_cell_angle_alpha   90.00000000
_cell_angle_beta   98.12223120
_cell_angle_gamma   90.00000000
_symmetry_Int_Tables_number   1
_chemical_formula_structural   Ga2(Hg4Te5)3
_chemical_formula_sum   'Ga4 Hg24 Te30'
_cell_volume   2117.69103501
_cell_formula_units_Z   2
loop_
 _symmetry_equiv_pos_site_id
 _symmetry_equiv_pos_as_xyz
  1  'x, y, z'
loop_
 _atom_site_type_symbol
 _atom_site_label
 _atom_site_symmetry_multiplicity
 _atom_site_fract_x
 _atom_site_fract_y
 _atom_site_fract_z
 _atom_site_occupancy
  Ga  Ga0  1  0.09954400  0.83337200  0.79845100  1
  Ga  Ga1  1  0.59954400  0.66662800  0.79845100  1
  Ga  Ga2  1  0.59954400  0.33337200  0.79845100  1
  Ga  Ga3  1  0.09954400  0.16662800  0.79845100  1
  Hg  Hg4  1  0.00539800  0.00000000  0.99148000  1
  Hg  Hg5  1  0.39989900  0.00000000  0.19693000  1
  Hg  Hg6  1  0.49279250  0.82894250  0.99151200  1
  Hg  Hg7  1  0.79750500  0.00000000  0.40363000  1
  Hg  Hg8  1  0.89846650  0.83388650  0.19727600  1
  Hg  Hg9  1  0.22896400  0.00000000  0.60909400  1
  Hg  Hg10  1  0.99279250  0.67105750  0.99151200  1
  Hg  Hg11  1  0.30273700  0.83512100  0.40278100  1
  Hg  Hg12  1  0.39846650  0.66611350  0.19727600  1
  Hg  Hg13  1  0.69025900  0.84615200  0.60916100  1
  Hg  Hg14  1  0.80273700  0.66487900  0.40278100  1
  Hg  Hg15  1  0.19025900  0.65384800  0.60916100  1
  Hg  Hg16  1  0.50539800  0.50000000  0.99148000  1
  Hg  Hg17  1  0.89989900  0.50000000  0.19693000  1
  Hg  Hg18  1  0.99279250  0.32894250  0.99151200  1
  Hg  Hg19  1  0.29750500  0.50000000  0.40363000  1
  Hg  Hg20  1  0.39846650  0.33388650  0.19727600  1
  Hg  Hg21  1  0.72896400  0.50000000  0.60909400  1
  Hg  Hg22  1  0.49279250  0.17105750  0.99151200  1
  Hg  Hg23  1  0.80273700  0.33512100  0.40278100  1
  Hg  Hg24  1  0.89846650  0.16611350  0.19727600  1
  Hg  Hg25  1  0.19025900  0.34615200  0.60916100  1
  Hg  Hg26  1  0.30273700  0.16487900  0.40278100  1
  Hg  Hg27  1  0.69025900  0.15384800  0.60916100  1
  Te  Te28  1  0.35407800  0.00000000  0.04373000  1
  Te  Te29  1  0.74998300  0.00000000  0.25043400  1
  Te  Te30  1  0.84483200  0.83646500  0.04402100  1
  Te  Te31  1  0.15035600  0.00000000  0.45605200  1
  Te  Te32  1  0.24977100  0.83336700  0.24915900  1
  Te  Te33  1  0.55932000  0.00000000  0.67722200  1
  Te  Te34  1  0.34483200  0.66353500  0.04402100  1
  Te  Te35  1  0.65288900  0.83221800  0.45608000  1
  Te  Te36  1  0.96611800  0.00000000  0.83766100  1
  Te  Te37  1  0.74977100  0.66663300  0.24915900  1
  Te  Te38  1  0.05202500  0.83336300  0.65573800  1
  Te  Te39  1  0.15288900  0.66778200  0.45608000  1
  Te  Te40  1  0.43586200  0.82313700  0.83770400  1
  Te  Te41  1  0.55202500  0.66663700  0.65573800  1
  Te  Te42  1  0.93586200  0.67686300  0.83770400  1
  Te  Te43  1  0.85407800  0.50000000  0.04373000  1
  Te  Te44  1  0.24998300  0.50000000  0.25043400  1
  Te  Te45  1  0.34483200  0.33646500  0.04402100  1
  Te  Te46  1  0.65035600  0.50000000  0.45605200  1
  Te  Te47  1  0.74977100  0.33336700  0.24915900  1
  Te  Te48  1  0.05932000  0.50000000  0.67722200  1
  Te  Te49  1  0.84483200  0.16353500  0.04402100  1
  Te  Te50  1  0.15288900  0.33221800  0.45608000  1
  Te  Te51  1  0.46611800  0.50000000  0.83766100  1
  Te  Te52  1  0.24977100  0.16663300  0.24915900  1
  Te  Te53  1  0.55202500  0.33336300  0.65573800  1
  Te  Te54  1  0.65288900  0.16778200  0.45608000  1
  Te  Te55  1  0.93586200  0.32313700  0.83770400  1
  Te  Te56  1  0.05202500  0.16663700  0.65573800  1
  Te  Te57  1  0.43586200  0.17686300  0.83770400  1
