# generated using pymatgen
data_CuH4(OF)2
_symmetry_space_group_name_H-M   'P 1'
_cell_length_a   6.81663400
_cell_length_b   7.33767200
_cell_length_c   3.37746623
_cell_angle_alpha   90.00000000
_cell_angle_beta   110.86264184
_cell_angle_gamma   90.00000000
_symmetry_Int_Tables_number   1
_chemical_formula_structural   CuH4(OF)2
_chemical_formula_sum   'Cu2 H8 O4 F4'
_cell_volume   157.85896685
_cell_formula_units_Z   2
loop_
 _symmetry_equiv_pos_site_id
 _symmetry_equiv_pos_as_xyz
  1  'x, y, z'
loop_
 _atom_site_type_symbol
 _atom_site_label
 _atom_site_symmetry_multiplicity
 _atom_site_fract_x
 _atom_site_fract_y
 _atom_site_fract_z
 _atom_site_occupancy
  Cu  Cu0  1  0.00000000  0.00000000  0.00000000  1
  Cu  Cu1  1  0.50000000  0.50000000  0.00000000  1
  H  H2  1  0.60982650  0.83875750  0.20275000  1
  H  H3  1  0.60982650  0.16124250  0.20275000  1
  H  H4  1  0.39017350  0.16124250  0.79725000  1
  H  H5  1  0.39017350  0.83875750  0.79725000  1
  H  H6  1  0.10982650  0.33875750  0.20275000  1
  H  H7  1  0.10982650  0.66124250  0.20275000  1
  H  H8  1  0.89017350  0.66124250  0.79725000  1
  H  H9  1  0.89017350  0.33875750  0.79725000  1
  O  O10  1  0.50000000  0.76043100  0.00000000  1
  O  O11  1  0.50000000  0.23956900  0.00000000  1
  O  O12  1  0.00000000  0.26043100  0.00000000  1
  O  O13  1  0.00000000  0.73956900  0.00000000  1
  F  F14  1  0.23329800  0.00000000  0.54486100  1
  F  F15  1  0.76670200  0.00000000  0.45513900  1
  F  F16  1  0.73329800  0.50000000  0.54486100  1
  F  F17  1  0.26670200  0.50000000  0.45513900  1
