# generated using pymatgen
data_Ca(Bi2O3)2
_symmetry_space_group_name_H-M   'P 1'
_cell_length_a   6.70684400
_cell_length_b   19.53271200
_cell_length_c   10.10089293
_cell_angle_alpha   90.00000000
_cell_angle_beta   103.47634840
_cell_angle_gamma   90.00000000
_symmetry_Int_Tables_number   1
_chemical_formula_structural   Ca(Bi2O3)2
_chemical_formula_sum   'Ca6 Bi24 O36'
_cell_volume   1286.81180432
_cell_formula_units_Z   6
loop_
 _symmetry_equiv_pos_site_id
 _symmetry_equiv_pos_as_xyz
  1  'x, y, z'
loop_
 _atom_site_type_symbol
 _atom_site_label
 _atom_site_symmetry_multiplicity
 _atom_site_fract_x
 _atom_site_fract_y
 _atom_site_fract_z
 _atom_site_occupancy
  Ca  Ca0  1  0.88466450  0.09635950  0.00504400  1
  Ca  Ca1  1  0.39977800  0.00000000  0.02712700  1
  Ca  Ca2  1  0.38466450  0.40364050  0.00504400  1
  Ca  Ca3  1  0.38466450  0.59635950  0.00504400  1
  Ca  Ca4  1  0.89977800  0.50000000  0.02712700  1
  Ca  Ca5  1  0.88466450  0.90364050  0.00504400  1
  Bi  Bi6  1  0.64395000  0.00000000  0.68061700  1
  Bi  Bi7  1  0.66500250  0.10999750  0.33447100  1
  Bi  Bi8  1  0.63185000  0.39879100  0.67062100  1
  Bi  Bi9  1  0.17160400  0.00000000  0.31433200  1
  Bi  Bi10  1  0.10696650  0.29841950  0.67763600  1
  Bi  Bi11  1  0.89773050  0.31197650  0.01424800  1
  Bi  Bi12  1  0.16500250  0.39000250  0.33447100  1
  Bi  Bi13  1  0.60696650  0.20158050  0.67763600  1
  Bi  Bi14  1  0.39773050  0.18802350  0.01424800  1
  Bi  Bi15  1  0.70907050  0.31428450  0.33538900  1
  Bi  Bi16  1  0.13185000  0.10120900  0.67062100  1
  Bi  Bi17  1  0.20907050  0.18571550  0.33538900  1
  Bi  Bi18  1  0.14395000  0.50000000  0.68061700  1
  Bi  Bi19  1  0.16500250  0.60999750  0.33447100  1
  Bi  Bi20  1  0.13185000  0.89879100  0.67062100  1
  Bi  Bi21  1  0.67160400  0.50000000  0.31433200  1
  Bi  Bi22  1  0.60696650  0.79841950  0.67763600  1
  Bi  Bi23  1  0.39773050  0.81197650  0.01424800  1
  Bi  Bi24  1  0.66500250  0.89000250  0.33447100  1
  Bi  Bi25  1  0.10696650  0.70158050  0.67763600  1
  Bi  Bi26  1  0.89773050  0.68802350  0.01424800  1
  Bi  Bi27  1  0.20907050  0.81428450  0.33538900  1
  Bi  Bi28  1  0.63185000  0.60120900  0.67062100  1
  Bi  Bi29  1  0.70907050  0.68571550  0.33538900  1
  O  O30  1  0.49082200  0.00000000  0.29825500  1
  O  O31  1  0.68149600  0.00000000  0.89057300  1
  O  O32  1  0.59699500  0.10250500  0.11237700  1
  O  O33  1  0.99730100  0.00000000  0.69354500  1
  O  O34  1  0.73089450  0.39617250  0.88843500  1
  O  O35  1  0.07758300  0.00000000  0.09778700  1
  O  O36  1  0.96135850  0.40348050  0.64458400  1
  O  O37  1  0.17002300  0.30841300  0.88971000  1
  O  O38  1  0.09699500  0.39749500  0.11237700  1
  O  O39  1  0.33935850  0.28839450  0.31176500  1
  O  O40  1  0.43635450  0.30707250  0.68642900  1
  O  O41  1  0.67002300  0.19158700  0.88971000  1
  O  O42  1  0.63596500  0.32865800  0.12067300  1
  O  O43  1  0.83935850  0.21160550  0.31176500  1
  O  O44  1  0.93635450  0.19292750  0.68642900  1
  O  O45  1  0.23089450  0.10382750  0.88843500  1
  O  O46  1  0.13596500  0.17134200  0.12067300  1
  O  O47  1  0.46135850  0.09651950  0.64458400  1
  O  O48  1  0.99082200  0.50000000  0.29825500  1
  O  O49  1  0.18149600  0.50000000  0.89057300  1
  O  O50  1  0.09699500  0.60250500  0.11237700  1
  O  O51  1  0.49730100  0.50000000  0.69354500  1
  O  O52  1  0.23089450  0.89617250  0.88843500  1
  O  O53  1  0.57758300  0.50000000  0.09778700  1
  O  O54  1  0.46135850  0.90348050  0.64458400  1
  O  O55  1  0.67002300  0.80841300  0.88971000  1
  O  O56  1  0.59699500  0.89749500  0.11237700  1
  O  O57  1  0.83935850  0.78839450  0.31176500  1
  O  O58  1  0.93635450  0.80707250  0.68642900  1
  O  O59  1  0.17002300  0.69158700  0.88971000  1
  O  O60  1  0.13596500  0.82865800  0.12067300  1
  O  O61  1  0.33935850  0.71160550  0.31176500  1
  O  O62  1  0.43635450  0.69292750  0.68642900  1
  O  O63  1  0.73089450  0.60382750  0.88843500  1
  O  O64  1  0.63596500  0.67134200  0.12067300  1
  O  O65  1  0.96135850  0.59651950  0.64458400  1
