# generated using pymatgen
data_K2NaNb(OF2)2
_symmetry_space_group_name_H-M   'P 1'
_cell_length_a   6.07810100
_cell_length_b   6.08342755
_cell_length_c   8.63949561
_cell_angle_alpha   90.00000000
_cell_angle_beta   90.05754451
_cell_angle_gamma   90.00000000
_symmetry_Int_Tables_number   1
_chemical_formula_structural   K2NaNb(OF2)2
_chemical_formula_sum   'K4 Na2 Nb2 O4 F8'
_cell_volume   319.45112505
_cell_formula_units_Z   2
loop_
 _symmetry_equiv_pos_site_id
 _symmetry_equiv_pos_as_xyz
  1  'x, y, z'
loop_
 _atom_site_type_symbol
 _atom_site_label
 _atom_site_symmetry_multiplicity
 _atom_site_fract_x
 _atom_site_fract_y
 _atom_site_fract_z
 _atom_site_occupancy
  K  K0  1  0.25047150  0.49739900  0.00279000  1
  K  K1  1  0.74952850  0.99739900  0.99721000  1
  K  K2  1  0.75452450  0.00126100  0.50386600  1
  K  K3  1  0.24547550  0.50126100  0.49613400  1
  Na  Na4  1  0.74963550  0.50484000  0.24865600  1
  Na  Na5  1  0.25036450  0.00484000  0.75134400  1
  Nb  Nb6  1  0.24961350  0.00363300  0.25129200  1
  Nb  Nb7  1  0.75038650  0.50363300  0.74870800  1
  O  O8  1  0.47217250  0.22349600  0.24807100  1
  O  O9  1  0.52782750  0.72349600  0.75192900  1
  O  O10  1  0.96625550  0.27801800  0.75209100  1
  O  O11  1  0.03374450  0.77801800  0.24790900  1
  F  F12  1  0.98645850  0.73757200  0.75346500  1
  F  F13  1  0.25200850  0.00651100  0.48614600  1
  F  F14  1  0.24825550  0.00169500  0.01502500  1
  F  F15  1  0.48349150  0.76448400  0.24802700  1
  F  F16  1  0.75174450  0.50169500  0.98497500  1
  F  F17  1  0.74799150  0.50651100  0.51385400  1
  F  F18  1  0.01354150  0.23757200  0.24653500  1
  F  F19  1  0.51650850  0.26448400  0.75197300  1
