# generated using pymatgen
data_Ba3HoUFeO9
_symmetry_space_group_name_H-M   'P 1'
_cell_length_a   5.99373631
_cell_length_b   5.99373631
_cell_length_c   17.32650500
_cell_angle_alpha   90.00000000
_cell_angle_beta   90.00000000
_cell_angle_gamma   120.00000000
_symmetry_Int_Tables_number   1
_chemical_formula_structural   Ba3HoUFeO9
_chemical_formula_sum   'Ba6 Ho2 U2 Fe2 O18'
_cell_volume   539.05970013
_cell_formula_units_Z   2
loop_
 _symmetry_equiv_pos_site_id
 _symmetry_equiv_pos_as_xyz
  1  'x, y, z'
loop_
 _atom_site_type_symbol
 _atom_site_label
 _atom_site_symmetry_multiplicity
 _atom_site_fract_x
 _atom_site_fract_y
 _atom_site_fract_z
 _atom_site_occupancy
  Ba  Ba0  1  0.66666667  0.33333333  0.05184600  1
  Ba  Ba1  1  0.33333333  0.66666667  0.44611500  1
  Ba  Ba2  1  0.33333333  0.66666667  0.18190500  1
  Ba  Ba3  1  0.00000000  0.00000000  0.30414200  1
  Ba  Ba4  1  0.66666667  0.33333333  0.81532800  1
  Ba  Ba5  1  0.33333333  0.66666667  0.94462400  1
  Ho  Ho6  1  0.00000000  0.00000000  0.65803700  1
  Ho  Ho7  1  0.66666667  0.33333333  0.61486600  1
  U  U8  1  0.00000000  0.00000000  0.99877900  1
  U  U9  1  0.66666667  0.33333333  0.36230300  1
  Fe  Fe10  1  0.33333333  0.66666667  0.64576400  1
  Fe  Fe11  1  0.00000000  0.00000000  0.49749100  1
  O  O12  1  0.16515400  0.83484600  0.06764000  1
  O  O13  1  0.98971000  0.49485500  0.29533900  1
  O  O14  1  0.50514500  0.01029000  0.29533900  1
  O  O15  1  0.16515400  0.33030800  0.06764000  1
  O  O16  1  0.69174000  0.84587000  0.57351700  1
  O  O17  1  0.83872000  0.16128000  0.43098700  1
  O  O18  1  0.66969200  0.83484600  0.06764000  1
  O  O19  1  0.50514500  0.49485500  0.29533900  1
  O  O20  1  0.15413000  0.30826000  0.57351700  1
  O  O21  1  0.83872000  0.67744000  0.43098700  1
  O  O22  1  0.33041600  0.16520800  0.93058700  1
  O  O23  1  0.50482800  0.49517200  0.69486200  1
  O  O24  1  0.15413000  0.84587000  0.57351700  1
  O  O25  1  0.32256000  0.16128000  0.43098700  1
  O  O26  1  0.83479200  0.66958400  0.93058700  1
  O  O27  1  0.50482800  0.00965600  0.69486200  1
  O  O28  1  0.83479200  0.16520800  0.93058700  1
  O  O29  1  0.99034400  0.49517200  0.69486200  1
