# generated using pymatgen
data_Zr3Sc4O12
_symmetry_space_group_name_H-M   'P 1'
_cell_length_a   6.21680000
_cell_length_b   6.24143179
_cell_length_c   12.45693618
_cell_angle_alpha   99.53755225
_cell_angle_beta   99.41429858
_cell_angle_gamma   99.54795242
_symmetry_Int_Tables_number   1
_chemical_formula_structural   Zr3Sc4O12
_chemical_formula_sum   'Zr6 Sc8 O24'
_cell_volume   460.90589222
_cell_formula_units_Z   2
loop_
 _symmetry_equiv_pos_site_id
 _symmetry_equiv_pos_as_xyz
  1  'x, y, z'
loop_
 _atom_site_type_symbol
 _atom_site_label
 _atom_site_symmetry_multiplicity
 _atom_site_fract_x
 _atom_site_fract_y
 _atom_site_fract_z
 _atom_site_occupancy
  Zr  Zr0  1  0.13947600  0.60736400  0.65787500  1
  Zr  Zr1  1  0.99841400  0.99403100  0.99961200  1
  Zr  Zr2  1  0.68590300  0.86858100  0.69617200  1
  Zr  Zr3  1  0.31453300  0.13751500  0.30602100  1
  Zr  Zr4  1  0.61009000  0.31656300  0.06899700  1
  Zr  Zr5  1  0.99691700  0.99564400  0.49650000  1
  Sc  Sc6  1  0.14025100  0.60679000  0.15945500  1
  Sc  Sc7  1  0.39278300  0.68205600  0.93188900  1
  Sc  Sc8  1  0.32040800  0.14677300  0.80468000  1
  Sc  Sc9  1  0.39338700  0.67212500  0.42743200  1
  Sc  Sc10  1  0.60802300  0.32006900  0.57004800  1
  Sc  Sc11  1  0.67840800  0.85600900  0.19649500  1
  Sc  Sc12  1  0.86188000  0.39565100  0.84219400  1
  Sc  Sc13  1  0.86199400  0.39546200  0.34013900  1
  O  O14  1  0.06032900  0.67988000  0.94982800  1
  O  O15  1  0.08674200  0.93579500  0.66218700  1
  O  O16  1  0.06416800  0.67521200  0.45611800  1
  O  O17  1  0.17964700  0.42137700  0.78538200  1
  O  O18  1  0.10060900  0.93989500  0.16025600  1
  O  O19  1  0.32113700  0.09970000  0.96985000  1
  O  O20  1  0.42520700  0.82238300  0.78917500  1
  O  O21  1  0.17931900  0.41638600  0.28686000  1
  O  O22  1  0.42137300  0.57778000  0.59059400  1
  O  O23  1  0.32100700  0.10133100  0.47117200  1
  O  O24  1  0.42254800  0.82031800  0.29243500  1
  O  O25  1  0.41972500  0.57303100  0.08956100  1
  O  O26  1  0.58120400  0.42396000  0.91017100  1
  O  O27  1  0.57621900  0.18084100  0.70827700  1
  O  O28  1  0.67601200  0.90103000  0.53017100  1
  O  O29  1  0.58146700  0.41812000  0.40957600  1
  O  O30  1  0.81936000  0.58448100  0.71228600  1
  O  O31  1  0.57146500  0.17751000  0.20993200  1
  O  O32  1  0.67609300  0.91186300  0.03218300  1
  O  O33  1  0.90415000  0.06291100  0.83930700  1
  O  O34  1  0.81942400  0.57911300  0.21091300  1
  O  O35  1  0.94158900  0.31836400  0.55145600  1
  O  O36  1  0.91078800  0.06094900  0.33804900  1
  O  O37  1  0.93794800  0.32314000  0.04675300  1
