# generated using pymatgen
data_H9BrO4
_symmetry_space_group_name_H-M   'P 1'
_cell_length_a   7.16129100
_cell_length_b   11.59689500
_cell_length_c   7.45465358
_cell_angle_alpha   90.00000000
_cell_angle_beta   109.12274264
_cell_angle_gamma   90.00000000
_symmetry_Int_Tables_number   1
_chemical_formula_structural   H9BrO4
_chemical_formula_sum   'H36 Br4 O16'
_cell_volume   584.93702288
_cell_formula_units_Z   4
loop_
 _symmetry_equiv_pos_site_id
 _symmetry_equiv_pos_as_xyz
  1  'x, y, z'
loop_
 _atom_site_type_symbol
 _atom_site_label
 _atom_site_symmetry_multiplicity
 _atom_site_fract_x
 _atom_site_fract_y
 _atom_site_fract_z
 _atom_site_occupancy
  H  H0  1  0.49021100  0.69105200  0.85242000  1
  H  H1  1  0.50160100  0.75003500  0.66737100  1
  H  H2  1  0.50978900  0.19105200  0.14758000  1
  H  H3  1  0.49839900  0.25003500  0.33262900  1
  H  H4  1  0.61468400  0.69340100  0.38163600  1
  H  H5  1  0.67453400  0.81811000  0.47562500  1
  H  H6  1  0.38531600  0.19340100  0.61836400  1
  H  H7  1  0.32546600  0.31811000  0.52437500  1
  H  H8  1  0.33375600  0.81248300  0.13236800  1
  H  H9  1  0.33838400  0.67893200  0.12594700  1
  H  H10  1  0.66624400  0.31248300  0.86763200  1
  H  H11  1  0.66161600  0.17893200  0.87405300  1
  H  H12  1  0.85489400  0.69673800  0.16344300  1
  H  H13  1  0.06783600  0.74989200  0.16674200  1
  H  H14  1  0.14510600  0.19673800  0.83655700  1
  H  H15  1  0.93216400  0.24989200  0.83325800  1
  H  H16  1  0.21816800  0.76395100  0.68883300  1
  H  H17  1  0.03777100  0.75556400  0.49283900  1
  H  H18  1  0.78183200  0.26395100  0.31116700  1
  H  H19  1  0.96222900  0.25556400  0.50716100  1
  H  H20  1  0.87433200  0.63406000  0.84716200  1
  H  H21  1  0.99936700  0.67847100  0.70601200  1
  H  H22  1  0.12566800  0.13406000  0.15283800  1
  H  H23  1  0.00063300  0.17847100  0.29398800  1
  H  H24  1  0.33279400  0.45891500  0.02247000  1
  H  H25  1  0.11127200  0.50808300  0.90346800  1
  H  H26  1  0.14284400  0.35882400  0.90547700  1
  H  H27  1  0.66720600  0.95891500  0.97753000  1
  H  H28  1  0.85715600  0.85882400  0.09452300  1
  H  H29  1  0.88872800  0.00808300  0.09653200  1
  H  H30  1  0.55362700  0.49321200  0.52699300  1
  H  H31  1  0.81184500  0.53279700  0.63740000  1
  H  H32  1  0.72764500  0.44708500  0.43754800  1
  H  H33  1  0.27235500  0.94708500  0.56245200  1
  H  H34  1  0.44637300  0.99321200  0.47300700  1
  H  H35  1  0.18815500  0.03279700  0.36260000  1
  Br  Br36  1  0.27698500  0.51824500  0.48306400  1
  Br  Br37  1  0.72301500  0.01824500  0.51693600  1
  Br  Br38  1  0.63555100  0.55265100  0.08030100  1
  Br  Br39  1  0.36444900  0.05265100  0.91969900  1
  O  O40  1  0.45606400  0.76314600  0.77865700  1
  O  O41  1  0.54393600  0.26314600  0.22134300  1
  O  O42  1  0.60018200  0.74643000  0.47838100  1
  O  O43  1  0.39981800  0.24643000  0.52161900  1
  O  O44  1  0.24941600  0.74555100  0.08970300  1
  O  O45  1  0.75058400  0.24555100  0.91029700  1
  O  O46  1  0.94054700  0.76636800  0.19685400  1
  O  O47  1  0.05945300  0.26636800  0.80314600  1
  O  O48  1  0.06833100  0.76920100  0.62982700  1
  O  O49  1  0.93166900  0.26920100  0.37017300  1
  O  O50  1  0.94800100  0.60274500  0.76846900  1
  O  O51  1  0.05199900  0.10274500  0.23153100  1
  O  O52  1  0.18851300  0.44234900  0.98405600  1
  O  O53  1  0.81148700  0.94234900  0.01594400  1
  O  O54  1  0.70597600  0.46785200  0.55691600  1
  O  O55  1  0.29402400  0.96785200  0.44308400  1
