# generated using pymatgen
data_Pr16Si16N27Cl3O14
_symmetry_space_group_name_H-M   'P 1'
_cell_length_a   10.52040600
_cell_length_b   10.52770698
_cell_length_c   20.98953349
_cell_angle_alpha   90.26401976
_cell_angle_beta   90.37072462
_cell_angle_gamma   90.20741499
_symmetry_Int_Tables_number   1
_chemical_formula_structural   Pr16Si16N27Cl3O14
_chemical_formula_sum   'Pr32 Si32 N54 Cl6 O28'
_cell_volume   2324.62273141
_cell_formula_units_Z   2
loop_
 _symmetry_equiv_pos_site_id
 _symmetry_equiv_pos_as_xyz
  1  'x, y, z'
loop_
 _atom_site_type_symbol
 _atom_site_label
 _atom_site_symmetry_multiplicity
 _atom_site_fract_x
 _atom_site_fract_y
 _atom_site_fract_z
 _atom_site_occupancy
  Pr  Pr0  1  0.04307600  0.81678700  0.34527800  1
  Pr  Pr1  1  0.03929200  0.82279000  0.84496400  1
  Pr  Pr2  1  0.10141500  0.10348200  0.55213600  1
  Pr  Pr3  1  0.17800500  0.18862100  0.22450600  1
  Pr  Pr4  1  0.18729400  0.19891700  0.73168900  1
  Pr  Pr5  1  0.19231500  0.44096800  0.08745900  1
  Pr  Pr6  1  0.21714800  0.47070500  0.58518200  1
  Pr  Pr7  1  0.31112600  0.54004300  0.34200800  1
  Pr  Pr8  1  0.30149800  0.53013000  0.84390700  1
  Pr  Pr9  1  0.32099500  0.78458900  0.48516400  1
  Pr  Pr10  1  0.31142300  0.81773200  0.98018100  1
  Pr  Pr11  1  0.39842700  0.90316800  0.30233700  1
  Pr  Pr12  1  0.40922900  0.89373000  0.80139000  1
  Pr  Pr13  1  0.44932500  0.17624600  0.09421400  1
  Pr  Pr14  1  0.45767500  0.18080500  0.59418400  1
  Pr  Pr15  1  0.54318800  0.68395600  0.15379100  1
  Pr  Pr16  1  0.52834900  0.67803200  0.63849100  1
  Pr  Pr17  1  0.61056900  0.39230700  0.94965900  1
  Pr  Pr18  1  0.61834000  0.39601700  0.44553800  1
  Pr  Pr19  1  0.68471800  0.30972900  0.27196100  1
  Pr  Pr20  1  0.67360100  0.30371200  0.77195300  1
  Pr  Pr21  1  0.69343500  0.04823600  0.91324300  1
  Pr  Pr22  1  0.69283800  0.05230700  0.41072400  1
  Pr  Pr23  1  0.81983700  0.95819000  0.15379600  1
  Pr  Pr24  1  0.79706800  0.96247400  0.65591900  1
  Pr  Pr25  1  0.82522900  0.68897200  0.02544900  1
  Pr  Pr26  1  0.81535700  0.69776100  0.51728800  1
  Pr  Pr27  1  0.88813600  0.60517000  0.19880800  1
  Pr  Pr28  1  0.96145200  0.46847100  0.77124800  1
  Pr  Pr29  1  0.94601600  0.32035400  0.40314900  1
  Pr  Pr30  1  0.95923400  0.30112100  0.91410900  1
  Pr  Pr31  1  0.85087000  0.64540000  0.67829500  1
  Si  Si32  1  0.07256500  0.57116400  0.46337000  1
  Si  Si33  1  0.07554200  0.57078300  0.96455900  1
  Si  Si34  1  0.08003000  0.74112200  0.09849500  1
  Si  Si35  1  0.07411500  0.75461400  0.59360000  1
  Si  Si36  1  0.19650100  0.07521300  0.37289600  1
  Si  Si37  1  0.20090900  0.07876700  0.86974600  1
  Si  Si38  1  0.24258300  0.30206000  0.45837900  1
  Si  Si39  1  0.24908100  0.30110200  0.95810700  1
  Si  Si40  1  0.25392400  0.69691200  0.71080300  1
  Si  Si41  1  0.26236700  0.69563700  0.21173600  1
  Si  Si42  1  0.30628700  0.91735400  0.12439800  1
  Si  Si43  1  0.30280600  0.92226900  0.62303000  1
  Si  Si44  1  0.41798800  0.25468300  0.34732300  1
  Si  Si45  1  0.42069000  0.25303900  0.84680400  1
  Si  Si46  1  0.42799400  0.42719400  0.21408800  1
  Si  Si47  1  0.42822900  0.42825400  0.71328200  1
  Si  Si48  1  0.57051300  0.92602900  0.03655600  1
  Si  Si49  1  0.57037100  0.92816300  0.53458000  1
  Si  Si50  1  0.58003600  0.75419600  0.90222300  1
  Si  Si51  1  0.58015400  0.75856000  0.40020400  1
  Si  Si52  1  0.68986000  0.41896400  0.12865800  1
  Si  Si53  1  0.69363500  0.42344800  0.62749300  1
  Si  Si54  1  0.73821600  0.19903100  0.04160000  1
  Si  Si55  1  0.74696800  0.19805000  0.53983200  1
  Si  Si56  1  0.75473600  0.80712400  0.28928700  1
  Si  Si57  1  0.74970300  0.80807700  0.78561900  1
  Si  Si58  1  0.80337200  0.57989500  0.37543800  1
  Si  Si59  1  0.80751600  0.58165200  0.87641300  1
  Si  Si60  1  0.91618500  0.24833000  0.15338300  1
  Si  Si61  1  0.92558300  0.25232300  0.65207200  1
  Si  Si62  1  0.92862500  0.07055300  0.28555500  1
  Si  Si63  1  0.92977800  0.07203200  0.78492600  1
  N  N64  1  0.05961200  0.62365200  0.04173200  1
  N  N65  1  0.06310400  0.63462800  0.53851400  1
  N  N66  1  0.07777000  0.04836700  0.31751000  1
  N  N67  1  0.08041600  0.04782000  0.81546700  1
  N  N68  1  0.13613600  0.42194100  0.47170000  1
  N  N69  1  0.14189100  0.42312200  0.97043700  1
  N  N70  1  0.15430700  0.16836700  0.43696000  1
  N  N71  1  0.16089900  0.17835800  0.92891800  1
  N  N72  1  0.18979300  0.84914700  0.07929900  1
  N  N73  1  0.17836900  0.87325500  0.57429300  1
  N  N74  1  0.32374800  0.12746100  0.32639600  1
  N  N75  1  0.33273500  0.12212400  0.82341600  1
  N  N76  1  0.35356600  0.82169100  0.18821600  1
  N  N77  1  0.33754200  0.83048900  0.68912600  1
  N  N78  1  0.36301900  0.57442200  0.22447900  1
  N  N79  1  0.35247100  0.57175200  0.71916500  1
  N  N80  1  0.36826800  0.34725000  0.41127400  1
  N  N81  1  0.37624300  0.34603000  0.91088400  1
  N  N82  1  0.42382900  0.94312300  0.06959900  1
  N  N83  1  0.42536200  0.94452400  0.57017200  1
  N  N84  1  0.44374700  0.36362800  0.28843500  1
  N  N85  1  0.44542500  0.36408500  0.78791800  1
  N  N86  1  0.54959900  0.86737100  0.45944700  1
  N  N87  1  0.54914400  0.86315900  0.96148500  1
  N  N88  1  0.57524800  0.45440900  0.18404500  1
  N  N89  1  0.57739100  0.44723000  0.68404100  1
  N  N90  1  0.62684100  0.85083000  0.33547500  1
  N  N91  1  0.63338400  0.84987500  0.83999900  1
  N  N92  1  0.63017100  0.07561400  0.02853900  1
  N  N93  1  0.63872300  0.07432100  0.52940000  1
  N  N94  1  0.63937000  0.32577200  0.06654700  1
  N  N95  1  0.64761300  0.31233800  0.57200500  1
  N  N96  1  0.67539700  0.62575800  0.92124000  1
  N  N97  1  0.67609200  0.63607400  0.42175000  1
  N  N98  1  0.68867100  0.77300000  0.71092300  1
  N  N99  1  0.72420800  0.56987800  0.59454100  1
  N  N100  1  0.79631100  0.42990400  0.84210000  1
  N  N101  1  0.76054900  0.42848300  0.35448200  1
  N  N102  1  0.78481100  0.24279400  0.46418700  1
  N  N103  1  0.77889300  0.24244700  0.96552300  1
  N  N104  1  0.81874400  0.37422600  0.17571400  1
  N  N105  1  0.82970900  0.37886300  0.67679000  1
  N  N106  1  0.84854400  0.68118100  0.31480100  1
  N  N107  1  0.85205400  0.68098900  0.81284600  1
  N  N108  1  0.86619300  0.92230400  0.27528000  1
  N  N109  1  0.86391300  0.92541600  0.77317400  1
  N  N110  1  0.85144300  0.15673400  0.09494000  1
  N  N111  1  0.87678800  0.15975600  0.58772400  1
  N  N112  1  0.92400100  0.56261300  0.43145700  1
  N  N113  1  0.92643100  0.56152600  0.93269300  1
  N  N114  1  0.93122600  0.77527300  0.12430200  1
  N  N115  1  0.92726500  0.80516800  0.61414200  1
  N  N116  1  0.94819800  0.13988900  0.21323800  1
  N  N117  1  0.95112000  0.14841000  0.71373800  1
  Cl  Cl118  1  0.08136600  0.43130800  0.28621400  1
  Cl  Cl119  1  0.42318400  0.58404100  0.03712600  1
  Cl  Cl120  1  0.57572400  0.06853900  0.21410000  1
  Cl  Cl121  1  0.56040500  0.07633700  0.71307700  1
  Cl  Cl122  1  0.93124200  0.93252100  0.45959400  1
  Cl  Cl123  1  0.91921700  0.91550400  0.96045400  1
  O  O124  1  0.06113900  0.30921200  0.14065700  1
  O  O125  1  0.07469100  0.29957500  0.63455300  1
  O  O126  1  0.13388200  0.38117100  0.80469800  1
  O  O127  1  0.14045800  0.64997400  0.16377000  1
  O  O128  1  0.13202900  0.66449100  0.65962600  1
  O  O129  1  0.16720100  0.66008200  0.41709600  1
  O  O130  1  0.16506200  0.66605100  0.91949400  1
  O  O131  1  0.20812400  0.73631500  0.28327500  1
  O  O132  1  0.19257400  0.71969900  0.78272500  1
  O  O133  1  0.24104500  0.92632200  0.39267200  1
  O  O134  1  0.24269600  0.92862400  0.88974500  1
  O  O135  1  0.27936000  0.06069900  0.15498000  1
  O  O136  1  0.25890900  0.07132700  0.64243300  1
  O  O137  1  0.30655600  0.27944600  0.03159600  1
  O  O138  1  0.28968500  0.26572500  0.53363500  1
  O  O139  1  0.33796100  0.33562100  0.16707400  1
  O  O140  1  0.34070200  0.33323100  0.66632500  1
  O  O141  1  0.37444500  0.61783800  0.55455100  1
  O  O142  1  0.43151300  0.71106500  0.87798000  1
  O  O143  1  0.43157000  0.71098200  0.37909200  1
  O  O144  1  0.57006300  0.21038200  0.86645800  1
  O  O145  1  0.56577500  0.20987100  0.36818100  1
  O  O146  1  0.66347300  0.83277800  0.08088600  1
  O  O147  1  0.66122800  0.83487700  0.57762400  1
  O  O148  1  0.70913500  0.75860600  0.21584900  1
  O  O149  1  0.73252200  0.56717000  0.10561100  1
  O  O150  1  0.83606500  0.15893800  0.33190300  1
  O  O151  1  0.83841200  0.15837300  0.83252000  1
