# generated using pymatgen
data_K4BaTa6(Si2O13)2
_symmetry_space_group_name_H-M   'P 1'
_cell_length_a   9.21871000
_cell_length_b   15.84769000
_cell_length_c   7.87241700
_cell_angle_alpha   90.00000000
_cell_angle_beta   90.00000000
_cell_angle_gamma   90.00000000
_symmetry_Int_Tables_number   1
_chemical_formula_structural   K4BaTa6(Si2O13)2
_chemical_formula_sum   'K8 Ba2 Ta12 Si8 O52'
_cell_volume   1150.12279490
_cell_formula_units_Z   2
loop_
 _symmetry_equiv_pos_site_id
 _symmetry_equiv_pos_as_xyz
  1  'x, y, z'
loop_
 _atom_site_type_symbol
 _atom_site_label
 _atom_site_symmetry_multiplicity
 _atom_site_fract_x
 _atom_site_fract_y
 _atom_site_fract_z
 _atom_site_occupancy
  K  K0  1  0.30589900  0.69511500  0.00000000  1
  K  K1  1  0.79705750  0.20225150  0.50000000  1
  K  K2  1  0.79705750  0.79774850  0.50000000  1
  K  K3  1  0.30589900  0.30488500  0.00000000  1
  K  K4  1  0.80589900  0.19511500  0.00000000  1
  K  K5  1  0.29705750  0.70225150  0.50000000  1
  K  K6  1  0.29705750  0.29774850  0.50000000  1
  K  K7  1  0.80589900  0.80488500  0.00000000  1
  Ba  Ba8  1  0.39686100  0.00000000  0.50000000  1
  Ba  Ba9  1  0.89686100  0.50000000  0.50000000  1
  Ta  Ta10  1  0.61864650  0.61948250  0.24864600  1
  Ta  Ta11  1  0.61864650  0.61948250  0.75135400  1
  Ta  Ta12  1  0.61864650  0.38051750  0.75135400  1
  Ta  Ta13  1  0.61864650  0.38051750  0.24864600  1
  Ta  Ta14  1  0.76388700  0.00000000  0.74982900  1
  Ta  Ta15  1  0.76388700  0.00000000  0.25017100  1
  Ta  Ta16  1  0.11864650  0.11948250  0.24864600  1
  Ta  Ta17  1  0.11864650  0.11948250  0.75135400  1
  Ta  Ta18  1  0.11864650  0.88051750  0.75135400  1
  Ta  Ta19  1  0.11864650  0.88051750  0.24864600  1
  Ta  Ta20  1  0.26388700  0.50000000  0.74982900  1
  Ta  Ta21  1  0.26388700  0.50000000  0.25017100  1
  Si  Si22  1  0.49926100  0.16453300  0.20771100  1
  Si  Si23  1  0.49926100  0.16453300  0.79228900  1
  Si  Si24  1  0.49926100  0.83546700  0.20771100  1
  Si  Si25  1  0.49926100  0.83546700  0.79228900  1
  Si  Si26  1  0.99926100  0.66453300  0.20771100  1
  Si  Si27  1  0.99926100  0.66453300  0.79228900  1
  Si  Si28  1  0.99926100  0.33546700  0.20771100  1
  Si  Si29  1  0.99926100  0.33546700  0.79228900  1
  O  O30  1  0.17361900  0.00000000  0.76002900  1
  O  O31  1  0.76850900  0.00000000  0.50000000  1
  O  O32  1  0.33456300  0.15087900  0.27593000  1
  O  O33  1  0.33456300  0.15087900  0.72407000  1
  O  O34  1  0.60395050  0.08968550  0.27756600  1
  O  O35  1  0.60395050  0.08968550  0.72243400  1
  O  O36  1  0.50081750  0.16554050  0.00000000  1
  O  O37  1  0.41232150  0.58847350  0.23753300  1
  O  O38  1  0.41232150  0.58847350  0.76246700  1
  O  O39  1  0.56137750  0.25593750  0.73026000  1
  O  O40  1  0.56137750  0.25593750  0.26974000  1
  O  O41  1  0.12018250  0.11603750  0.50000000  1
  O  O42  1  0.63207700  0.63631800  0.00000000  1
  O  O43  1  0.41232150  0.41152650  0.76246700  1
  O  O44  1  0.63207700  0.36368200  0.00000000  1
  O  O45  1  0.12018250  0.88396250  0.50000000  1
  O  O46  1  0.56137750  0.74406250  0.73026000  1
  O  O47  1  0.56137750  0.74406250  0.26974000  1
  O  O48  1  0.33456300  0.84912100  0.27593000  1
  O  O49  1  0.33456300  0.84912100  0.72407000  1
  O  O50  1  0.50081750  0.83445950  0.00000000  1
  O  O51  1  0.17361900  0.00000000  0.23997100  1
  O  O52  1  0.60395050  0.91031450  0.27756600  1
  O  O53  1  0.60395050  0.91031450  0.72243400  1
  O  O54  1  0.41232150  0.41152650  0.23753300  1
  O  O55  1  0.73706700  0.00000000  0.00000000  1
  O  O56  1  0.67361900  0.50000000  0.76002900  1
  O  O57  1  0.26850900  0.50000000  0.50000000  1
  O  O58  1  0.83456300  0.65087900  0.27593000  1
  O  O59  1  0.83456300  0.65087900  0.72407000  1
  O  O60  1  0.10395050  0.58968550  0.27756600  1
  O  O61  1  0.10395050  0.58968550  0.72243400  1
  O  O62  1  0.00081750  0.66554050  0.00000000  1
  O  O63  1  0.91232150  0.08847350  0.23753300  1
  O  O64  1  0.91232150  0.08847350  0.76246700  1
  O  O65  1  0.06137750  0.75593750  0.73026000  1
  O  O66  1  0.06137750  0.75593750  0.26974000  1
  O  O67  1  0.62018250  0.61603750  0.50000000  1
  O  O68  1  0.13207700  0.13631800  0.00000000  1
  O  O69  1  0.91232150  0.91152650  0.76246700  1
  O  O70  1  0.13207700  0.86368200  0.00000000  1
  O  O71  1  0.62018250  0.38396250  0.50000000  1
  O  O72  1  0.06137750  0.24406250  0.73026000  1
  O  O73  1  0.06137750  0.24406250  0.26974000  1
  O  O74  1  0.83456300  0.34912100  0.27593000  1
  O  O75  1  0.83456300  0.34912100  0.72407000  1
  O  O76  1  0.00081750  0.33445950  0.00000000  1
  O  O77  1  0.67361900  0.50000000  0.23997100  1
  O  O78  1  0.10395050  0.41031450  0.27756600  1
  O  O79  1  0.10395050  0.41031450  0.72243400  1
  O  O80  1  0.91232150  0.91152650  0.23753300  1
  O  O81  1  0.23706700  0.50000000  0.00000000  1
