# generated using pymatgen
data_ReH8(NCl3)2
_symmetry_space_group_name_H-M   'P 1'
_cell_length_a   10.01665800
_cell_length_b   10.01665800
_cell_length_c   10.01665800
_cell_angle_alpha   90.00000000
_cell_angle_beta   90.00000000
_cell_angle_gamma   90.00000000
_symmetry_Int_Tables_number   1
_chemical_formula_structural   ReH8(NCl3)2
_chemical_formula_sum   'Re4 H32 N8 Cl24'
_cell_volume   1005.00572929
_cell_formula_units_Z   4
loop_
 _symmetry_equiv_pos_site_id
 _symmetry_equiv_pos_as_xyz
  1  'x, y, z'
loop_
 _atom_site_type_symbol
 _atom_site_label
 _atom_site_symmetry_multiplicity
 _atom_site_fract_x
 _atom_site_fract_y
 _atom_site_fract_z
 _atom_site_occupancy
  Re  Re0  1  0.00000000  0.00000000  0.00000000  1
  Re  Re1  1  0.00000000  0.50000000  0.50000000  1
  Re  Re2  1  0.50000000  0.00000000  0.50000000  1
  Re  Re3  1  0.50000000  0.50000000  0.00000000  1
  H  H4  1  0.30969700  0.30969700  0.69030300  1
  H  H5  1  0.30969700  0.19030300  0.80969700  1
  H  H6  1  0.19030300  0.30969700  0.80969700  1
  H  H7  1  0.19030300  0.19030300  0.69030300  1
  H  H8  1  0.19030300  0.69030300  0.80969700  1
  H  H9  1  0.19030300  0.80969700  0.69030300  1
  H  H10  1  0.30969700  0.69030300  0.69030300  1
  H  H11  1  0.30969700  0.80969700  0.80969700  1
  H  H12  1  0.30969700  0.80969700  0.19030300  1
  H  H13  1  0.30969700  0.69030300  0.30969700  1
  H  H14  1  0.19030300  0.80969700  0.30969700  1
  H  H15  1  0.19030300  0.69030300  0.19030300  1
  H  H16  1  0.19030300  0.19030300  0.30969700  1
  H  H17  1  0.19030300  0.30969700  0.19030300  1
  H  H18  1  0.30969700  0.19030300  0.19030300  1
  H  H19  1  0.30969700  0.30969700  0.30969700  1
  H  H20  1  0.80969700  0.30969700  0.19030300  1
  H  H21  1  0.80969700  0.19030300  0.30969700  1
  H  H22  1  0.69030300  0.30969700  0.30969700  1
  H  H23  1  0.69030300  0.19030300  0.19030300  1
  H  H24  1  0.69030300  0.69030300  0.30969700  1
  H  H25  1  0.69030300  0.80969700  0.19030300  1
  H  H26  1  0.80969700  0.69030300  0.19030300  1
  H  H27  1  0.80969700  0.80969700  0.30969700  1
  H  H28  1  0.80969700  0.80969700  0.69030300  1
  H  H29  1  0.80969700  0.69030300  0.80969700  1
  H  H30  1  0.69030300  0.80969700  0.80969700  1
  H  H31  1  0.69030300  0.69030300  0.69030300  1
  H  H32  1  0.69030300  0.19030300  0.80969700  1
  H  H33  1  0.69030300  0.30969700  0.69030300  1
  H  H34  1  0.80969700  0.19030300  0.69030300  1
  H  H35  1  0.80969700  0.30969700  0.80969700  1
  N  N36  1  0.25000000  0.25000000  0.75000000  1
  N  N37  1  0.25000000  0.75000000  0.75000000  1
  N  N38  1  0.25000000  0.75000000  0.25000000  1
  N  N39  1  0.25000000  0.25000000  0.25000000  1
  N  N40  1  0.75000000  0.25000000  0.25000000  1
  N  N41  1  0.75000000  0.75000000  0.25000000  1
  N  N42  1  0.75000000  0.75000000  0.75000000  1
  N  N43  1  0.75000000  0.25000000  0.75000000  1
  Cl  Cl44  1  0.00000000  0.00000000  0.76225700  1
  Cl  Cl45  1  0.50000000  0.73774300  0.00000000  1
  Cl  Cl46  1  0.23774300  0.00000000  0.00000000  1
  Cl  Cl47  1  0.50000000  0.00000000  0.73774300  1
  Cl  Cl48  1  0.50000000  0.26225700  0.00000000  1
  Cl  Cl49  1  0.76225700  0.00000000  0.00000000  1
  Cl  Cl50  1  0.00000000  0.50000000  0.26225700  1
  Cl  Cl51  1  0.50000000  0.23774300  0.50000000  1
  Cl  Cl52  1  0.23774300  0.50000000  0.50000000  1
  Cl  Cl53  1  0.50000000  0.50000000  0.23774300  1
  Cl  Cl54  1  0.50000000  0.76225700  0.50000000  1
  Cl  Cl55  1  0.76225700  0.50000000  0.50000000  1
  Cl  Cl56  1  0.50000000  0.00000000  0.26225700  1
  Cl  Cl57  1  0.00000000  0.73774300  0.50000000  1
  Cl  Cl58  1  0.73774300  0.00000000  0.50000000  1
  Cl  Cl59  1  0.00000000  0.00000000  0.23774300  1
  Cl  Cl60  1  0.00000000  0.26225700  0.50000000  1
  Cl  Cl61  1  0.26225700  0.00000000  0.50000000  1
  Cl  Cl62  1  0.50000000  0.50000000  0.76225700  1
  Cl  Cl63  1  0.00000000  0.23774300  0.00000000  1
  Cl  Cl64  1  0.73774300  0.50000000  0.00000000  1
  Cl  Cl65  1  0.00000000  0.50000000  0.73774300  1
  Cl  Cl66  1  0.00000000  0.76225700  0.00000000  1
  Cl  Cl67  1  0.26225700  0.50000000  0.00000000  1
