# generated using pymatgen
data_BaGa2(SiO4)2
_symmetry_space_group_name_H-M   'P 1'
_cell_length_a   13.66411200
_cell_length_b   13.40250800
_cell_length_c   8.84834120
_cell_angle_alpha   90.00000000
_cell_angle_beta   100.86043694
_cell_angle_gamma   90.00000000
_symmetry_Int_Tables_number   1
_chemical_formula_structural   BaGa2(SiO4)2
_chemical_formula_sum   'Ba8 Ga16 Si16 O64'
_cell_volume   1591.40316691
_cell_formula_units_Z   8
loop_
 _symmetry_equiv_pos_site_id
 _symmetry_equiv_pos_as_xyz
  1  'x, y, z'
loop_
 _atom_site_type_symbol
 _atom_site_label
 _atom_site_symmetry_multiplicity
 _atom_site_fract_x
 _atom_site_fract_y
 _atom_site_fract_z
 _atom_site_occupancy
  Ba  Ba0  1  0.18545700  0.25067500  0.71442200  1
  Ba  Ba1  1  0.81454300  0.25067500  0.78557800  1
  Ba  Ba2  1  0.81454300  0.74932500  0.28557800  1
  Ba  Ba3  1  0.18545700  0.74932500  0.21442200  1
  Ba  Ba4  1  0.68545700  0.75067500  0.71442200  1
  Ba  Ba5  1  0.31454300  0.75067500  0.78557800  1
  Ba  Ba6  1  0.31454300  0.24932500  0.28557800  1
  Ba  Ba7  1  0.68545700  0.24932500  0.21442200  1
  Ga  Ga8  1  0.13015800  0.56553300  0.88630400  1
  Ga  Ga9  1  0.86984200  0.56553300  0.61369600  1
  Ga  Ga10  1  0.86984200  0.43446700  0.11369600  1
  Ga  Ga11  1  0.13015800  0.43446700  0.38630400  1
  Ga  Ga12  1  0.92413450  0.12455750  0.46458400  1
  Ga  Ga13  1  0.07586550  0.12455750  0.03541600  1
  Ga  Ga14  1  0.07586550  0.87544250  0.53541600  1
  Ga  Ga15  1  0.92413450  0.87544250  0.96458400  1
  Ga  Ga16  1  0.63015800  0.06553300  0.88630400  1
  Ga  Ga17  1  0.36984200  0.06553300  0.61369600  1
  Ga  Ga18  1  0.36984200  0.93446700  0.11369600  1
  Ga  Ga19  1  0.63015800  0.93446700  0.38630400  1
  Ga  Ga20  1  0.42413450  0.62455750  0.46458400  1
  Ga  Ga21  1  0.57586550  0.62455750  0.03541600  1
  Ga  Ga22  1  0.57586550  0.37544250  0.53541600  1
  Ga  Ga23  1  0.42413450  0.37544250  0.96458400  1
  Si  Si24  1  0.07639100  0.63793800  0.52162600  1
  Si  Si25  1  0.92360900  0.63793800  0.97837400  1
  Si  Si26  1  0.92360900  0.36206200  0.47837400  1
  Si  Si27  1  0.07639100  0.36206200  0.02162600  1
  Si  Si28  1  0.35590350  0.57073150  0.09523700  1
  Si  Si29  1  0.64409650  0.57073150  0.40476300  1
  Si  Si30  1  0.64409650  0.42926850  0.90476300  1
  Si  Si31  1  0.35590350  0.42926850  0.59523700  1
  Si  Si32  1  0.57639100  0.13793800  0.52162600  1
  Si  Si33  1  0.42360900  0.13793800  0.97837400  1
  Si  Si34  1  0.42360900  0.86206200  0.47837400  1
  Si  Si35  1  0.57639100  0.86206200  0.02162600  1
  Si  Si36  1  0.85590350  0.07073150  0.09523700  1
  Si  Si37  1  0.14409650  0.07073150  0.40476300  1
  Si  Si38  1  0.14409650  0.92926850  0.90476300  1
  Si  Si39  1  0.85590350  0.92926850  0.59523700  1
  O  O40  1  0.04477050  0.63244250  0.99138800  1
  O  O41  1  0.95522950  0.63244250  0.50861200  1
  O  O42  1  0.95522950  0.36755750  0.00861200  1
  O  O43  1  0.04477050  0.36755750  0.49138800  1
  O  O44  1  0.06063750  0.11989150  0.49489500  1
  O  O45  1  0.93936250  0.11989150  0.00510500  1
  O  O46  1  0.93936250  0.88010850  0.50510500  1
  O  O47  1  0.06063750  0.88010850  0.99489500  1
  O  O48  1  0.11581250  0.43062850  0.89089200  1
  O  O49  1  0.88418750  0.43062850  0.60910800  1
  O  O50  1  0.88418750  0.56937150  0.10910800  1
  O  O51  1  0.11581250  0.56937150  0.39089200  1
  O  O52  1  0.63324950  0.44957750  0.39932900  1
  O  O53  1  0.36675050  0.44957750  0.10067100  1
  O  O54  1  0.36675050  0.55042250  0.60067100  1
  O  O55  1  0.63324950  0.55042250  0.89932900  1
  O  O56  1  0.13764400  0.61703300  0.69615100  1
  O  O57  1  0.86235600  0.61703300  0.80384900  1
  O  O58  1  0.86235600  0.38296700  0.30384900  1
  O  O59  1  0.13764400  0.38296700  0.19615100  1
  O  O60  1  0.74961800  0.38438600  0.00471900  1
  O  O61  1  0.25038200  0.38438600  0.49528100  1
  O  O62  1  0.25038200  0.61561400  0.99528100  1
  O  O63  1  0.74961800  0.61561400  0.50471900  1
  O  O64  1  0.10692050  0.75002850  0.46869900  1
  O  O65  1  0.89307950  0.75002850  0.03130100  1
  O  O66  1  0.89307950  0.24997150  0.53130100  1
  O  O67  1  0.10692050  0.24997150  0.96869900  1
  O  O68  1  0.64418200  0.38202500  0.73431800  1
  O  O69  1  0.35581800  0.38202500  0.76568200  1
  O  O70  1  0.35581800  0.61797500  0.26568200  1
  O  O71  1  0.64418200  0.61797500  0.23431800  1
  O  O72  1  0.54477050  0.13244250  0.99138800  1
  O  O73  1  0.45522950  0.13244250  0.50861200  1
  O  O74  1  0.45522950  0.86755750  0.00861200  1
  O  O75  1  0.54477050  0.86755750  0.49138800  1
  O  O76  1  0.56063750  0.61989150  0.49489500  1
  O  O77  1  0.43936250  0.61989150  0.00510500  1
  O  O78  1  0.43936250  0.38010850  0.50510500  1
  O  O79  1  0.56063750  0.38010850  0.99489500  1
  O  O80  1  0.61581250  0.93062850  0.89089200  1
  O  O81  1  0.38418750  0.93062850  0.60910800  1
  O  O82  1  0.38418750  0.06937150  0.10910800  1
  O  O83  1  0.61581250  0.06937150  0.39089200  1
  O  O84  1  0.13324950  0.94957750  0.39932900  1
  O  O85  1  0.86675050  0.94957750  0.10067100  1
  O  O86  1  0.86675050  0.05042250  0.60067100  1
  O  O87  1  0.13324950  0.05042250  0.89932900  1
  O  O88  1  0.63764400  0.11703300  0.69615100  1
  O  O89  1  0.36235600  0.11703300  0.80384900  1
  O  O90  1  0.36235600  0.88296700  0.30384900  1
  O  O91  1  0.63764400  0.88296700  0.19615100  1
  O  O92  1  0.24961800  0.88438600  0.00471900  1
  O  O93  1  0.75038200  0.88438600  0.49528100  1
  O  O94  1  0.75038200  0.11561400  0.99528100  1
  O  O95  1  0.24961800  0.11561400  0.50471900  1
  O  O96  1  0.60692050  0.25002850  0.46869900  1
  O  O97  1  0.39307950  0.25002850  0.03130100  1
  O  O98  1  0.39307950  0.74997150  0.53130100  1
  O  O99  1  0.60692050  0.74997150  0.96869900  1
  O  O100  1  0.14418200  0.88202500  0.73431800  1
  O  O101  1  0.85581800  0.88202500  0.76568200  1
  O  O102  1  0.85581800  0.11797500  0.26568200  1
  O  O103  1  0.14418200  0.11797500  0.23431800  1
