# generated using pymatgen
data_Ca5Si2SO12
_symmetry_space_group_name_H-M   'P 1'
_cell_length_a   6.93344400
_cell_length_b   10.27610400
_cell_length_c   15.52726500
_cell_angle_alpha   90.00000000
_cell_angle_beta   90.00000000
_cell_angle_gamma   90.00000000
_symmetry_Int_Tables_number   1
_chemical_formula_structural   Ca5Si2SO12
_chemical_formula_sum   'Ca20 Si8 S4 O48'
_cell_volume   1106.29886845
_cell_formula_units_Z   4
loop_
 _symmetry_equiv_pos_site_id
 _symmetry_equiv_pos_as_xyz
  1  'x, y, z'
loop_
 _atom_site_type_symbol
 _atom_site_label
 _atom_site_symmetry_multiplicity
 _atom_site_fract_x
 _atom_site_fract_y
 _atom_site_fract_z
 _atom_site_occupancy
  Ca  Ca0  1  0.63787100  0.93371700  0.58609100  1
  Ca  Ca1  1  0.13787100  0.56628300  0.91390900  1
  Ca  Ca2  1  0.86212900  0.43371700  0.41390900  1
  Ca  Ca3  1  0.36212900  0.06628300  0.08609100  1
  Ca  Ca4  1  0.36212900  0.06628300  0.41390900  1
  Ca  Ca5  1  0.86212900  0.43371700  0.08609100  1
  Ca  Ca6  1  0.13787100  0.56628300  0.58609100  1
  Ca  Ca7  1  0.63787100  0.93371700  0.91390900  1
  Ca  Ca8  1  0.85930900  0.84190000  0.40402600  1
  Ca  Ca9  1  0.35930900  0.65810000  0.09597400  1
  Ca  Ca10  1  0.64069100  0.34190000  0.59597400  1
  Ca  Ca11  1  0.14069100  0.15810000  0.90402600  1
  Ca  Ca12  1  0.14069100  0.15810000  0.59597400  1
  Ca  Ca13  1  0.64069100  0.34190000  0.90402600  1
  Ca  Ca14  1  0.35930900  0.65810000  0.40402600  1
  Ca  Ca15  1  0.85930900  0.84190000  0.09597400  1
  Ca  Ca16  1  0.05052400  0.19356700  0.25000000  1
  Ca  Ca17  1  0.55052400  0.30643300  0.25000000  1
  Ca  Ca18  1  0.44947600  0.69356700  0.75000000  1
  Ca  Ca19  1  0.94947600  0.80643300  0.75000000  1
  Si  Si20  1  0.65343700  0.63393400  0.92530400  1
  Si  Si21  1  0.15343700  0.86606600  0.57469600  1
  Si  Si22  1  0.84656300  0.13393400  0.07469600  1
  Si  Si23  1  0.34656300  0.36606600  0.42530400  1
  Si  Si24  1  0.65343700  0.63393400  0.57469600  1
  Si  Si25  1  0.15343700  0.86606600  0.92530400  1
  Si  Si26  1  0.84656300  0.13393400  0.42530400  1
  Si  Si27  1  0.34656300  0.36606600  0.07469600  1
  S  S28  1  0.98541600  0.41080500  0.75000000  1
  S  S29  1  0.48541600  0.08919500  0.75000000  1
  S  S30  1  0.51458400  0.91080500  0.25000000  1
  S  S31  1  0.01458400  0.58919500  0.25000000  1
  O  O32  1  0.46800200  0.54570000  0.60903900  1
  O  O33  1  0.96800200  0.95430000  0.89096100  1
  O  O34  1  0.03199800  0.04570000  0.39096100  1
  O  O35  1  0.53199800  0.45430000  0.10903900  1
  O  O36  1  0.53199800  0.45430000  0.39096100  1
  O  O37  1  0.03199800  0.04570000  0.10903900  1
  O  O38  1  0.96800200  0.95430000  0.60903900  1
  O  O39  1  0.46800200  0.54570000  0.89096100  1
  O  O40  1  0.71027700  0.73265900  0.65434400  1
  O  O41  1  0.21027700  0.76734100  0.84565600  1
  O  O42  1  0.78972300  0.23265900  0.34565600  1
  O  O43  1  0.28972300  0.26734100  0.15434400  1
  O  O44  1  0.28972300  0.26734100  0.34565600  1
  O  O45  1  0.78972300  0.23265900  0.15434400  1
  O  O46  1  0.21027700  0.76734100  0.65434400  1
  O  O47  1  0.71027700  0.73265900  0.84565600  1
  O  O48  1  0.81915200  0.52414900  0.55134900  1
  O  O49  1  0.31915200  0.97585100  0.94865100  1
  O  O50  1  0.68084800  0.02414900  0.44865100  1
  O  O51  1  0.06822200  0.35123900  0.67064700  1
  O  O52  1  0.18084800  0.47585100  0.05134900  1
  O  O53  1  0.68084800  0.02414900  0.05134900  1
  O  O54  1  0.31915200  0.97585100  0.55134900  1
  O  O55  1  0.81915200  0.52414900  0.94865100  1
  O  O56  1  0.61383700  0.73053100  0.49086800  1
  O  O57  1  0.11383700  0.76946900  0.00913200  1
  O  O58  1  0.88616300  0.23053100  0.50913200  1
  O  O59  1  0.38616300  0.26946900  0.99086800  1
  O  O60  1  0.38616300  0.26946900  0.50913200  1
  O  O61  1  0.88616300  0.23053100  0.99086800  1
  O  O62  1  0.11383700  0.76946900  0.49086800  1
  O  O63  1  0.61383700  0.73053100  0.00913200  1
  O  O64  1  0.77253900  0.39327800  0.75000000  1
  O  O65  1  0.27253900  0.10672200  0.75000000  1
  O  O66  1  0.72746100  0.89327800  0.25000000  1
  O  O67  1  0.22746100  0.60672200  0.25000000  1
  O  O68  1  0.04308300  0.55103400  0.75000000  1
  O  O69  1  0.54308300  0.94896600  0.75000000  1
  O  O70  1  0.45691700  0.05103400  0.25000000  1
  O  O71  1  0.95691700  0.44896600  0.25000000  1
  O  O72  1  0.06822200  0.35123900  0.82935300  1
  O  O73  1  0.56822200  0.14876100  0.67064700  1
  O  O74  1  0.43177800  0.85123900  0.17064700  1
  O  O75  1  0.93177800  0.64876100  0.32935300  1
  O  O76  1  0.93177800  0.64876100  0.17064700  1
  O  O77  1  0.43177800  0.85123900  0.32935300  1
  O  O78  1  0.56822200  0.14876100  0.82935300  1
  O  O79  1  0.18084800  0.47585100  0.44865100  1
