# generated using pymatgen
data_Sm(HO)3
_symmetry_space_group_name_H-M   'P 1'
_cell_length_a   6.38657809
_cell_length_b   6.38657809
_cell_length_c   3.69143700
_cell_angle_alpha   90.00000000
_cell_angle_beta   90.00000000
_cell_angle_gamma   120.00000000
_symmetry_Int_Tables_number   1
_chemical_formula_structural   Sm(HO)3
_chemical_formula_sum   'Sm2 H6 O6'
_cell_volume   130.39548264
_cell_formula_units_Z   2
loop_
 _symmetry_equiv_pos_site_id
 _symmetry_equiv_pos_as_xyz
  1  'x, y, z'
loop_
 _atom_site_type_symbol
 _atom_site_label
 _atom_site_symmetry_multiplicity
 _atom_site_fract_x
 _atom_site_fract_y
 _atom_site_fract_z
 _atom_site_occupancy
  Sm  Sm0  1  0.66666667  0.33333333  0.75000000  1
  Sm  Sm1  1  0.33333333  0.66666667  0.25000000  1
  H  H2  1  0.72483900  0.86410800  0.75000000  1
  H  H3  1  0.13926900  0.27516100  0.75000000  1
  H  H4  1  0.13589200  0.86073100  0.75000000  1
  H  H5  1  0.27516100  0.13589200  0.25000000  1
  H  H6  1  0.86073100  0.72483900  0.25000000  1
  H  H7  1  0.86410800  0.13926900  0.25000000  1
  O  O8  1  0.60781400  0.69082700  0.75000000  1
  O  O9  1  0.08301300  0.39218600  0.75000000  1
  O  O10  1  0.30917300  0.91698700  0.75000000  1
  O  O11  1  0.39218600  0.30917300  0.25000000  1
  O  O12  1  0.91698700  0.60781400  0.25000000  1
  O  O13  1  0.69082700  0.08301300  0.25000000  1
