# generated using pymatgen
data_Na3Li3Al2F12
_symmetry_space_group_name_H-M   'P 1'
_cell_length_a   12.31879200
_cell_length_b   12.31879200
_cell_length_c   12.31879200
_cell_angle_alpha   90.00000000
_cell_angle_beta   90.00000000
_cell_angle_gamma   90.00000000
_symmetry_Int_Tables_number   1
_chemical_formula_structural   Na3Li3Al2F12
_chemical_formula_sum   'Na24 Li24 Al16 F96'
_cell_volume   1869.40916252
_cell_formula_units_Z   8
loop_
 _symmetry_equiv_pos_site_id
 _symmetry_equiv_pos_as_xyz
  1  'x, y, z'
loop_
 _atom_site_type_symbol
 _atom_site_label
 _atom_site_symmetry_multiplicity
 _atom_site_fract_x
 _atom_site_fract_y
 _atom_site_fract_z
 _atom_site_occupancy
  Na  Na0  1  0.25000000  0.37500000  0.50000000  1
  Na  Na1  1  0.25000000  0.62500000  0.00000000  1
  Na  Na2  1  0.62500000  0.00000000  0.25000000  1
  Na  Na3  1  0.00000000  0.25000000  0.62500000  1
  Na  Na4  1  0.50000000  0.25000000  0.37500000  1
  Na  Na5  1  0.37500000  0.50000000  0.25000000  1
  Na  Na6  1  0.25000000  0.12500000  0.00000000  1
  Na  Na7  1  0.25000000  0.87500000  0.50000000  1
  Na  Na8  1  0.87500000  0.50000000  0.25000000  1
  Na  Na9  1  0.50000000  0.25000000  0.87500000  1
  Na  Na10  1  0.12500000  0.00000000  0.25000000  1
  Na  Na11  1  0.00000000  0.25000000  0.12500000  1
  Na  Na12  1  0.75000000  0.87500000  0.00000000  1
  Na  Na13  1  0.75000000  0.12500000  0.50000000  1
  Na  Na14  1  0.12500000  0.50000000  0.75000000  1
  Na  Na15  1  0.50000000  0.75000000  0.12500000  1
  Na  Na16  1  0.00000000  0.75000000  0.87500000  1
  Na  Na17  1  0.87500000  0.00000000  0.75000000  1
  Na  Na18  1  0.75000000  0.62500000  0.50000000  1
  Na  Na19  1  0.75000000  0.37500000  0.00000000  1
  Na  Na20  1  0.37500000  0.00000000  0.75000000  1
  Na  Na21  1  0.00000000  0.75000000  0.37500000  1
  Na  Na22  1  0.62500000  0.50000000  0.75000000  1
  Na  Na23  1  0.50000000  0.75000000  0.62500000  1
  Li  Li24  1  0.00000000  0.25000000  0.37500000  1
  Li  Li25  1  0.37500000  0.50000000  0.75000000  1
  Li  Li26  1  0.12500000  0.00000000  0.75000000  1
  Li  Li27  1  0.75000000  0.12500000  0.00000000  1
  Li  Li28  1  0.25000000  0.37500000  0.00000000  1
  Li  Li29  1  0.00000000  0.75000000  0.12500000  1
  Li  Li30  1  0.75000000  0.37500000  0.50000000  1
  Li  Li31  1  0.25000000  0.12500000  0.50000000  1
  Li  Li32  1  0.12500000  0.50000000  0.25000000  1
  Li  Li33  1  0.50000000  0.25000000  0.12500000  1
  Li  Li34  1  0.50000000  0.75000000  0.37500000  1
  Li  Li35  1  0.37500000  0.00000000  0.25000000  1
  Li  Li36  1  0.50000000  0.75000000  0.87500000  1
  Li  Li37  1  0.87500000  0.00000000  0.25000000  1
  Li  Li38  1  0.62500000  0.50000000  0.25000000  1
  Li  Li39  1  0.25000000  0.62500000  0.50000000  1
  Li  Li40  1  0.75000000  0.87500000  0.50000000  1
  Li  Li41  1  0.50000000  0.25000000  0.62500000  1
  Li  Li42  1  0.25000000  0.87500000  0.00000000  1
  Li  Li43  1  0.75000000  0.62500000  0.00000000  1
  Li  Li44  1  0.62500000  0.00000000  0.75000000  1
  Li  Li45  1  0.00000000  0.75000000  0.62500000  1
  Li  Li46  1  0.00000000  0.25000000  0.87500000  1
  Li  Li47  1  0.87500000  0.50000000  0.75000000  1
  Al  Al48  1  0.25000000  0.25000000  0.25000000  1
  Al  Al49  1  0.00000000  0.50000000  0.00000000  1
  Al  Al50  1  0.50000000  0.00000000  0.00000000  1
  Al  Al51  1  0.00000000  0.00000000  0.50000000  1
  Al  Al52  1  0.25000000  0.25000000  0.75000000  1
  Al  Al53  1  0.25000000  0.75000000  0.25000000  1
  Al  Al54  1  0.75000000  0.25000000  0.25000000  1
  Al  Al55  1  0.00000000  0.00000000  0.00000000  1
  Al  Al56  1  0.75000000  0.75000000  0.75000000  1
  Al  Al57  1  0.50000000  0.00000000  0.50000000  1
  Al  Al58  1  0.00000000  0.50000000  0.50000000  1
  Al  Al59  1  0.50000000  0.50000000  0.00000000  1
  Al  Al60  1  0.75000000  0.75000000  0.25000000  1
  Al  Al61  1  0.75000000  0.25000000  0.75000000  1
  Al  Al62  1  0.25000000  0.75000000  0.75000000  1
  Al  Al63  1  0.50000000  0.50000000  0.50000000  1
  F  F64  1  0.11010650  0.20734750  0.27860250  1
  F  F65  1  0.02860250  0.54265250  0.36010650  1
  F  F66  1  0.13989350  0.97139750  0.04265250  1
  F  F67  1  0.02860250  0.45734750  0.13989350  1
  F  F68  1  0.36010650  0.02860250  0.54265250  1
  F  F69  1  0.61010650  0.29265250  0.72139750  1
  F  F70  1  0.88989350  0.70734750  0.22139750  1
  F  F71  1  0.20734750  0.27860250  0.11010650  1
  F  F72  1  0.97139750  0.04265250  0.13989350  1
  F  F73  1  0.47139750  0.45734750  0.86010650  1
  F  F74  1  0.86010650  0.47139750  0.45734750  1
  F  F75  1  0.54265250  0.36010650  0.02860250  1
  F  F76  1  0.27860250  0.88989350  0.29265250  1
  F  F77  1  0.45734750  0.13989350  0.02860250  1
  F  F78  1  0.29265250  0.27860250  0.88989350  1
  F  F79  1  0.04265250  0.13989350  0.97139750  1
  F  F80  1  0.88989350  0.29265250  0.27860250  1
  F  F81  1  0.13989350  0.02860250  0.45734750  1
  F  F82  1  0.22139750  0.88989350  0.70734750  1
  F  F83  1  0.29265250  0.72139750  0.61010650  1
  F  F84  1  0.04265250  0.63989350  0.02860250  1
  F  F85  1  0.77860250  0.88989350  0.20734750  1
  F  F86  1  0.22139750  0.38989350  0.29265250  1
  F  F87  1  0.29265250  0.22139750  0.38989350  1
  F  F88  1  0.79265250  0.27860250  0.61010650  1
  F  F89  1  0.61010650  0.79265250  0.27860250  1
  F  F90  1  0.88989350  0.20734750  0.77860250  1
  F  F91  1  0.13989350  0.47139750  0.95734750  1
  F  F92  1  0.47139750  0.04265250  0.36010650  1
  F  F93  1  0.36010650  0.52860250  0.45734750  1
  F  F94  1  0.47139750  0.95734750  0.13989350  1
  F  F95  1  0.36010650  0.47139750  0.04265250  1
  F  F96  1  0.52860250  0.45734750  0.36010650  1
  F  F97  1  0.02860250  0.04265250  0.63989350  1
  F  F98  1  0.63989350  0.02860250  0.04265250  1
  F  F99  1  0.95734750  0.13989350  0.47139750  1
  F  F100  1  0.22139750  0.61010650  0.20734750  1
  F  F101  1  0.04265250  0.36010650  0.47139750  1
  F  F102  1  0.20734750  0.22139750  0.61010650  1
  F  F103  1  0.45734750  0.36010650  0.52860250  1
  F  F104  1  0.61010650  0.20734750  0.22139750  1
  F  F105  1  0.27860250  0.61010650  0.79265250  1
  F  F106  1  0.20734750  0.77860250  0.88989350  1
  F  F107  1  0.38989350  0.29265250  0.22139750  1
  F  F108  1  0.45734750  0.86010650  0.47139750  1
  F  F109  1  0.72139750  0.61010650  0.29265250  1
  F  F110  1  0.27860250  0.11010650  0.20734750  1
  F  F111  1  0.70734750  0.22139750  0.88989350  1
  F  F112  1  0.61010650  0.70734750  0.77860250  1
  F  F113  1  0.52860250  0.04265250  0.86010650  1
  F  F114  1  0.63989350  0.47139750  0.54265250  1
  F  F115  1  0.52860250  0.95734750  0.63989350  1
  F  F116  1  0.86010650  0.52860250  0.04265250  1
  F  F117  1  0.11010650  0.79265250  0.22139750  1
  F  F118  1  0.38989350  0.20734750  0.72139750  1
  F  F119  1  0.70734750  0.77860250  0.61010650  1
  F  F120  1  0.47139750  0.54265250  0.63989350  1
  F  F121  1  0.97139750  0.95734750  0.36010650  1
  F  F122  1  0.36010650  0.97139750  0.95734750  1
  F  F123  1  0.04265250  0.86010650  0.52860250  1
  F  F124  1  0.77860250  0.38989350  0.79265250  1
  F  F125  1  0.95734750  0.63989350  0.52860250  1
  F  F126  1  0.79265250  0.77860250  0.38989350  1
  F  F127  1  0.54265250  0.63989350  0.47139750  1
  F  F128  1  0.38989350  0.79265250  0.77860250  1
  F  F129  1  0.63989350  0.52860250  0.95734750  1
  F  F130  1  0.72139750  0.38989350  0.20734750  1
  F  F131  1  0.79265250  0.22139750  0.11010650  1
  F  F132  1  0.54265250  0.13989350  0.52860250  1
  F  F133  1  0.27860250  0.38989350  0.70734750  1
  F  F134  1  0.72139750  0.88989350  0.79265250  1
  F  F135  1  0.79265250  0.72139750  0.88989350  1
  F  F136  1  0.29265250  0.77860250  0.11010650  1
  F  F137  1  0.11010650  0.29265250  0.77860250  1
  F  F138  1  0.38989350  0.70734750  0.27860250  1
  F  F139  1  0.63989350  0.97139750  0.45734750  1
  F  F140  1  0.97139750  0.54265250  0.86010650  1
  F  F141  1  0.86010650  0.02860250  0.95734750  1
  F  F142  1  0.97139750  0.45734750  0.63989350  1
  F  F143  1  0.86010650  0.97139750  0.54265250  1
  F  F144  1  0.02860250  0.95734750  0.86010650  1
  F  F145  1  0.52860250  0.54265250  0.13989350  1
  F  F146  1  0.13989350  0.52860250  0.54265250  1
  F  F147  1  0.45734750  0.63989350  0.97139750  1
  F  F148  1  0.72139750  0.11010650  0.70734750  1
  F  F149  1  0.54265250  0.86010650  0.97139750  1
  F  F150  1  0.70734750  0.72139750  0.11010650  1
  F  F151  1  0.95734750  0.86010650  0.02860250  1
  F  F152  1  0.11010650  0.70734750  0.72139750  1
  F  F153  1  0.77860250  0.11010650  0.29265250  1
  F  F154  1  0.70734750  0.27860250  0.38989350  1
  F  F155  1  0.88989350  0.79265250  0.72139750  1
  F  F156  1  0.95734750  0.36010650  0.97139750  1
  F  F157  1  0.22139750  0.11010650  0.79265250  1
  F  F158  1  0.77860250  0.61010650  0.70734750  1
  F  F159  1  0.20734750  0.72139750  0.38989350  1
