# generated using pymatgen
data_Mn2P3O10
_symmetry_space_group_name_H-M   'P 1'
_cell_length_a   13.78102400
_cell_length_b   8.98311400
_cell_length_c   9.49750038
_cell_angle_alpha   90.00000000
_cell_angle_beta   123.73925891
_cell_angle_gamma   90.00000000
_symmetry_Int_Tables_number   1
_chemical_formula_structural   Mn2P3O10
_chemical_formula_sum   'Mn8 P12 O40'
_cell_volume   977.72898709
_cell_formula_units_Z   4
loop_
 _symmetry_equiv_pos_site_id
 _symmetry_equiv_pos_as_xyz
  1  'x, y, z'
loop_
 _atom_site_type_symbol
 _atom_site_label
 _atom_site_symmetry_multiplicity
 _atom_site_fract_x
 _atom_site_fract_y
 _atom_site_fract_z
 _atom_site_occupancy
  Mn  Mn0  1  0.28099100  0.98092300  0.96602600  1
  Mn  Mn1  1  0.28099100  0.01907700  0.46602600  1
  Mn  Mn2  1  0.21900900  0.48092300  0.53397400  1
  Mn  Mn3  1  0.21900900  0.51907700  0.03397400  1
  Mn  Mn4  1  0.78099100  0.48092300  0.96602600  1
  Mn  Mn5  1  0.78099100  0.51907700  0.46602600  1
  Mn  Mn6  1  0.71900900  0.98092300  0.53397400  1
  Mn  Mn7  1  0.71900900  0.01907700  0.03397400  1
  P  P8  1  0.00000000  0.91608900  0.75000000  1
  P  P9  1  0.13967600  0.29423800  0.20045800  1
  P  P10  1  0.36032400  0.20576200  0.79954200  1
  P  P11  1  0.50000000  0.58391100  0.25000000  1
  P  P12  1  0.13967600  0.70576200  0.70045800  1
  P  P13  1  0.36032400  0.79423800  0.29954200  1
  P  P14  1  0.50000000  0.41608900  0.75000000  1
  P  P15  1  0.63967600  0.79423800  0.20045800  1
  P  P16  1  0.86032400  0.70576200  0.79954200  1
  P  P17  1  0.00000000  0.08391100  0.25000000  1
  P  P18  1  0.63967600  0.20576200  0.70045800  1
  P  P19  1  0.86032400  0.29423800  0.29954200  1
  O  O20  1  0.25356500  0.69730400  0.18382900  1
  O  O21  1  0.39193700  0.49675000  0.12821500  1
  O  O22  1  0.63165550  0.06918950  0.79000700  1
  O  O23  1  0.13165550  0.43081050  0.29000700  1
  O  O24  1  0.47656700  0.30602700  0.86279100  1
  O  O25  1  0.36791800  0.15852300  0.95956900  1
  O  O26  1  0.75356500  0.80269600  0.68382900  1
  O  O27  1  0.13208200  0.65852300  0.54043100  1
  O  O28  1  0.39193700  0.50325000  0.62821500  1
  O  O29  1  0.36834450  0.06918950  0.70999300  1
  O  O30  1  0.13208200  0.34147700  0.04043100  1
  O  O31  1  0.86834450  0.43081050  0.20999300  1
  O  O32  1  0.10806300  0.00325000  0.87178500  1
  O  O33  1  0.02343300  0.80602700  0.63720900  1
  O  O34  1  0.24643500  0.80269600  0.81617100  1
  O  O35  1  0.74643500  0.69730400  0.31617100  1
  O  O36  1  0.10806300  0.99675000  0.37178500  1
  O  O37  1  0.36791800  0.84147700  0.45956900  1
  O  O38  1  0.02343300  0.19397300  0.13720900  1
  O  O39  1  0.47656700  0.69397300  0.36279100  1
  O  O40  1  0.75356500  0.19730400  0.18382900  1
  O  O41  1  0.89193700  0.99675000  0.12821500  1
  O  O42  1  0.13165550  0.56918950  0.79000700  1
  O  O43  1  0.63165550  0.93081050  0.29000700  1
  O  O44  1  0.97656700  0.80602700  0.86279100  1
  O  O45  1  0.86791800  0.65852300  0.95956900  1
  O  O46  1  0.25356500  0.30269600  0.68382900  1
  O  O47  1  0.63208200  0.15852300  0.54043100  1
  O  O48  1  0.89193700  0.00325000  0.62821500  1
  O  O49  1  0.86834450  0.56918950  0.70999300  1
  O  O50  1  0.63208200  0.84147700  0.04043100  1
  O  O51  1  0.36834450  0.93081050  0.20999300  1
  O  O52  1  0.60806300  0.50325000  0.87178500  1
  O  O53  1  0.52343300  0.30602700  0.63720900  1
  O  O54  1  0.74643500  0.30269600  0.81617100  1
  O  O55  1  0.24643500  0.19730400  0.31617100  1
  O  O56  1  0.60806300  0.49675000  0.37178500  1
  O  O57  1  0.86791800  0.34147700  0.45956900  1
  O  O58  1  0.52343300  0.69397300  0.13720900  1
  O  O59  1  0.97656700  0.19397300  0.36279100  1
