# generated using pymatgen
data_H7BrO3
_symmetry_space_group_name_H-M   'P 1'
_cell_length_a   11.63661000
_cell_length_b   6.52298600
_cell_length_c   6.12895623
_cell_angle_alpha   90.00000000
_cell_angle_beta   92.11676657
_cell_angle_gamma   90.00000000
_symmetry_Int_Tables_number   1
_chemical_formula_structural   H7BrO3
_chemical_formula_sum   'H28 Br4 O12'
_cell_volume   464.90369059
_cell_formula_units_Z   4
loop_
 _symmetry_equiv_pos_site_id
 _symmetry_equiv_pos_as_xyz
  1  'x, y, z'
loop_
 _atom_site_type_symbol
 _atom_site_label
 _atom_site_symmetry_multiplicity
 _atom_site_fract_x
 _atom_site_fract_y
 _atom_site_fract_z
 _atom_site_occupancy
  H  H0  1  0.82857200  0.69049800  0.54214200  1
  H  H1  1  0.93188450  0.74692650  0.38771800  1
  H  H2  1  0.82857200  0.30950200  0.04214200  1
  H  H3  1  0.93188450  0.25307350  0.88771800  1
  H  H4  1  0.99266700  0.97118200  0.13566900  1
  H  H5  1  0.59480700  0.33648400  0.25416000  1
  H  H6  1  0.61515300  0.13903500  0.76749900  1
  H  H7  1  0.52810800  0.20853700  0.96636000  1
  H  H8  1  0.97705550  0.66719450  0.69759000  1
  H  H9  1  0.61515300  0.86096500  0.26749900  1
  H  H10  1  0.52810800  0.79146300  0.46636000  1
  H  H11  1  0.97705550  0.33280550  0.19759000  1
  H  H12  1  0.99266700  0.02881800  0.63566900  1
  H  H13  1  0.59480700  0.66351600  0.75416000  1
  H  H14  1  0.32857200  0.19049800  0.54214200  1
  H  H15  1  0.43188450  0.24692650  0.38771800  1
  H  H16  1  0.32857200  0.80950200  0.04214200  1
  H  H17  1  0.43188450  0.75307350  0.88771800  1
  H  H18  1  0.49266700  0.47118200  0.13566900  1
  H  H19  1  0.09480700  0.83648400  0.25416000  1
  H  H20  1  0.11515300  0.63903500  0.76749900  1
  H  H21  1  0.02810800  0.70853700  0.96636000  1
  H  H22  1  0.47705550  0.16719450  0.69759000  1
  H  H23  1  0.11515300  0.36096500  0.26749900  1
  H  H24  1  0.02810800  0.29146300  0.46636000  1
  H  H25  1  0.47705550  0.83280550  0.19759000  1
  H  H26  1  0.49266700  0.52881800  0.63566900  1
  H  H27  1  0.09480700  0.16351600  0.75416000  1
  Br  Br28  1  0.73230000  0.28010700  0.49978400  1
  Br  Br29  1  0.73230000  0.71989300  0.99978400  1
  Br  Br30  1  0.23230000  0.78010700  0.49978400  1
  Br  Br31  1  0.23230000  0.21989300  0.99978400  1
  O  O32  1  0.90472450  0.75607150  0.53887400  1
  O  O33  1  0.90472450  0.24392850  0.03887400  1
  O  O34  1  0.51924400  0.33096800  0.16660800  1
  O  O35  1  0.53696550  0.11701850  0.82643400  1
  O  O36  1  0.53696550  0.88298150  0.32643400  1
  O  O37  1  0.51924400  0.66903200  0.66660800  1
  O  O38  1  0.40472450  0.25607150  0.53887400  1
  O  O39  1  0.40472450  0.74392850  0.03887400  1
  O  O40  1  0.01924400  0.83096800  0.16660800  1
  O  O41  1  0.03696550  0.61701850  0.82643400  1
  O  O42  1  0.03696550  0.38298150  0.32643400  1
  O  O43  1  0.01924400  0.16903200  0.66660800  1
