# generated using pymatgen
data_ZnH12C2S2(N3O4)2
_symmetry_space_group_name_H-M   'P 1'
_cell_length_a   9.74205800
_cell_length_b   9.74205800
_cell_length_c   14.65751400
_cell_angle_alpha   90.00000000
_cell_angle_beta   90.00000000
_cell_angle_gamma   90.00000000
_symmetry_Int_Tables_number   1
_chemical_formula_structural   ZnH12C2S2(N3O4)2
_chemical_formula_sum   'Zn4 H48 C8 S8 N24 O32'
_cell_volume   1391.11085462
_cell_formula_units_Z   4
loop_
 _symmetry_equiv_pos_site_id
 _symmetry_equiv_pos_as_xyz
  1  'x, y, z'
loop_
 _atom_site_type_symbol
 _atom_site_label
 _atom_site_symmetry_multiplicity
 _atom_site_fract_x
 _atom_site_fract_y
 _atom_site_fract_z
 _atom_site_occupancy
  Zn  Zn0  1  0.00000000  0.50000000  0.25000000  1
  Zn  Zn1  1  0.00000000  0.00000000  0.00000000  1
  Zn  Zn2  1  0.50000000  0.00000000  0.75000000  1
  Zn  Zn3  1  0.50000000  0.50000000  0.50000000  1
  H  H4  1  0.80206500  0.18408100  0.32610100  1
  H  H5  1  0.30206500  0.81591900  0.42389900  1
  H  H6  1  0.19793500  0.81591900  0.32610100  1
  H  H7  1  0.69793500  0.18408100  0.42389900  1
  H  H8  1  0.31591900  0.30206500  0.17389900  1
  H  H9  1  0.31591900  0.19793500  0.07610100  1
  H  H10  1  0.68408100  0.69793500  0.17389900  1
  H  H11  1  0.68408100  0.80206500  0.07610100  1
  H  H12  1  0.81783950  0.82204850  0.31000250  1
  H  H13  1  0.31783950  0.17795150  0.43999750  1
  H  H14  1  0.18216050  0.17795150  0.31000250  1
  H  H15  1  0.68216050  0.82204850  0.43999750  1
  H  H16  1  0.67795150  0.31783950  0.18999750  1
  H  H17  1  0.67795150  0.18216050  0.06000250  1
  H  H18  1  0.32204850  0.68216050  0.18999750  1
  H  H19  1  0.32204850  0.81783950  0.06000250  1
  H  H20  1  0.85076450  0.97838150  0.25328550  1
  H  H21  1  0.35076450  0.02161850  0.49671450  1
  H  H22  1  0.14923550  0.02161850  0.25328550  1
  H  H23  1  0.64923550  0.97838150  0.49671450  1
  H  H24  1  0.52161850  0.35076450  0.24671450  1
  H  H25  1  0.52161850  0.14923550  0.00328550  1
  H  H26  1  0.47838150  0.64923550  0.24671450  1
  H  H27  1  0.47838150  0.85076450  0.00328550  1
  H  H28  1  0.30206500  0.68408100  0.82610100  1
  H  H29  1  0.80206500  0.31591900  0.92389900  1
  H  H30  1  0.69793500  0.31591900  0.82610100  1
  H  H31  1  0.19793500  0.68408100  0.92389900  1
  H  H32  1  0.81591900  0.80206500  0.67389900  1
  H  H33  1  0.81591900  0.69793500  0.57610100  1
  H  H34  1  0.18408100  0.19793500  0.67389900  1
  H  H35  1  0.18408100  0.30206500  0.57610100  1
  H  H36  1  0.31783950  0.32204850  0.81000250  1
  H  H37  1  0.81783950  0.67795150  0.93999750  1
  H  H38  1  0.68216050  0.67795150  0.81000250  1
  H  H39  1  0.18216050  0.32204850  0.93999750  1
  H  H40  1  0.17795150  0.81783950  0.68999750  1
  H  H41  1  0.17795150  0.68216050  0.56000250  1
  H  H42  1  0.82204850  0.18216050  0.68999750  1
  H  H43  1  0.82204850  0.31783950  0.56000250  1
  H  H44  1  0.35076450  0.47838150  0.75328550  1
  H  H45  1  0.85076450  0.52161850  0.99671450  1
  H  H46  1  0.64923550  0.52161850  0.75328550  1
  H  H47  1  0.14923550  0.47838150  0.99671450  1
  H  H48  1  0.02161850  0.85076450  0.74671450  1
  H  H49  1  0.02161850  0.64923550  0.50328550  1
  H  H50  1  0.97838150  0.14923550  0.74671450  1
  H  H51  1  0.97838150  0.35076450  0.50328550  1
  C  C52  1  0.75000000  0.99443700  0.37500000  1
  C  C53  1  0.25000000  0.00556300  0.37500000  1
  C  C54  1  0.50556300  0.25000000  0.12500000  1
  C  C55  1  0.49443700  0.75000000  0.12500000  1
  C  C56  1  0.25000000  0.49443700  0.87500000  1
  C  C57  1  0.75000000  0.50556300  0.87500000  1
  C  C58  1  0.00556300  0.75000000  0.62500000  1
  C  C59  1  0.99443700  0.25000000  0.62500000  1
  S  S60  1  0.95846800  0.25000000  0.12500000  1
  S  S61  1  0.04153200  0.75000000  0.12500000  1
  S  S62  1  0.25000000  0.45846800  0.37500000  1
  S  S63  1  0.75000000  0.54153200  0.37500000  1
  S  S64  1  0.45846800  0.75000000  0.62500000  1
  S  S65  1  0.54153200  0.25000000  0.62500000  1
  S  S66  1  0.75000000  0.95846800  0.87500000  1
  S  S67  1  0.25000000  0.04153200  0.87500000  1
  N  N68  1  0.75000000  0.13170600  0.37500000  1
  N  N69  1  0.25000000  0.86829400  0.37500000  1
  N  N70  1  0.36829400  0.25000000  0.12500000  1
  N  N71  1  0.63170600  0.75000000  0.12500000  1
  N  N72  1  0.81298400  0.92603900  0.30790100  1
  N  N73  1  0.31298400  0.07396100  0.44209900  1
  N  N74  1  0.18701600  0.07396100  0.30790100  1
  N  N75  1  0.68701600  0.92603900  0.44209900  1
  N  N76  1  0.57396100  0.31298400  0.19209900  1
  N  N77  1  0.57396100  0.18701600  0.05790100  1
  N  N78  1  0.42603900  0.68701600  0.19209900  1
  N  N79  1  0.42603900  0.81298400  0.05790100  1
  N  N80  1  0.25000000  0.63170600  0.87500000  1
  N  N81  1  0.75000000  0.36829400  0.87500000  1
  N  N82  1  0.86829400  0.75000000  0.62500000  1
  N  N83  1  0.13170600  0.25000000  0.62500000  1
  N  N84  1  0.31298400  0.42603900  0.80790100  1
  N  N85  1  0.81298400  0.57396100  0.94209900  1
  N  N86  1  0.68701600  0.57396100  0.80790100  1
  N  N87  1  0.18701600  0.42603900  0.94209900  1
  N  N88  1  0.07396100  0.81298400  0.69209900  1
  N  N89  1  0.07396100  0.68701600  0.55790100  1
  N  N90  1  0.92603900  0.18701600  0.69209900  1
  N  N91  1  0.92603900  0.31298400  0.55790100  1
  O  O92  1  0.05605000  0.33607600  0.18184000  1
  O  O93  1  0.05605000  0.16392400  0.06816000  1
  O  O94  1  0.94395000  0.66392400  0.18184000  1
  O  O95  1  0.94395000  0.83607600  0.06816000  1
  O  O96  1  0.16392400  0.55605000  0.31816000  1
  O  O97  1  0.66392400  0.44395000  0.43184000  1
  O  O98  1  0.83607600  0.44395000  0.31816000  1
  O  O99  1  0.33607600  0.55605000  0.43184000  1
  O  O100  1  0.87265150  0.33795050  0.06628050  1
  O  O101  1  0.87265150  0.16204950  0.18371950  1
  O  O102  1  0.12734850  0.66204950  0.06628050  1
  O  O103  1  0.12734850  0.83795050  0.18371950  1
  O  O104  1  0.16204950  0.37265150  0.43371950  1
  O  O105  1  0.66204950  0.62734850  0.31628050  1
  O  O106  1  0.83795050  0.62734850  0.43371950  1
  O  O107  1  0.33795050  0.37265150  0.31628050  1
  O  O108  1  0.55605000  0.83607600  0.68184000  1
  O  O109  1  0.55605000  0.66392400  0.56816000  1
  O  O110  1  0.44395000  0.16392400  0.68184000  1
  O  O111  1  0.44395000  0.33607600  0.56816000  1
  O  O112  1  0.66392400  0.05605000  0.81816000  1
  O  O113  1  0.16392400  0.94395000  0.93184000  1
  O  O114  1  0.33607600  0.94395000  0.81816000  1
  O  O115  1  0.83607600  0.05605000  0.93184000  1
  O  O116  1  0.37265150  0.83795050  0.56628050  1
  O  O117  1  0.37265150  0.66204950  0.68371950  1
  O  O118  1  0.62734850  0.16204950  0.56628050  1
  O  O119  1  0.62734850  0.33795050  0.68371950  1
  O  O120  1  0.66204950  0.87265150  0.93371950  1
  O  O121  1  0.16204950  0.12734850  0.81628050  1
  O  O122  1  0.33795050  0.12734850  0.93371950  1
  O  O123  1  0.83795050  0.87265150  0.81628050  1
