# generated using pymatgen
data_NaCaAl3(SiO4)3
_symmetry_space_group_name_H-M   'P 1'
_cell_length_a   12.29239900
_cell_length_b   12.43055119
_cell_length_c   12.68345603
_cell_angle_alpha   89.41038605
_cell_angle_beta   89.63924098
_cell_angle_gamma   89.29530305
_symmetry_Int_Tables_number   1
_chemical_formula_structural   NaCaAl3(SiO4)3
_chemical_formula_sum   'Na4 Ca4 Al12 Si12 O48'
_cell_volume   1937.76241995
_cell_formula_units_Z   4
loop_
 _symmetry_equiv_pos_site_id
 _symmetry_equiv_pos_as_xyz
  1  'x, y, z'
loop_
 _atom_site_type_symbol
 _atom_site_label
 _atom_site_symmetry_multiplicity
 _atom_site_fract_x
 _atom_site_fract_y
 _atom_site_fract_z
 _atom_site_occupancy
  Na  Na0  1  0.20234400  0.78280400  0.19316600  1
  Na  Na1  1  0.21398700  0.21086300  0.19333600  1
  Na  Na2  1  0.80296500  0.79013300  0.20821600  1
  Na  Na3  1  0.78841000  0.21556000  0.19544100  1
  Ca  Ca4  1  0.19234300  0.18467100  0.78457400  1
  Ca  Ca5  1  0.81352600  0.20083200  0.78628200  1
  Ca  Ca6  1  0.81746800  0.81650100  0.77888300  1
  Ca  Ca7  1  0.18920900  0.80800300  0.79698900  1
  Al  Al8  1  0.99930900  0.62218100  0.18632200  1
  Al  Al9  1  0.98860200  0.19015800  0.61293500  1
  Al  Al10  1  0.01129100  0.81420700  0.61489100  1
  Al  Al11  1  0.80705300  0.99898800  0.61188300  1
  Al  Al12  1  0.18933400  0.00571000  0.61692800  1
  Al  Al13  1  0.64071100  0.99983000  0.83154300  1
  Al  Al14  1  0.99990000  0.36737100  0.82476900  1
  Al  Al15  1  0.99832700  0.63421800  0.83086800  1
  Al  Al16  1  0.36821500  0.00298600  0.82847100  1
  Al  Al17  1  0.63451300  0.18429600  0.00196300  1
  Al  Al18  1  0.18271600  0.36638900  0.00057500  1
  Al  Al19  1  0.36938500  0.81574200  0.00411600  1
  Si  Si20  1  0.81346500  0.37557300  0.00585700  1
  Si  Si21  1  0.63034900  0.99457500  0.18121900  1
  Si  Si22  1  0.99739700  0.37329100  0.18449500  1
  Si  Si23  1  0.37435200  0.99472400  0.18376000  1
  Si  Si24  1  0.99317000  0.17931300  0.35924400  1
  Si  Si25  1  0.00812200  0.82010500  0.36426700  1
  Si  Si26  1  0.81370400  0.99820300  0.36511000  1
  Si  Si27  1  0.18348600  0.00426600  0.36117700  1
  Si  Si28  1  0.37144900  0.18204200  0.00598900  1
  Si  Si29  1  0.81266200  0.63096600  0.00665600  1
  Si  Si30  1  0.18628700  0.62611200  0.00318900  1
  Si  Si31  1  0.63440600  0.81521800  0.00679800  1
  O  O32  1  0.78236100  0.50374300  0.99395700  1
  O  O33  1  0.29609200  0.28571200  0.03202100  1
  O  O34  1  0.69939100  0.70019200  0.02181900  1
  O  O35  1  0.50795200  0.79225400  0.99828200  1
  O  O36  1  0.29417000  0.69894300  0.01586000  1
  O  O37  1  0.66080900  0.10232100  0.11600400  1
  O  O38  1  0.88658600  0.35577800  0.11337800  1
  O  O39  1  0.10342000  0.34068800  0.11613100  1
  O  O40  1  0.66159500  0.88302200  0.11727400  1
  O  O41  1  0.35130700  0.10267600  0.11254700  1
  O  O42  1  0.88057400  0.65171300  0.11354600  1
  O  O43  1  0.11323200  0.64895800  0.10915100  1
  O  O44  1  0.33984500  0.88631000  0.12385100  1
  O  O45  1  0.99723500  0.49114900  0.23497100  1
  O  O46  1  0.50284900  0.99136500  0.22027500  1
  O  O47  1  0.98454700  0.28022600  0.27739300  1
  O  O48  1  0.29302300  0.01019800  0.28626200  1
  O  O49  1  0.00076100  0.72412300  0.28064000  1
  O  O50  1  0.71260300  0.98781600  0.28228800  1
  O  O51  1  0.88367200  0.10686500  0.32937200  1
  O  O52  1  0.10588700  0.11048700  0.32563700  1
  O  O53  1  0.89501400  0.89361300  0.34218200  1
  O  O54  1  0.11469200  0.89565000  0.32672400  1
  O  O55  1  0.99265300  0.22030700  0.47755900  1
  O  O56  1  0.21872800  0.00670000  0.48124400  1
  O  O57  1  0.02189600  0.77721500  0.48238800  1
  O  O58  1  0.76329200  0.00309700  0.48056300  1
  O  O59  1  0.86720200  0.12192300  0.63951600  1
  O  O60  1  0.10612300  0.11757700  0.64571700  1
  O  O61  1  0.89016700  0.88568200  0.63046500  1
  O  O62  1  0.13030600  0.88177900  0.64916500  1
  O  O63  1  0.28357300  0.02284000  0.71894600  1
  O  O64  1  0.97922200  0.28293300  0.71691800  1
  O  O65  1  0.99855400  0.73017400  0.72846900  1
  O  O66  1  0.72310700  0.97643800  0.72163300  1
  O  O67  1  0.99807300  0.50203600  0.80271800  1
  O  O68  1  0.50494000  0.00337200  0.81168200  1
  O  O69  1  0.69098800  0.11904800  0.89146800  1
  O  O70  1  0.87875500  0.33115600  0.90185600  1
  O  O71  1  0.11767300  0.31381600  0.88839000  1
  O  O72  1  0.68802500  0.88076300  0.90711500  1
  O  O73  1  0.32190500  0.11970100  0.90333800  1
  O  O74  1  0.87502200  0.67712800  0.90056200  1
  O  O75  1  0.11701600  0.67653300  0.90073800  1
  O  O76  1  0.31799800  0.88543200  0.89307900  1
  O  O77  1  0.49715800  0.21154900  0.99398500  1
  O  O78  1  0.70798800  0.30190100  0.02732400  1
  O  O79  1  0.21355700  0.50126700  0.98568500  1
