# generated using pymatgen
data_RbAl3Cd(SiO4)3
_symmetry_space_group_name_H-M   'P 1'
_cell_length_a   12.29791000
_cell_length_b   12.32493278
_cell_length_c   12.39028007
_cell_angle_alpha   89.36473968
_cell_angle_beta   89.61907905
_cell_angle_gamma   89.79000993
_symmetry_Int_Tables_number   1
_chemical_formula_structural   RbAl3Cd(SiO4)3
_chemical_formula_sum   'Rb4 Al12 Cd4 Si12 O48'
_cell_volume   1877.83703166
_cell_formula_units_Z   4
loop_
 _symmetry_equiv_pos_site_id
 _symmetry_equiv_pos_as_xyz
  1  'x, y, z'
loop_
 _atom_site_type_symbol
 _atom_site_label
 _atom_site_symmetry_multiplicity
 _atom_site_fract_x
 _atom_site_fract_y
 _atom_site_fract_z
 _atom_site_occupancy
  Rb  Rb0  1  0.53137100  0.03157300  0.50720200  1
  Rb  Rb1  1  0.02838500  0.47148300  0.55356100  1
  Rb  Rb2  1  0.47696700  0.48787700  0.02461100  1
  Rb  Rb3  1  0.71187200  0.66844100  0.72919000  1
  Al  Al4  1  0.62504500  0.99701200  0.18681700  1
  Al  Al5  1  0.00217800  0.36094400  0.81443900  1
  Al  Al6  1  0.19361500  0.61640500  0.01093900  1
  Al  Al7  1  0.98546900  0.61471200  0.19224200  1
  Al  Al8  1  0.80613300  0.62231900  0.99094400  1
  Al  Al9  1  0.01004000  0.62501600  0.81307400  1
  Al  Al10  1  0.35869600  0.83164200  0.00207300  1
  Al  Al11  1  0.63190400  0.82689900  0.99641600  1
  Al  Al12  1  0.99673000  0.82682700  0.36707300  1
  Al  Al13  1  0.00555500  0.83596900  0.63767300  1
  Al  Al14  1  0.81758600  0.00554100  0.63168600  1
  Al  Al15  1  0.36877100  0.00300200  0.81113000  1
  Cd  Cd16  1  0.18986700  0.78881800  0.18334900  1
  Cd  Cd17  1  0.81481600  0.79762900  0.19600800  1
  Cd  Cd18  1  0.18359800  0.79564400  0.80227200  1
  Cd  Cd19  1  0.85078700  0.84747200  0.86041700  1
  Si  Si20  1  0.36924900  0.00366300  0.18922900  1
  Si  Si21  1  0.18341000  0.99944000  0.36648700  1
  Si  Si22  1  0.80761800  0.00193700  0.37522800  1
  Si  Si23  1  0.62873600  0.01125400  0.81238700  1
  Si  Si24  1  0.37502000  0.18334400  0.00220600  1
  Si  Si25  1  0.62086500  0.18651900  0.99677800  1
  Si  Si26  1  0.99439400  0.18012300  0.36993100  1
  Si  Si27  1  0.01045900  0.18973300  0.61357500  1
  Si  Si28  1  0.18383600  0.36229500  0.00247000  1
  Si  Si29  1  0.99071700  0.35700700  0.17472100  1
  Si  Si30  1  0.81715200  0.35660600  0.98821900  1
  Si  Si31  1  0.19562100  0.01194700  0.61905500  1
  O  O32  1  0.29360300  0.02289400  0.29705500  1
  O  O33  1  0.69548200  0.01216500  0.30874900  1
  O  O34  1  0.31042700  0.01794400  0.68133100  1
  O  O35  1  0.50620500  0.97634900  0.78307800  1
  O  O36  1  0.77741100  0.97331900  0.49986200  1
  O  O37  1  0.69445200  0.02436500  0.69953300  1
  O  O38  1  0.36882400  0.11223900  0.11465600  1
  O  O39  1  0.09926700  0.09990500  0.35356100  1
  O  O40  1  0.63627300  0.10735000  0.09911800  1
  O  O41  1  0.12780000  0.12486000  0.61926000  1
  O  O42  1  0.88177300  0.11155700  0.36636100  1
  O  O43  1  0.35319200  0.11288500  0.89678300  1
  O  O44  1  0.90873100  0.11137000  0.63570300  1
  O  O45  1  0.63550000  0.12257400  0.88222500  1
  O  O46  1  0.49690400  0.24088700  0.99785600  1
  O  O47  1  0.00441800  0.23961100  0.48707500  1
  O  O48  1  0.29020000  0.28263700  0.01564800  1
  O  O49  1  0.99487600  0.27146100  0.27622100  1
  O  O50  1  0.70096200  0.29114600  0.99840200  1
  O  O51  1  0.01504800  0.29393900  0.68948300  1
  O  O52  1  0.10302000  0.33900500  0.10663000  1
  O  O53  1  0.88366500  0.33248100  0.10170100  1
  O  O54  1  0.12136400  0.34490800  0.89105600  1
  O  O55  1  0.88687900  0.31700400  0.88635800  1
  O  O56  1  0.23873100  0.48287000  0.01383900  1
  O  O57  1  0.98457900  0.47764700  0.22473100  1
  O  O58  1  0.78326800  0.48485600  0.97775200  1
  O  O59  1  0.98515300  0.49632100  0.77056000  1
  O  O60  1  0.10642100  0.65125800  0.12146800  1
  O  O61  1  0.86849300  0.65444900  0.11479600  1
  O  O62  1  0.12865300  0.65167000  0.88928700  1
  O  O63  1  0.89256300  0.67871200  0.88426700  1
  O  O64  1  0.30198000  0.70498900  0.03234200  1
  O  O65  1  0.68805300  0.69916900  0.96920400  1
  O  O66  1  0.97913900  0.70603700  0.29916700  1
  O  O67  1  0.03475500  0.71409000  0.70395000  1
  O  O68  1  0.99497200  0.83098500  0.50249800  1
  O  O69  1  0.49549000  0.83786300  0.99445900  1
  O  O70  1  0.30937500  0.90558400  0.12077100  1
  O  O71  1  0.68295500  0.88006900  0.12012500  1
  O  O72  1  0.12514100  0.88781800  0.31888100  1
  O  O73  1  0.88200200  0.90428900  0.31800500  1
  O  O74  1  0.12199600  0.91487100  0.67641100  1
  O  O75  1  0.88349600  0.89065100  0.69603700  1
  O  O76  1  0.30504100  0.88852000  0.87917800  1
  O  O77  1  0.68849200  0.91110100  0.88607000  1
  O  O78  1  0.48978000  0.97205800  0.22957800  1
  O  O79  1  0.22073100  0.98057200  0.49151500  1
