# generated using pymatgen
data_KGaO2
_symmetry_space_group_name_H-M   'P 1'
_cell_length_a   5.70614600
_cell_length_b   11.27700000
_cell_length_c   16.05586200
_cell_angle_alpha   90.00000000
_cell_angle_beta   90.00000000
_cell_angle_gamma   90.00000000
_symmetry_Int_Tables_number   1
_chemical_formula_structural   KGaO2
_chemical_formula_sum   'K16 Ga16 O32'
_cell_volume   1033.16595469
_cell_formula_units_Z   16
loop_
 _symmetry_equiv_pos_site_id
 _symmetry_equiv_pos_as_xyz
  1  'x, y, z'
loop_
 _atom_site_type_symbol
 _atom_site_label
 _atom_site_symmetry_multiplicity
 _atom_site_fract_x
 _atom_site_fract_y
 _atom_site_fract_z
 _atom_site_occupancy
  K  K0  1  0.71137300  0.74367500  0.68326700  1
  K  K1  1  0.72087300  0.99712100  0.56577900  1
  K  K2  1  0.22087300  0.99712100  0.93422100  1
  K  K3  1  0.27912700  0.00287900  0.43422100  1
  K  K4  1  0.28862700  0.24367500  0.81673300  1
  K  K5  1  0.72087300  0.50287900  0.06577900  1
  K  K6  1  0.22087300  0.50287900  0.43422100  1
  K  K7  1  0.28862700  0.25632500  0.31673300  1
  K  K8  1  0.21137300  0.74367500  0.81673300  1
  K  K9  1  0.77912700  0.49712100  0.56577900  1
  K  K10  1  0.21137300  0.75632500  0.31673300  1
  K  K11  1  0.71137300  0.75632500  0.18326700  1
  K  K12  1  0.27912700  0.49712100  0.93422100  1
  K  K13  1  0.77912700  0.00287900  0.06577900  1
  K  K14  1  0.78862700  0.25632500  0.18326700  1
  K  K15  1  0.78862700  0.24367500  0.68326700  1
  Ga  Ga16  1  0.78367100  0.23155500  0.93773000  1
  Ga  Ga17  1  0.68084500  0.98620100  0.81422600  1
  Ga  Ga18  1  0.31915500  0.48620100  0.68577400  1
  Ga  Ga19  1  0.18084500  0.51379900  0.18577400  1
  Ga  Ga20  1  0.31915500  0.01379900  0.18577400  1
  Ga  Ga21  1  0.68084500  0.51379900  0.31422600  1
  Ga  Ga22  1  0.28367100  0.23155500  0.56227000  1
  Ga  Ga23  1  0.18084500  0.98620100  0.68577400  1
  Ga  Ga24  1  0.21632900  0.76844500  0.06227000  1
  Ga  Ga25  1  0.78367100  0.26844500  0.43773000  1
  Ga  Ga26  1  0.71632900  0.76844500  0.43773000  1
  Ga  Ga27  1  0.81915500  0.01379900  0.31422600  1
  Ga  Ga28  1  0.28367100  0.26844500  0.06227000  1
  Ga  Ga29  1  0.81915500  0.48620100  0.81422600  1
  Ga  Ga30  1  0.71632900  0.73155500  0.93773000  1
  Ga  Ga31  1  0.21632900  0.73155500  0.56227000  1
  O  O32  1  0.81223600  0.92358400  0.41155900  1
  O  O33  1  0.20808500  0.67560900  0.15861700  1
  O  O34  1  0.79191500  0.32439100  0.84138300  1
  O  O35  1  0.88432100  0.02265500  0.72843800  1
  O  O36  1  0.88432100  0.47734500  0.22843800  1
  O  O37  1  0.29191500  0.17560900  0.15861700  1
  O  O38  1  0.08781500  0.29008400  0.47918000  1
  O  O39  1  0.41218500  0.79008400  0.47918000  1
  O  O40  1  0.31223600  0.57641600  0.58844100  1
  O  O41  1  0.79191500  0.17560900  0.34138300  1
  O  O42  1  0.58781500  0.29008400  0.02082000  1
  O  O43  1  0.41218500  0.70991600  0.97918000  1
  O  O44  1  0.38432100  0.02265500  0.77156200  1
  O  O45  1  0.81223600  0.57641600  0.91155900  1
  O  O46  1  0.20808500  0.82439100  0.65861700  1
  O  O47  1  0.68776400  0.42358400  0.41155900  1
  O  O48  1  0.58781500  0.20991600  0.52082000  1
  O  O49  1  0.61567900  0.52265500  0.72843800  1
  O  O50  1  0.18776400  0.42358400  0.08844100  1
  O  O51  1  0.08781500  0.20991600  0.97918000  1
  O  O52  1  0.11567900  0.97734500  0.27156200  1
  O  O53  1  0.11567900  0.52265500  0.77156200  1
  O  O54  1  0.91218500  0.70991600  0.52082000  1
  O  O55  1  0.18776400  0.07641600  0.58844100  1
  O  O56  1  0.31223600  0.92358400  0.08844100  1
  O  O57  1  0.29191500  0.32439100  0.65861700  1
  O  O58  1  0.38432100  0.47734500  0.27156200  1
  O  O59  1  0.61567900  0.97734500  0.22843800  1
  O  O60  1  0.91218500  0.79008400  0.02082000  1
  O  O61  1  0.70808500  0.82439100  0.84138300  1
  O  O62  1  0.68776400  0.07641600  0.91155900  1
  O  O63  1  0.70808500  0.67560900  0.34138300  1
