# generated using pymatgen
data_Nb3Te4ClO15
_symmetry_space_group_name_H-M   'P 1'
_cell_length_a   7.97047900
_cell_length_b   10.43363160
_cell_length_c   19.65221413
_cell_angle_alpha   85.54770045
_cell_angle_beta   78.31271999
_cell_angle_gamma   67.58055780
_symmetry_Int_Tables_number   1
_chemical_formula_structural   Nb3Te4ClO15
_chemical_formula_sum   'Nb12 Te16 Cl4 O60'
_cell_volume   1479.45110882
_cell_formula_units_Z   4
loop_
 _symmetry_equiv_pos_site_id
 _symmetry_equiv_pos_as_xyz
  1  'x, y, z'
loop_
 _atom_site_type_symbol
 _atom_site_label
 _atom_site_symmetry_multiplicity
 _atom_site_fract_x
 _atom_site_fract_y
 _atom_site_fract_z
 _atom_site_occupancy
  Nb  Nb0  1  0.51317500  0.25563400  0.49066800  1
  Nb  Nb1  1  0.98206400  0.75298300  0.50573300  1
  Nb  Nb2  1  0.24016700  0.75347600  0.99034400  1
  Nb  Nb3  1  0.73762700  0.74805400  0.99422300  1
  Nb  Nb4  1  0.87653600  0.73979600  0.25202200  1
  Nb  Nb5  1  0.75701400  0.24701700  0.01026600  1
  Nb  Nb6  1  0.36978200  0.75825200  0.24728300  1
  Nb  Nb7  1  0.26095700  0.25126300  0.00496000  1
  Nb  Nb8  1  0.63126200  0.23924000  0.75337100  1
  Nb  Nb9  1  0.01864100  0.24849900  0.49366400  1
  Nb  Nb10  1  0.12516000  0.25861600  0.74746300  1
  Nb  Nb11  1  0.48642600  0.74793400  0.50889800  1
  Te  Te12  1  0.23220800  0.53393800  0.62638400  1
  Te  Te13  1  0.99047700  0.03582700  0.37072600  1
  Te  Te14  1  0.10331000  0.53628400  0.87095200  1
  Te  Te15  1  0.26858500  0.49753000  0.35609100  1
  Te  Te16  1  0.10905700  0.03223700  0.12532700  1
  Te  Te17  1  0.62588400  0.00292400  0.14387900  1
  Te  Te18  1  0.89722500  0.46349300  0.12890100  1
  Te  Te19  1  0.62416700  0.50191900  0.86275200  1
  Te  Te20  1  0.51522600  0.00233800  0.36217400  1
  Te  Te21  1  0.00785100  0.96603400  0.62869700  1
  Te  Te22  1  0.37297900  0.49731700  0.13769500  1
  Te  Te23  1  0.76697000  0.46674700  0.37538200  1
  Te  Te24  1  0.89235900  0.96590100  0.87617400  1
  Te  Te25  1  0.49014500  0.99954000  0.63721200  1
  Te  Te26  1  0.72695500  0.50346400  0.64346200  1
  Te  Te27  1  0.37533100  0.99488400  0.85529500  1
  Cl  Cl28  1  0.54131900  0.25445500  0.24931600  1
  Cl  Cl29  1  0.94864500  0.74724000  0.75009100  1
  Cl  Cl30  1  0.04543600  0.25483800  0.24979400  1
  Cl  Cl31  1  0.45366800  0.75265100  0.75181700  1
  O  O32  1  0.75944200  0.74528200  0.50192800  1
  O  O33  1  0.15598200  0.09994600  0.81807800  1
  O  O34  1  0.59786800  0.40912400  0.07613100  1
  O  O35  1  0.86589600  0.88891600  0.58985500  1
  O  O36  1  0.86205900  0.37541600  0.56992900  1
  O  O37  1  0.13561400  0.62678100  0.42921600  1
  O  O38  1  0.73690200  0.36900000  0.92876900  1
  O  O39  1  0.25967200  0.88140200  0.90737100  1
  O  O40  1  0.78775600  0.09738500  0.68142500  1
  O  O41  1  0.97530600  0.91550700  0.44680800  1
  O  O42  1  0.42096300  0.91048800  0.57390000  1
  O  O43  1  0.51432000  0.39164600  0.82714800  1
  O  O44  1  0.07506800  0.39997200  0.81856800  1
  O  O45  1  0.59613600  0.58392200  0.44882300  1
  O  O46  1  0.12858600  0.91639400  0.05113900  1
  O  O47  1  0.20653500  0.89942000  0.31831900  1
  O  O48  1  0.87013700  0.08285100  0.95027500  1
  O  O49  1  0.44327100  0.38116900  0.40806500  1
  O  O50  1  0.57486200  0.39979300  0.68278900  1
  O  O51  1  0.24112700  0.75458800  0.53410100  1
  O  O52  1  0.84293600  0.60813000  0.32713300  1
  O  O53  1  0.46689800  0.86787600  0.42642200  1
  O  O54  1  0.31248900  0.12458300  0.92839200  1
  O  O55  1  0.93097100  0.59728800  0.18117300  1
  O  O56  1  0.69175800  0.87757300  0.06935400  1
  O  O57  1  0.15455300  0.38846800  0.08923900  1
  O  O58  1  0.24405100  0.25002000  0.49794400  1
  O  O59  1  0.55026600  0.62027300  0.59227500  1
  O  O60  1  0.84558900  0.89942000  0.18137600  1
  O  O61  1  0.75848900  0.25075800  0.46306000  1
  O  O62  1  0.77033300  0.89048300  0.32711700  1
  O  O63  1  0.97294300  0.40941400  0.42211000  1
  O  O64  1  0.02657200  0.59635900  0.57978300  1
  O  O65  1  0.28168100  0.89124700  0.17196800  1
  O  O66  1  0.26018400  0.63027800  0.07121300  1
  O  O67  1  0.40153500  0.41761500  0.55169000  1
  O  O68  1  0.69837700  0.90682600  0.92178500  1
  O  O69  1  0.72169900  0.10693300  0.82786200  1
  O  O70  1  0.48356100  0.60681100  0.17356800  1
  O  O71  1  0.42280000  0.60057200  0.31828700  1
  O  O72  1  0.87963400  0.29044300  0.74738000  1
  O  O73  1  0.40050500  0.59137100  0.92466600  1
  O  O74  1  0.15512200  0.39186500  0.67234300  1
  O  O75  1  0.84476900  0.61154800  0.91015800  1
  O  O76  1  0.12317800  0.70445500  0.25164900  1
  O  O77  1  0.53749500  0.13294000  0.57165800  1
  O  O78  1  0.73622600  0.12142900  0.09386400  1
  O  O79  1  0.49272600  0.24835500  0.00237300  1
  O  O80  1  0.29933600  0.09518200  0.07933300  1
  O  O81  1  0.50405700  0.75408000  0.99720100  1
  O  O82  1  0.01892800  0.08916600  0.55344900  1
  O  O83  1  0.23365300  0.10798200  0.67245600  1
  O  O84  1  0.02626900  0.74919400  0.96376400  1
  O  O85  1  0.16748000  0.41349700  0.94597300  1
  O  O86  1  0.13390900  0.11389200  0.40860800  1
  O  O87  1  0.58150900  0.79442400  0.24585100  1
  O  O88  1  0.83191700  0.58805300  0.05436000  1
  O  O89  1  0.42053300  0.20367600  0.75198400  1
  O  O90  1  0.97175100  0.25312600  0.03481500  1
  O  O91  1  0.58528200  0.09007900  0.42540400  1
