# generated using pymatgen
data_Cd(HO)2
_symmetry_space_group_name_H-M   'P 1'
_cell_length_a   6.23763800
_cell_length_b   3.53838200
_cell_length_c   4.80522531
_cell_angle_alpha   90.00000000
_cell_angle_beta   95.11710533
_cell_angle_gamma   90.00000000
_symmetry_Int_Tables_number   1
_chemical_formula_structural   Cd(HO)2
_chemical_formula_sum   'Cd2 H4 O4'
_cell_volume   105.63413812
_cell_formula_units_Z   2
loop_
 _symmetry_equiv_pos_site_id
 _symmetry_equiv_pos_as_xyz
  1  'x, y, z'
loop_
 _atom_site_type_symbol
 _atom_site_label
 _atom_site_symmetry_multiplicity
 _atom_site_fract_x
 _atom_site_fract_y
 _atom_site_fract_z
 _atom_site_occupancy
  Cd  Cd0  1  0.00000000  0.02282200  0.00000000  1
  Cd  Cd1  1  0.50000000  0.52282200  0.00000000  1
  H  H2  1  0.70751450  0.11841050  0.43048000  1
  H  H3  1  0.79248550  0.61841050  0.56952000  1
  H  H4  1  0.20751450  0.61841050  0.43048000  1
  H  H5  1  0.29248550  0.11841050  0.56952000  1
  O  O6  1  0.69339350  0.02824850  0.23594900  1
  O  O7  1  0.80660650  0.52824850  0.76405100  1
  O  O8  1  0.19339350  0.52824850  0.23594900  1
  O  O9  1  0.30660650  0.02824850  0.76405100  1
