# generated using pymatgen
data_Na2Hf(HO)6
_symmetry_space_group_name_H-M   'P 1'
_cell_length_a   6.09433581
_cell_length_b   6.09433581
_cell_length_c   14.24266429
_cell_angle_alpha   90.00000000
_cell_angle_beta   90.00000000
_cell_angle_gamma   120.00000000
_symmetry_Int_Tables_number   1
_chemical_formula_structural   Na2Hf(HO)6
_chemical_formula_sum   'Na6 Hf3 H18 O18'
_cell_volume   458.11512622
_cell_formula_units_Z   3
loop_
 _symmetry_equiv_pos_site_id
 _symmetry_equiv_pos_as_xyz
  1  'x, y, z'
loop_
 _atom_site_type_symbol
 _atom_site_label
 _atom_site_symmetry_multiplicity
 _atom_site_fract_x
 _atom_site_fract_y
 _atom_site_fract_z
 _atom_site_occupancy
  Na  Na0  1  0.33333333  0.66666667  0.83148667  1
  Na  Na1  1  0.33333333  0.66666667  0.50184667  1
  Na  Na2  1  0.00000000  0.00000000  0.16482000  1
  Na  Na3  1  0.00000000  0.00000000  0.83518000  1
  Na  Na4  1  0.66666667  0.33333333  0.49815333  1
  Na  Na5  1  0.66666667  0.33333333  0.16851333  1
  Hf  Hf6  1  0.33333333  0.66666667  0.16666667  1
  Hf  Hf7  1  1.00000000  0.00000000  0.50000000  1
  Hf  Hf8  1  0.66666667  0.33333333  0.83333333  1
  H  H9  1  0.62550100  0.67009900  0.01781500  1
  H  H10  1  0.32990100  0.95540200  0.01781500  1
  H  H11  1  0.04459800  0.37449900  0.01781500  1
  H  H12  1  0.04116567  0.66323433  0.31551833  1
  H  H13  1  0.33676567  0.37793133  0.31551833  1
  H  H14  1  0.62206867  0.95883433  0.31551833  1
  H  H15  1  0.29216767  0.00343233  0.35114833  1
  H  H16  1  0.99656767  0.28873533  0.35114833  1
  H  H17  1  0.71126467  0.70783233  0.35114833  1
  H  H18  1  0.70783233  0.99656767  0.64885167  1
  H  H19  1  0.00343233  0.71126467  0.64885167  1
  H  H20  1  0.28873533  0.29216767  0.64885167  1
  H  H21  1  0.95883433  0.33676567  0.68448167  1
  H  H22  1  0.66323433  0.62206867  0.68448167  1
  H  H23  1  0.37793133  0.04116567  0.68448167  1
  H  H24  1  0.37449900  0.32990100  0.98218500  1
  H  H25  1  0.67009900  0.04459800  0.98218500  1
  H  H26  1  0.95540200  0.62550100  0.98218500  1
  O  O27  1  0.62013933  0.66541767  0.08620767  1
  O  O28  1  0.33458233  0.95472167  0.08620767  1
  O  O29  1  0.04527833  0.37986067  0.08620767  1
  O  O30  1  0.04652733  0.66791567  0.24712567  1
  O  O31  1  0.33208433  0.37861167  0.24712567  1
  O  O32  1  0.62138833  0.95347267  0.24712567  1
  O  O33  1  0.28680600  0.99875100  0.41954100  1
  O  O34  1  0.00124900  0.28805500  0.41954100  1
  O  O35  1  0.71194500  0.71319400  0.41954100  1
  O  O36  1  0.71319400  0.00124900  0.58045900  1
  O  O37  1  0.99875100  0.71194500  0.58045900  1
  O  O38  1  0.28805500  0.28680600  0.58045900  1
  O  O39  1  0.95347267  0.33208433  0.75287433  1
  O  O40  1  0.66791567  0.62138833  0.75287433  1
  O  O41  1  0.37861167  0.04652733  0.75287433  1
  O  O42  1  0.37986067  0.33458233  0.91379233  1
  O  O43  1  0.66541767  0.04527833  0.91379233  1
  O  O44  1  0.95472167  0.62013933  0.91379233  1
