# generated using pymatgen
data_NaGeSbO5
_symmetry_space_group_name_H-M   'P 1'
_cell_length_a   6.87100000
_cell_length_b   9.02068000
_cell_length_c   7.35317785
_cell_angle_alpha   90.00000000
_cell_angle_beta   115.18178917
_cell_angle_gamma   90.00000000
_symmetry_Int_Tables_number   1
_chemical_formula_structural   NaGeSbO5
_chemical_formula_sum   'Na4 Ge4 Sb4 O20'
_cell_volume   412.44381943
_cell_formula_units_Z   4
loop_
 _symmetry_equiv_pos_site_id
 _symmetry_equiv_pos_as_xyz
  1  'x, y, z'
loop_
 _atom_site_type_symbol
 _atom_site_label
 _atom_site_symmetry_multiplicity
 _atom_site_fract_x
 _atom_site_fract_y
 _atom_site_fract_z
 _atom_site_occupancy
  Na  Na0  1  0.50000000  0.16699400  0.25000000  1
  Na  Na1  1  0.50000000  0.83300600  0.75000000  1
  Na  Na2  1  0.00000000  0.66699400  0.25000000  1
  Na  Na3  1  0.00000000  0.33300600  0.75000000  1
  Ge  Ge4  1  0.50000000  0.18627700  0.75000000  1
  Ge  Ge5  1  0.50000000  0.81372300  0.25000000  1
  Ge  Ge6  1  0.00000000  0.68627700  0.75000000  1
  Ge  Ge7  1  0.00000000  0.31372300  0.25000000  1
  Sb  Sb8  1  0.00000000  0.00000000  0.50000000  1
  Sb  Sb9  1  0.00000000  0.00000000  0.00000000  1
  Sb  Sb10  1  0.50000000  0.50000000  0.50000000  1
  Sb  Sb11  1  0.50000000  0.50000000  0.00000000  1
  O  O12  1  0.50000000  0.42054200  0.25000000  1
  O  O13  1  0.50000000  0.57945800  0.75000000  1
  O  O14  1  0.60839400  0.29690400  0.61508900  1
  O  O15  1  0.39160600  0.29690400  0.88491100  1
  O  O16  1  0.39160600  0.70309600  0.38491100  1
  O  O17  1  0.60839400  0.70309600  0.11508900  1
  O  O18  1  0.69184750  0.93788650  0.41976500  1
  O  O19  1  0.30815250  0.93788650  0.08023500  1
  O  O20  1  0.30815250  0.06211350  0.58023500  1
  O  O21  1  0.69184750  0.06211350  0.91976500  1
  O  O22  1  0.00000000  0.92054200  0.25000000  1
  O  O23  1  0.00000000  0.07945800  0.75000000  1
  O  O24  1  0.10839400  0.79690400  0.61508900  1
  O  O25  1  0.89160600  0.79690400  0.88491100  1
  O  O26  1  0.89160600  0.20309600  0.38491100  1
  O  O27  1  0.10839400  0.20309600  0.11508900  1
  O  O28  1  0.19184750  0.43788650  0.41976500  1
  O  O29  1  0.80815250  0.43788650  0.08023500  1
  O  O30  1  0.80815250  0.56211350  0.58023500  1
  O  O31  1  0.19184750  0.56211350  0.91976500  1
