# generated using pymatgen
data_Ca2B5H2ClO10
_symmetry_space_group_name_H-M   'P 1'
_cell_length_a   6.36070600
_cell_length_b   11.41685600
_cell_length_c   11.53456526
_cell_angle_alpha   90.00000000
_cell_angle_beta   90.06429689
_cell_angle_gamma   90.00000000
_symmetry_Int_Tables_number   1
_chemical_formula_structural   Ca2B5H2ClO10
_chemical_formula_sum   'Ca8 B20 H8 Cl4 O40'
_cell_volume   837.63111784
_cell_formula_units_Z   4
loop_
 _symmetry_equiv_pos_site_id
 _symmetry_equiv_pos_as_xyz
  1  'x, y, z'
loop_
 _atom_site_type_symbol
 _atom_site_label
 _atom_site_symmetry_multiplicity
 _atom_site_fract_x
 _atom_site_fract_y
 _atom_site_fract_z
 _atom_site_occupancy
  Ca  Ca0  1  0.99963000  0.25134200  0.49951800  1
  Ca  Ca1  1  0.49963000  0.24865800  0.99951800  1
  Ca  Ca2  1  0.84216200  0.47066000  0.77390300  1
  Ca  Ca3  1  0.34216200  0.02934000  0.27390300  1
  Ca  Ca4  1  0.49963000  0.75134200  0.49951800  1
  Ca  Ca5  1  0.99963000  0.74865800  0.99951800  1
  Ca  Ca6  1  0.34216200  0.97066000  0.77390300  1
  Ca  Ca7  1  0.84216200  0.52934000  0.27390300  1
  B  B8  1  0.64597650  0.19553350  0.76056600  1
  B  B9  1  0.14597650  0.30446650  0.26056600  1
  B  B10  1  0.88295400  0.02788100  0.77171900  1
  B  B11  1  0.38295400  0.47211900  0.27171900  1
  B  B12  1  0.32049500  0.30638000  0.72519000  1
  B  B13  1  0.82049500  0.19362000  0.22519000  1
  B  B14  1  0.00819300  0.22935700  0.83606000  1
  B  B15  1  0.50819300  0.27064300  0.33606000  1
  B  B16  1  0.54113050  0.25712250  0.56012800  1
  B  B17  1  0.04113050  0.24287750  0.06012800  1
  B  B18  1  0.14597650  0.69553350  0.76056600  1
  B  B19  1  0.64597650  0.80446650  0.26056600  1
  B  B20  1  0.38295400  0.52788100  0.77171900  1
  B  B21  1  0.88295400  0.97211900  0.27171900  1
  B  B22  1  0.82049500  0.80638000  0.72519000  1
  B  B23  1  0.32049500  0.69362000  0.22519000  1
  B  B24  1  0.50819300  0.72935700  0.83606000  1
  B  B25  1  0.00819300  0.77064300  0.33606000  1
  B  B26  1  0.04113050  0.75712250  0.56012800  1
  B  B27  1  0.54113050  0.74287750  0.06012800  1
  H  H28  1  0.77948450  0.02473450  0.53530600  1
  H  H29  1  0.27948450  0.47526550  0.03530600  1
  H  H30  1  0.52120100  0.49466500  0.54020600  1
  H  H31  1  0.02120100  0.00533500  0.04020600  1
  H  H32  1  0.27948450  0.52473450  0.53530600  1
  H  H33  1  0.77948450  0.97526550  0.03530600  1
  H  H34  1  0.02120100  0.99466500  0.54020600  1
  H  H35  1  0.52120100  0.50533500  0.04020600  1
  Cl  Cl36  1  0.90073550  0.49152350  0.52429100  1
  Cl  Cl37  1  0.40073550  0.00847650  0.02429100  1
  Cl  Cl38  1  0.40073550  0.99152350  0.52429100  1
  Cl  Cl39  1  0.90073550  0.50847650  0.02429100  1
  O  O40  1  0.67795900  0.06504400  0.76675300  1
  O  O41  1  0.17795900  0.43495600  0.26675300  1
  O  O42  1  0.78132400  0.25652700  0.84573100  1
  O  O43  1  0.28132400  0.24347300  0.34573100  1
  O  O44  1  0.69822050  0.23661050  0.64136500  1
  O  O45  1  0.19822050  0.26338950  0.14136500  1
  O  O46  1  0.42716400  0.21231300  0.78951600  1
  O  O47  1  0.92716400  0.28768700  0.28951600  1
  O  O48  1  0.04322000  0.10573500  0.79505100  1
  O  O49  1  0.54322000  0.39426500  0.29505100  1
  O  O50  1  0.11366650  0.24373050  0.94908000  1
  O  O51  1  0.61366650  0.25626950  0.44908000  1
  O  O52  1  0.09920600  0.31409000  0.75288100  1
  O  O53  1  0.59920600  0.18591000  0.25288100  1
  O  O54  1  0.44632300  0.41623900  0.74740700  1
  O  O55  1  0.94632300  0.08376100  0.24740700  1
  O  O56  1  0.33868800  0.28325700  0.59494000  1
  O  O57  1  0.83868800  0.21674300  0.09494000  1
  O  O58  1  0.91794700  0.05007500  0.50909900  1
  O  O59  1  0.41794700  0.44992500  0.00909900  1
  O  O60  1  0.17795900  0.56504400  0.76675300  1
  O  O61  1  0.67795900  0.93495600  0.26675300  1
  O  O62  1  0.28132400  0.75652700  0.84573100  1
  O  O63  1  0.78132400  0.74347300  0.34573100  1
  O  O64  1  0.19822050  0.73661050  0.64136500  1
  O  O65  1  0.69822050  0.76338950  0.14136500  1
  O  O66  1  0.92716400  0.71231300  0.78951600  1
  O  O67  1  0.42716400  0.78768700  0.28951600  1
  O  O68  1  0.54322000  0.60573500  0.79505100  1
  O  O69  1  0.04322000  0.89426500  0.29505100  1
  O  O70  1  0.61366650  0.74373050  0.94908000  1
  O  O71  1  0.11366650  0.75626950  0.44908000  1
  O  O72  1  0.59920600  0.81409000  0.75288100  1
  O  O73  1  0.09920600  0.68591000  0.25288100  1
  O  O74  1  0.94632300  0.91623900  0.74740700  1
  O  O75  1  0.44632300  0.58376100  0.24740700  1
  O  O76  1  0.83868800  0.78325700  0.59494000  1
  O  O77  1  0.33868800  0.71674300  0.09494000  1
  O  O78  1  0.41794700  0.55007500  0.50909900  1
  O  O79  1  0.91794700  0.94992500  0.00909900  1
