# generated using pymatgen
data_SiO2
_symmetry_space_group_name_H-M   'P 1'
_cell_length_a   8.99904700
_cell_length_b   9.27046400
_cell_length_c   16.22883200
_cell_angle_alpha   90.00000000
_cell_angle_beta   90.00000000
_cell_angle_gamma   90.00000000
_symmetry_Int_Tables_number   1
_chemical_formula_structural   SiO2
_chemical_formula_sum   'Si24 O48'
_cell_volume   1353.89584765
_cell_formula_units_Z   24
loop_
 _symmetry_equiv_pos_site_id
 _symmetry_equiv_pos_as_xyz
  1  'x, y, z'
loop_
 _atom_site_type_symbol
 _atom_site_label
 _atom_site_symmetry_multiplicity
 _atom_site_fract_x
 _atom_site_fract_y
 _atom_site_fract_z
 _atom_site_occupancy
  Si  Si0  1  0.15467700  0.85955600  0.39011400  1
  Si  Si1  1  0.84532300  0.14044400  0.89011400  1
  Si  Si2  1  0.34532300  0.85955600  0.89011400  1
  Si  Si3  1  0.65467700  0.14044400  0.39011400  1
  Si  Si4  1  0.04414200  0.64525600  0.07265600  1
  Si  Si5  1  0.95585800  0.35474400  0.57265600  1
  Si  Si6  1  0.45585800  0.64525600  0.57265600  1
  Si  Si7  1  0.54414200  0.35474400  0.07265600  1
  Si  Si8  1  0.19766100  0.41736400  0.34092900  1
  Si  Si9  1  0.80233900  0.58263600  0.84092900  1
  Si  Si10  1  0.30233900  0.41736400  0.84092900  1
  Si  Si11  1  0.69766100  0.58263600  0.34092900  1
  Si  Si12  1  0.98584400  0.33240400  0.76193800  1
  Si  Si13  1  0.01415600  0.66759600  0.26193800  1
  Si  Si14  1  0.51415600  0.33240400  0.26193800  1
  Si  Si15  1  0.48584400  0.66759600  0.76193800  1
  Si  Si16  1  0.15142900  0.59740800  0.50141800  1
  Si  Si17  1  0.84857100  0.40259200  0.00141800  1
  Si  Si18  1  0.34857100  0.59740800  0.00141800  1
  Si  Si19  1  0.65142900  0.40259200  0.50141800  1
  Si  Si20  1  0.00695600  0.16927800  0.41507300  1
  Si  Si21  1  0.99304400  0.83072200  0.91507300  1
  Si  Si22  1  0.49304400  0.16927800  0.91507300  1
  Si  Si23  1  0.50695600  0.83072200  0.41507300  1
  O  O24  1  0.33539400  0.85657900  0.38757300  1
  O  O25  1  0.66460600  0.14342100  0.88757300  1
  O  O26  1  0.16460600  0.85657900  0.88757300  1
  O  O27  1  0.83539400  0.14342100  0.38757300  1
  O  O28  1  0.09135800  0.74598400  0.45908900  1
  O  O29  1  0.90864200  0.25401600  0.95908900  1
  O  O30  1  0.40864200  0.74598400  0.95908900  1
  O  O31  1  0.59135800  0.25401600  0.45908900  1
  O  O32  1  0.08937700  0.81342900  0.29993800  1
  O  O33  1  0.91062300  0.18657100  0.79993800  1
  O  O34  1  0.41062300  0.81342900  0.79993800  1
  O  O35  1  0.58937700  0.18657100  0.29993800  1
  O  O36  1  0.09853700  0.01946400  0.41366900  1
  O  O37  1  0.90146300  0.98053600  0.91366900  1
  O  O38  1  0.40146300  0.01946400  0.91366900  1
  O  O39  1  0.59853700  0.98053600  0.41366900  1
  O  O40  1  0.14439800  0.36086000  0.80660300  1
  O  O41  1  0.85560200  0.63914000  0.30660300  1
  O  O42  1  0.35560200  0.36086000  0.30660300  1
  O  O43  1  0.64439800  0.63914000  0.80660300  1
  O  O44  1  0.87426500  0.46890800  0.77582400  1
  O  O45  1  0.12573500  0.53109200  0.27582400  1
  O  O46  1  0.62573500  0.46890800  0.27582400  1
  O  O47  1  0.37426500  0.53109200  0.77582400  1
  O  O48  1  0.01220500  0.30986900  0.66388400  1
  O  O49  1  0.98779500  0.69013100  0.16388400  1
  O  O50  1  0.48779500  0.30986900  0.16388400  1
  O  O51  1  0.51220500  0.69013100  0.66388400  1
  O  O52  1  0.98458800  0.76679100  0.00843500  1
  O  O53  1  0.01541200  0.23320900  0.50843500  1
  O  O54  1  0.51541200  0.76679100  0.50843500  1
  O  O55  1  0.48458800  0.23320900  0.00843500  1
  O  O56  1  0.22468500  0.63770800  0.07078900  1
  O  O57  1  0.77531500  0.36229200  0.57078900  1
  O  O58  1  0.27531500  0.63770800  0.57078900  1
  O  O59  1  0.72468500  0.36229200  0.07078900  1
  O  O60  1  0.98350800  0.48575300  0.04688700  1
  O  O61  1  0.01649200  0.51424700  0.54688700  1
  O  O62  1  0.51649200  0.48575300  0.54688700  1
  O  O63  1  0.48350800  0.51424700  0.04688700  1
  O  O64  1  0.08348500  0.28256200  0.35128700  1
  O  O65  1  0.91651500  0.71743800  0.85128700  1
  O  O66  1  0.41651500  0.28256200  0.85128700  1
  O  O67  1  0.58348500  0.71743800  0.35128700  1
  O  O68  1  0.22568400  0.49543500  0.42999300  1
  O  O69  1  0.77431600  0.50456500  0.92999300  1
  O  O70  1  0.27431600  0.49543500  0.92999300  1
  O  O71  1  0.72568400  0.50456500  0.42999300  1
