# generated using pymatgen
data_Al(HO)3
_symmetry_space_group_name_H-M   'P 1'
_cell_length_a   5.18167600
_cell_length_b   8.59706127
_cell_length_c   9.49889255
_cell_angle_alpha   89.03623213
_cell_angle_beta   89.91596441
_cell_angle_gamma   89.88516926
_symmetry_Int_Tables_number   1
_chemical_formula_structural   Al(HO)3
_chemical_formula_sum   'Al8 H24 O24'
_cell_volume   423.08778697
_cell_formula_units_Z   8
loop_
 _symmetry_equiv_pos_site_id
 _symmetry_equiv_pos_as_xyz
  1  'x, y, z'
loop_
 _atom_site_type_symbol
 _atom_site_label
 _atom_site_symmetry_multiplicity
 _atom_site_fract_x
 _atom_site_fract_y
 _atom_site_fract_z
 _atom_site_occupancy
  Al  Al0  1  0.98711800  0.33859200  0.50575300  1
  Al  Al1  1  0.50909500  0.81765400  0.01516900  1
  Al  Al2  1  0.99579100  0.68491400  0.48373100  1
  Al  Al3  1  0.48542500  0.16174200  0.00122500  1
  Al  Al4  1  0.51042400  0.16609300  0.50701500  1
  Al  Al5  1  0.99975700  0.68390100  0.00665800  1
  Al  Al6  1  0.49346800  0.83399300  0.48690800  1
  Al  Al7  1  0.97609900  0.32347600  0.99516300  1
  H  H8  1  0.38203800  0.41788700  0.61531300  1
  H  H9  1  0.19349200  0.81570400  0.23001100  1
  H  H10  1  0.69694200  0.68618700  0.27065500  1
  H  H11  1  0.84757100  0.06342400  0.88333000  1
  H  H12  1  0.91997200  0.92422600  0.59706900  1
  H  H13  1  0.67634400  0.31279700  0.20621900  1
  H  H14  1  0.10000600  0.05534500  0.40226600  1
  H  H15  1  0.16981100  0.17804100  0.27839100  1
  H  H16  1  0.32188500  0.68105000  0.80065900  1
  H  H17  1  0.38854900  0.99255700  0.70946500  1
  H  H18  1  0.12618200  0.48669900  0.22694400  1
  H  H19  1  0.34467800  0.47511000  0.10146800  1
  H  H20  1  0.61431600  0.01257400  0.28795500  1
  H  H21  1  0.67970500  0.51916200  0.90555500  1
  H  H22  1  0.89477200  0.51497600  0.70621200  1
  H  H23  1  0.81523600  0.98201700  0.12195100  1
  H  H24  1  0.31766900  0.52449500  0.38670400  1
  H  H25  1  0.18302300  0.96582500  0.88904800  1
  H  H26  1  0.80318300  0.19334300  0.71293100  1
  H  H27  1  0.28409600  0.30100600  0.79559400  1
  H  H28  1  0.51167500  0.60493700  0.61310600  1
  H  H29  1  0.14266900  0.04708700  0.12105000  1
  H  H30  1  0.63927700  0.44495700  0.38386400  1
  H  H31  1  0.82430300  0.82411600  0.78923000  1
  O  O32  1  0.30449400  0.31535100  0.60378200  1
  O  O33  1  0.19330600  0.82178800  0.11890400  1
  O  O34  1  0.68454400  0.67720400  0.38194100  1
  O  O35  1  0.79332700  0.17416800  0.88773700  1
  O  O36  1  0.82969700  0.82444300  0.60396200  1
  O  O37  1  0.66904300  0.31588400  0.10144900  1
  O  O38  1  0.15869300  0.16676500  0.38848400  1
  O  O39  1  0.32007500  0.67555400  0.90553800  1
  O  O40  1  0.37165500  0.99994800  0.60600700  1
  O  O41  1  0.15465900  0.48008300  0.11657600  1
  O  O42  1  0.63177200  0.01320000  0.39210600  1
  O  O43  1  0.86700700  0.50416400  0.89416200  1
  O  O44  1  0.87341100  0.51299400  0.60197400  1
  O  O45  1  0.62907800  0.99841600  0.11436600  1
  O  O46  1  0.13481700  0.49634800  0.37919700  1
  O  O47  1  0.36733200  0.98983100  0.89589100  1
  O  O48  1  0.81260100  0.18896100  0.60824300  1
  O  O49  1  0.70993000  0.68243600  0.11248500  1
  O  O50  1  0.19080200  0.82404200  0.38861700  1
  O  O51  1  0.28801300  0.30727500  0.89896400  1
  O  O52  1  0.35785600  0.67278900  0.60978900  1
  O  O53  1  0.17390200  0.16187600  0.11963200  1
  O  O54  1  0.68304100  0.33241200  0.38914300  1
  O  O55  1  0.83791800  0.84141100  0.89305100  1
