# generated using pymatgen
data_GaGeS4
_symmetry_space_group_name_H-M   'P 1'
_cell_length_a   16.03657400
_cell_length_b   16.04968400
_cell_length_c   12.43064607
_cell_angle_alpha   90.00000000
_cell_angle_beta   129.88159747
_cell_angle_gamma   90.00000000
_symmetry_Int_Tables_number   1
_chemical_formula_structural   GaGeS4
_chemical_formula_sum   'Ga8 Ge8 S32'
_cell_volume   2455.14552678
_cell_formula_units_Z   8
loop_
 _symmetry_equiv_pos_site_id
 _symmetry_equiv_pos_as_xyz
  1  'x, y, z'
loop_
 _atom_site_type_symbol
 _atom_site_label
 _atom_site_symmetry_multiplicity
 _atom_site_fract_x
 _atom_site_fract_y
 _atom_site_fract_z
 _atom_site_occupancy
  Ga  Ga0  1  0.45885250  0.23449250  0.13668500  1
  Ga  Ga1  1  0.41510200  0.89085500  0.36294500  1
  Ga  Ga2  1  0.41510200  0.10914500  0.86294500  1
  Ga  Ga3  1  0.45885250  0.76550750  0.63668500  1
  Ga  Ga4  1  0.95885250  0.73449250  0.13668500  1
  Ga  Ga5  1  0.91510200  0.39085500  0.36294500  1
  Ga  Ga6  1  0.91510200  0.60914500  0.86294500  1
  Ga  Ga7  1  0.95885250  0.26550750  0.63668500  1
  Ge  Ge8  1  0.42450850  0.01501450  0.13071600  1
  Ge  Ge9  1  0.42450850  0.98498550  0.63071600  1
  Ge  Ge10  1  0.19922900  0.14211200  0.86997500  1
  Ge  Ge11  1  0.19922900  0.85788800  0.36997500  1
  Ge  Ge12  1  0.92450850  0.51501450  0.13071600  1
  Ge  Ge13  1  0.92450850  0.48498550  0.63071600  1
  Ge  Ge14  1  0.69922900  0.64211200  0.86997500  1
  Ge  Ge15  1  0.69922900  0.35788800  0.36997500  1
  S  S16  1  0.52267550  0.35724950  0.25577300  1
  S  S17  1  0.50953800  0.22373400  0.00161500  1
  S  S18  1  0.51593650  0.12093650  0.28194700  1
  S  S19  1  0.24388700  0.02643200  0.00037200  1
  S  S20  1  0.47717000  0.89438800  0.24262700  1
  S  S21  1  0.47840900  0.00559400  0.50481000  1
  S  S22  1  0.47717000  0.10561200  0.74262700  1
  S  S23  1  0.27457100  0.25905800  0.99437700  1
  S  S24  1  0.50953800  0.77626600  0.50161500  1
  S  S25  1  0.51593650  0.87906350  0.78194700  1
  S  S26  1  0.23011950  0.12751650  0.71815900  1
  S  S27  1  0.47840900  0.99440600  0.00481000  1
  S  S28  1  0.23011950  0.87248350  0.21815900  1
  S  S29  1  0.24388700  0.97356800  0.50037200  1
  S  S30  1  0.52267550  0.64275050  0.75577300  1
  S  S31  1  0.27457100  0.74094200  0.49437700  1
  S  S32  1  0.02267550  0.85724950  0.25577300  1
  S  S33  1  0.00953800  0.72373400  0.00161500  1
  S  S34  1  0.01593650  0.62093650  0.28194700  1
  S  S35  1  0.74388700  0.52643200  0.00037200  1
  S  S36  1  0.97717000  0.39438800  0.24262700  1
  S  S37  1  0.97840900  0.50559400  0.50481000  1
  S  S38  1  0.97717000  0.60561200  0.74262700  1
  S  S39  1  0.77457100  0.75905800  0.99437700  1
  S  S40  1  0.00953800  0.27626600  0.50161500  1
  S  S41  1  0.01593650  0.37906350  0.78194700  1
  S  S42  1  0.73011950  0.62751650  0.71815900  1
  S  S43  1  0.97840900  0.49440600  0.00481000  1
  S  S44  1  0.73011950  0.37248350  0.21815900  1
  S  S45  1  0.74388700  0.47356800  0.50037200  1
  S  S46  1  0.02267550  0.14275050  0.75577300  1
  S  S47  1  0.77457100  0.24094200  0.49437700  1
