# generated using pymatgen
data_Tb14Ti10O41
_symmetry_space_group_name_H-M   'P 1'
_cell_length_a   12.62067800
_cell_length_b   7.31735000
_cell_length_c   17.69676519
_cell_angle_alpha   90.00000000
_cell_angle_beta   90.72613822
_cell_angle_gamma   90.00000000
_symmetry_Int_Tables_number   1
_chemical_formula_structural   Tb14Ti10O41
_chemical_formula_sum   'Tb28 Ti20 O82'
_cell_volume   1634.16357027
_cell_formula_units_Z   2
loop_
 _symmetry_equiv_pos_site_id
 _symmetry_equiv_pos_as_xyz
  1  'x, y, z'
loop_
 _atom_site_type_symbol
 _atom_site_label
 _atom_site_symmetry_multiplicity
 _atom_site_fract_x
 _atom_site_fract_y
 _atom_site_fract_z
 _atom_site_occupancy
  Tb  Tb0  1  0.16610000  0.00000000  0.17041400  1
  Tb  Tb1  1  0.99900600  0.00000000  0.00169500  1
  Tb  Tb2  1  0.41549200  0.75052900  0.16724000  1
  Tb  Tb3  1  0.41549200  0.24947100  0.16724000  1
  Tb  Tb4  1  0.50163100  0.00000000  0.50042900  1
  Tb  Tb5  1  0.33821100  0.00000000  0.33166800  1
  Tb  Tb6  1  0.74053450  0.74280550  0.49121900  1
  Tb  Tb7  1  0.74053450  0.25719450  0.49121900  1
  Tb  Tb8  1  0.68862000  0.00000000  0.65797200  1
  Tb  Tb9  1  0.57712850  0.25445850  0.83403200  1
  Tb  Tb10  1  0.15011100  0.00000000  0.66531100  1
  Tb  Tb11  1  0.57712850  0.74554150  0.83403200  1
  Tb  Tb12  1  0.32243300  0.00000000  0.85420800  1
  Tb  Tb13  1  0.83799000  0.00000000  0.82606500  1
  Tb  Tb14  1  0.66610000  0.50000000  0.17041400  1
  Tb  Tb15  1  0.49900600  0.50000000  0.00169500  1
  Tb  Tb16  1  0.91549200  0.25052900  0.16724000  1
  Tb  Tb17  1  0.91549200  0.74947100  0.16724000  1
  Tb  Tb18  1  0.00163100  0.50000000  0.50042900  1
  Tb  Tb19  1  0.83821100  0.50000000  0.33166800  1
  Tb  Tb20  1  0.24053450  0.24280550  0.49121900  1
  Tb  Tb21  1  0.24053450  0.75719450  0.49121900  1
  Tb  Tb22  1  0.18862000  0.50000000  0.65797200  1
  Tb  Tb23  1  0.07712850  0.75445850  0.83403200  1
  Tb  Tb24  1  0.65011100  0.50000000  0.66531100  1
  Tb  Tb25  1  0.07712850  0.24554150  0.83403200  1
  Tb  Tb26  1  0.82243300  0.50000000  0.85420800  1
  Tb  Tb27  1  0.33799000  0.50000000  0.82606500  1
  Ti  Ti28  1  0.74593250  0.23979050  0.00393600  1
  Ti  Ti29  1  0.74593250  0.76020950  0.00393600  1
  Ti  Ti30  1  0.50280100  0.00000000  0.00159800  1
  Ti  Ti31  1  0.58100800  0.24978800  0.33215300  1
  Ti  Ti32  1  0.00195800  0.00000000  0.50214000  1
  Ti  Ti33  1  0.66435000  0.00000000  0.16920700  1
  Ti  Ti34  1  0.83260700  0.00000000  0.33347400  1
  Ti  Ti35  1  0.58100800  0.75021200  0.33215300  1
  Ti  Ti36  1  0.41251350  0.76544650  0.66945700  1
  Ti  Ti37  1  0.41251350  0.23455350  0.66945700  1
  Ti  Ti38  1  0.24593250  0.73979050  0.00393600  1
  Ti  Ti39  1  0.24593250  0.26020950  0.00393600  1
  Ti  Ti40  1  0.00280100  0.50000000  0.00159800  1
  Ti  Ti41  1  0.08100800  0.74978800  0.33215300  1
  Ti  Ti42  1  0.50195800  0.50000000  0.50214000  1
  Ti  Ti43  1  0.16435000  0.50000000  0.16920700  1
  Ti  Ti44  1  0.33260700  0.50000000  0.33347400  1
  Ti  Ti45  1  0.08100800  0.25021200  0.33215300  1
  Ti  Ti46  1  0.91251350  0.26544650  0.66945700  1
  Ti  Ti47  1  0.91251350  0.73455350  0.66945700  1
  O  O48  1  0.20780100  0.00000000  0.01007600  1
  O  O49  1  0.59927850  0.79810050  0.22270800  1
  O  O50  1  0.39445700  0.81233000  0.01482300  1
  O  O51  1  0.99916700  0.00000000  0.12662000  1
  O  O52  1  0.59927850  0.20189950  0.22270800  1
  O  O53  1  0.53029800  0.00000000  0.35132100  1
  O  O54  1  0.52522600  0.00000000  0.11254100  1
  O  O55  1  0.46410200  0.31389700  0.56805100  1
  O  O56  1  0.43272150  0.29773250  0.30367900  1
  O  O57  1  0.80010700  0.00000000  0.22435800  1
  O  O58  1  0.39445700  0.18767000  0.01482300  1
  O  O59  1  0.73606450  0.78528850  0.11374200  1
  O  O60  1  0.73692000  0.79553400  0.35776000  1
  O  O61  1  0.33433100  0.00000000  0.20759500  1
  O  O62  1  0.43272150  0.70226750  0.30367900  1
  O  O63  1  0.33894600  0.00000000  0.45607000  1
  O  O64  1  0.46410200  0.68610300  0.56805100  1
  O  O65  1  0.87192700  0.00000000  0.69478000  1
  O  O66  1  0.86995600  0.00000000  0.44220000  1
  O  O67  1  0.27142600  0.77989100  0.62998000  1
  O  O68  1  0.74390350  0.22313050  0.88492700  1
  O  O69  1  0.15183800  0.00000000  0.53639600  1
  O  O70  1  0.13638300  0.00000000  0.30476000  1
  O  O71  1  0.73606450  0.21471150  0.11374200  1
  O  O72  1  0.73692000  0.20446600  0.35776000  1
  O  O73  1  0.56702600  0.27884100  0.43968000  1
  O  O74  1  0.58103950  0.22309350  0.70711900  1
  O  O75  1  0.67001500  0.00000000  0.53757800  1
  O  O76  1  0.27142600  0.22010900  0.62998000  1
  O  O77  1  0.74390350  0.77686950  0.88492700  1
  O  O78  1  0.17045900  0.00000000  0.79079600  1
  O  O79  1  0.59275900  0.78326800  0.98902500  1
  O  O80  1  0.56702600  0.72115900  0.43968000  1
  O  O81  1  0.44588400  0.00000000  0.62845500  1
  O  O82  1  0.50062700  0.00000000  0.88724600  1
  O  O83  1  0.58103950  0.77690650  0.70711900  1
  O  O84  1  0.39460650  0.78785550  0.77563700  1
  O  O85  1  0.99156800  0.00000000  0.87646200  1
  O  O86  1  0.59275900  0.21673200  0.98902500  1
  O  O87  1  0.39460650  0.21214450  0.77563700  1
  O  O88  1  0.80915800  0.00000000  0.99656400  1
  O  O89  1  0.70780100  0.50000000  0.01007600  1
  O  O90  1  0.09927850  0.29810050  0.22270800  1
  O  O91  1  0.89445700  0.31233000  0.01482300  1
  O  O92  1  0.49916700  0.50000000  0.12662000  1
  O  O93  1  0.09927850  0.70189950  0.22270800  1
  O  O94  1  0.03029800  0.50000000  0.35132100  1
  O  O95  1  0.02522600  0.50000000  0.11254100  1
  O  O96  1  0.96410200  0.81389700  0.56805100  1
  O  O97  1  0.93272150  0.79773250  0.30367900  1
  O  O98  1  0.30010700  0.50000000  0.22435800  1
  O  O99  1  0.89445700  0.68767000  0.01482300  1
  O  O100  1  0.23606450  0.28528850  0.11374200  1
  O  O101  1  0.23692000  0.29553400  0.35776000  1
  O  O102  1  0.83433100  0.50000000  0.20759500  1
  O  O103  1  0.93272150  0.20226750  0.30367900  1
  O  O104  1  0.83894600  0.50000000  0.45607000  1
  O  O105  1  0.96410200  0.18610300  0.56805100  1
  O  O106  1  0.37192700  0.50000000  0.69478000  1
  O  O107  1  0.36995600  0.50000000  0.44220000  1
  O  O108  1  0.77142600  0.27989100  0.62998000  1
  O  O109  1  0.24390350  0.72313050  0.88492700  1
  O  O110  1  0.65183800  0.50000000  0.53639600  1
  O  O111  1  0.63638300  0.50000000  0.30476000  1
  O  O112  1  0.23606450  0.71471150  0.11374200  1
  O  O113  1  0.23692000  0.70446600  0.35776000  1
  O  O114  1  0.06702600  0.77884100  0.43968000  1
  O  O115  1  0.08103950  0.72309350  0.70711900  1
  O  O116  1  0.17001500  0.50000000  0.53757800  1
  O  O117  1  0.77142600  0.72010900  0.62998000  1
  O  O118  1  0.24390350  0.27686950  0.88492700  1
  O  O119  1  0.67045900  0.50000000  0.79079600  1
  O  O120  1  0.09275900  0.28326800  0.98902500  1
  O  O121  1  0.06702600  0.22115900  0.43968000  1
  O  O122  1  0.94588400  0.50000000  0.62845500  1
  O  O123  1  0.00062700  0.50000000  0.88724600  1
  O  O124  1  0.08103950  0.27690650  0.70711900  1
  O  O125  1  0.89460650  0.28785550  0.77563700  1
  O  O126  1  0.49156800  0.50000000  0.87646200  1
  O  O127  1  0.09275900  0.71673200  0.98902500  1
  O  O128  1  0.89460650  0.71214450  0.77563700  1
  O  O129  1  0.30915800  0.50000000  0.99656400  1
