# generated using pymatgen
data_CsTb2Cu3Se5
_symmetry_space_group_name_H-M   'P 1'
_cell_length_a   4.15057400
_cell_length_b   14.70521400
_cell_length_c   17.50683800
_cell_angle_alpha   90.00000000
_cell_angle_beta   90.00000000
_cell_angle_gamma   90.00000000
_symmetry_Int_Tables_number   1
_chemical_formula_structural   CsTb2Cu3Se5
_chemical_formula_sum   'Cs4 Tb8 Cu12 Se20'
_cell_volume   1068.53123849
_cell_formula_units_Z   4
loop_
 _symmetry_equiv_pos_site_id
 _symmetry_equiv_pos_as_xyz
  1  'x, y, z'
loop_
 _atom_site_type_symbol
 _atom_site_label
 _atom_site_symmetry_multiplicity
 _atom_site_fract_x
 _atom_site_fract_y
 _atom_site_fract_z
 _atom_site_occupancy
  Cs  Cs0  1  0.00000000  0.06062200  0.75000000  1
  Cs  Cs1  1  0.50000000  0.43937800  0.25000000  1
  Cs  Cs2  1  0.50000000  0.56062200  0.75000000  1
  Cs  Cs3  1  0.00000000  0.93937800  0.25000000  1
  Tb  Tb4  1  0.50000000  0.30789000  0.90896200  1
  Tb  Tb5  1  0.50000000  0.30789000  0.59103800  1
  Tb  Tb6  1  0.00000000  0.19211000  0.09103800  1
  Tb  Tb7  1  0.00000000  0.19211000  0.40896200  1
  Tb  Tb8  1  0.00000000  0.80789000  0.90896200  1
  Tb  Tb9  1  0.00000000  0.80789000  0.59103800  1
  Tb  Tb10  1  0.50000000  0.69211000  0.09103800  1
  Tb  Tb11  1  0.50000000  0.69211000  0.40896200  1
  Cu  Cu12  1  0.00000000  0.41531800  0.02966900  1
  Cu  Cu13  1  0.50000000  0.08468200  0.97033100  1
  Cu  Cu14  1  0.50000000  0.15889800  0.25000000  1
  Cu  Cu15  1  0.00000000  0.34110200  0.75000000  1
  Cu  Cu16  1  0.00000000  0.41531800  0.47033100  1
  Cu  Cu17  1  0.50000000  0.08468200  0.52966900  1
  Cu  Cu18  1  0.50000000  0.91531800  0.02966900  1
  Cu  Cu19  1  0.00000000  0.58468200  0.97033100  1
  Cu  Cu20  1  0.00000000  0.65889800  0.25000000  1
  Cu  Cu21  1  0.50000000  0.84110200  0.75000000  1
  Cu  Cu22  1  0.50000000  0.91531800  0.47033100  1
  Cu  Cu23  1  0.00000000  0.58468200  0.52966900  1
  Se  Se24  1  0.50000000  0.06007000  0.38823700  1
  Se  Se25  1  0.00000000  0.16710900  0.57011800  1
  Se  Se26  1  0.50000000  0.06007000  0.11176300  1
  Se  Se27  1  0.50000000  0.33289100  0.07011800  1
  Se  Se28  1  0.00000000  0.16710900  0.92988200  1
  Se  Se29  1  0.50000000  0.33289100  0.42988200  1
  Se  Se30  1  0.00000000  0.23758000  0.25000000  1
  Se  Se31  1  0.50000000  0.26242000  0.75000000  1
  Se  Se32  1  0.00000000  0.43993000  0.88823700  1
  Se  Se33  1  0.00000000  0.43993000  0.61176300  1
  Se  Se34  1  0.00000000  0.56007000  0.38823700  1
  Se  Se35  1  0.50000000  0.66710900  0.57011800  1
  Se  Se36  1  0.00000000  0.56007000  0.11176300  1
  Se  Se37  1  0.00000000  0.83289100  0.07011800  1
  Se  Se38  1  0.50000000  0.66710900  0.92988200  1
  Se  Se39  1  0.00000000  0.83289100  0.42988200  1
  Se  Se40  1  0.50000000  0.73758000  0.25000000  1
  Se  Se41  1  0.00000000  0.76242000  0.75000000  1
  Se  Se42  1  0.50000000  0.93993000  0.88823700  1
  Se  Se43  1  0.50000000  0.93993000  0.61176300  1
