# generated using pymatgen
data_Yb(NdS2)2
_symmetry_space_group_name_H-M   'P 1'
_cell_length_a   8.55080200
_cell_length_b   8.55080200
_cell_length_c   8.58172400
_cell_angle_alpha   90.00000000
_cell_angle_beta   90.00000000
_cell_angle_gamma   90.00000000
_symmetry_Int_Tables_number   1
_chemical_formula_structural   Yb(NdS2)2
_chemical_formula_sum   'Yb4 Nd8 S16'
_cell_volume   627.46317571
_cell_formula_units_Z   4
loop_
 _symmetry_equiv_pos_site_id
 _symmetry_equiv_pos_as_xyz
  1  'x, y, z'
loop_
 _atom_site_type_symbol
 _atom_site_label
 _atom_site_symmetry_multiplicity
 _atom_site_fract_x
 _atom_site_fract_y
 _atom_site_fract_z
 _atom_site_occupancy
  Yb  Yb0  1  0.00000000  0.50000000  0.25000000  1
  Yb  Yb1  1  0.00000000  0.00000000  0.00000000  1
  Yb  Yb2  1  0.50000000  0.00000000  0.75000000  1
  Yb  Yb3  1  0.50000000  0.50000000  0.50000000  1
  Nd  Nd4  1  0.87152400  0.25000000  0.62500000  1
  Nd  Nd5  1  0.25000000  0.37152400  0.87500000  1
  Nd  Nd6  1  0.62847600  0.25000000  0.12500000  1
  Nd  Nd7  1  0.25000000  0.12847600  0.37500000  1
  Nd  Nd8  1  0.37152400  0.75000000  0.12500000  1
  Nd  Nd9  1  0.75000000  0.87152400  0.37500000  1
  Nd  Nd10  1  0.12847600  0.75000000  0.62500000  1
  Nd  Nd11  1  0.75000000  0.62847600  0.87500000  1
  S  S12  1  0.17779900  0.07439200  0.69820800  1
  S  S13  1  0.32220100  0.07439200  0.05179200  1
  S  S14  1  0.17779900  0.42560800  0.55179200  1
  S  S15  1  0.42560800  0.82220100  0.44820800  1
  S  S16  1  0.57439200  0.32220100  0.80179200  1
  S  S17  1  0.07439200  0.67779900  0.94820800  1
  S  S18  1  0.92560800  0.17779900  0.30179200  1
  S  S19  1  0.32220100  0.42560800  0.19820800  1
  S  S20  1  0.67779900  0.57439200  0.19820800  1
  S  S21  1  0.82220100  0.57439200  0.55179200  1
  S  S22  1  0.67779900  0.92560800  0.05179200  1
  S  S23  1  0.92560800  0.32220100  0.94820800  1
  S  S24  1  0.07439200  0.82220100  0.30179200  1
  S  S25  1  0.57439200  0.17779900  0.44820800  1
  S  S26  1  0.42560800  0.67779900  0.80179200  1
  S  S27  1  0.82220100  0.92560800  0.69820800  1
