# generated using pymatgen
data_XeF6
_symmetry_space_group_name_H-M   'P 1'
_cell_length_a   23.69155800
_cell_length_b   13.46009800
_cell_length_c   14.58339223
_cell_angle_alpha   90.00000000
_cell_angle_beta   126.11450330
_cell_angle_gamma   90.00000000
_symmetry_Int_Tables_number   1
_chemical_formula_structural   XeF6
_chemical_formula_sum   'Xe32 F192'
_cell_volume   3756.86974345
_cell_formula_units_Z   32
loop_
 _symmetry_equiv_pos_site_id
 _symmetry_equiv_pos_as_xyz
  1  'x, y, z'
loop_
 _atom_site_type_symbol
 _atom_site_label
 _atom_site_symmetry_multiplicity
 _atom_site_fract_x
 _atom_site_fract_y
 _atom_site_fract_z
 _atom_site_occupancy
  Xe  Xe0  1  0.54109750  0.69007750  0.98683300  1
  Xe  Xe1  1  0.68134100  0.62150900  0.78760400  1
  Xe  Xe2  1  0.62700050  0.25580450  0.96792200  1
  Xe  Xe3  1  0.61754800  0.91368600  0.71014100  1
  Xe  Xe4  1  0.62700050  0.74419550  0.46792200  1
  Xe  Xe5  1  0.37299950  0.74419550  0.03207800  1
  Xe  Xe6  1  0.88245200  0.41368600  0.78985900  1
  Xe  Xe7  1  0.45890250  0.30992250  0.01316700  1
  Xe  Xe8  1  0.18134100  0.87849100  0.28760400  1
  Xe  Xe9  1  0.31865900  0.37849100  0.21239600  1
  Xe  Xe10  1  0.54109750  0.30992250  0.48683300  1
  Xe  Xe11  1  0.81865900  0.12150900  0.71239600  1
  Xe  Xe12  1  0.37299950  0.25580450  0.53207800  1
  Xe  Xe13  1  0.45890250  0.69007750  0.51316700  1
  Xe  Xe14  1  0.11754800  0.58631400  0.21014100  1
  Xe  Xe15  1  0.38245200  0.08631400  0.28985900  1
  Xe  Xe16  1  0.04109750  0.19007750  0.98683300  1
  Xe  Xe17  1  0.18134100  0.12150900  0.78760400  1
  Xe  Xe18  1  0.12700050  0.75580450  0.96792200  1
  Xe  Xe19  1  0.11754800  0.41368600  0.71014100  1
  Xe  Xe20  1  0.12700050  0.24419550  0.46792200  1
  Xe  Xe21  1  0.87299950  0.24419550  0.03207800  1
  Xe  Xe22  1  0.38245200  0.91368600  0.78985900  1
  Xe  Xe23  1  0.95890250  0.80992250  0.01316700  1
  Xe  Xe24  1  0.68134100  0.37849100  0.28760400  1
  Xe  Xe25  1  0.81865900  0.87849100  0.21239600  1
  Xe  Xe26  1  0.04109750  0.80992250  0.48683300  1
  Xe  Xe27  1  0.31865900  0.62150900  0.71239600  1
  Xe  Xe28  1  0.87299950  0.75580450  0.53207800  1
  Xe  Xe29  1  0.95890250  0.19007750  0.51316700  1
  Xe  Xe30  1  0.61754800  0.08631400  0.21014100  1
  Xe  Xe31  1  0.88245200  0.58631400  0.28985900  1
  F  F32  1  0.61310900  0.94131200  0.22942800  1
  F  F33  1  0.28062750  0.05687450  0.17882900  1
  F  F34  1  0.51580950  0.57410150  0.88426900  1
  F  F35  1  0.24947300  0.92604200  0.44596500  1
  F  F36  1  0.43352850  0.24625950  0.30786000  1
  F  F37  1  0.38875650  0.08433350  0.15928300  1
  F  F38  1  0.19984850  0.65028650  0.02450500  1
  F  F39  1  0.38032300  0.03369900  0.41665500  1
  F  F40  1  0.39588350  0.39477050  0.39308300  1
  F  F41  1  0.34551350  0.27848950  0.63551100  1
  F  F42  1  0.29769350  0.35804250  0.44356700  1
  F  F43  1  0.63440300  0.37094900  0.55804400  1
  F  F44  1  0.80015150  0.34971350  0.97549500  1
  F  F45  1  0.11967700  0.53369900  0.08334500  1
  F  F46  1  0.56647150  0.75374050  0.69214000  1
  F  F47  1  0.46604450  0.77881850  0.02125700  1
  F  F48  1  0.69984850  0.84971350  0.52450500  1
  F  F49  1  0.81013650  0.97944150  0.73986400  1
  F  F50  1  0.48419050  0.57410150  0.61573100  1
  F  F51  1  0.73153000  0.13787900  0.70391400  1
  F  F52  1  0.56647150  0.24625950  0.19214000  1
  F  F53  1  0.89967550  0.71437150  0.88742100  1
  F  F54  1  0.10411650  0.89477050  0.10691700  1
  F  F55  1  0.65448650  0.72151050  0.36448900  1
  F  F56  1  0.45663050  0.39991750  0.90267400  1
  F  F57  1  0.26847000  0.86212100  0.29608600  1
  F  F58  1  0.38689100  0.05868800  0.77057200  1
  F  F59  1  0.51373850  0.06556550  0.10490100  1
  F  F60  1  0.70230650  0.64195750  0.55643300  1
  F  F61  1  0.78062750  0.44312550  0.67882900  1
  F  F62  1  0.56165100  0.36548400  0.87216800  1
  F  F63  1  0.10032450  0.28562850  0.11257900  1
  F  F64  1  0.38689100  0.94131200  0.27057200  1
  F  F65  1  0.43834900  0.36548400  0.62783200  1
  F  F66  1  0.61310900  0.05868800  0.72942800  1
  F  F67  1  0.18986350  0.02055850  0.26013600  1
  F  F68  1  0.17138650  0.71467850  0.16948600  1
  F  F69  1  0.36559700  0.62905100  0.44195600  1
  F  F70  1  0.79795250  0.25007850  0.61989200  1
  F  F71  1  0.86559700  0.87094900  0.94195600  1
  F  F72  1  0.46604450  0.22118150  0.52125700  1
  F  F73  1  0.60411650  0.60522950  0.60691700  1
  F  F74  1  0.51580950  0.42589850  0.38426900  1
  F  F75  1  0.20230650  0.85804250  0.05643300  1
  F  F76  1  0.54336950  0.60008250  0.09732600  1
  F  F77  1  0.65448650  0.27848950  0.86448900  1
  F  F78  1  0.89588350  0.10522950  0.89308300  1
  F  F79  1  0.25052700  0.42604200  0.05403500  1
  F  F80  1  0.43834900  0.63451600  0.12783200  1
  F  F81  1  0.61361150  0.57252550  0.81699000  1
  F  F82  1  0.34551350  0.72151050  0.13551100  1
  F  F83  1  0.56505450  0.15892950  0.84523900  1
  F  F84  1  0.71937250  0.94312550  0.82117100  1
  F  F85  1  0.45663050  0.60008250  0.40267400  1
  F  F86  1  0.43494550  0.84107050  0.15476100  1
  F  F87  1  0.42786750  0.76269550  0.59500000  1
  F  F88  1  0.23153000  0.36212100  0.20391400  1
  F  F89  1  0.48626150  0.93443450  0.89509900  1
  F  F90  1  0.39967550  0.78562850  0.38742100  1
  F  F91  1  0.60032450  0.21437150  0.61257900  1
  F  F92  1  0.74947300  0.57395800  0.94596500  1
  F  F93  1  0.20204750  0.74992150  0.38010800  1
  F  F94  1  0.68986350  0.47944150  0.76013600  1
  F  F95  1  0.21937250  0.55687450  0.32117100  1
  F  F96  1  0.56505450  0.84107050  0.34523900  1
  F  F97  1  0.30015150  0.15028650  0.47549500  1
  F  F98  1  0.51373850  0.93443450  0.60490100  1
  F  F99  1  0.32861350  0.21467850  0.33051400  1
  F  F100  1  0.29795250  0.24992150  0.11989200  1
  F  F101  1  0.38638850  0.42747450  0.18301000  1
  F  F102  1  0.70204750  0.75007850  0.88010800  1
  F  F103  1  0.82861350  0.28532150  0.83051400  1
  F  F104  1  0.57213250  0.76269550  0.90500000  1
  F  F105  1  0.43494550  0.15892950  0.65476100  1
  F  F106  1  0.53395550  0.77881850  0.47874300  1
  F  F107  1  0.57213250  0.23730450  0.40500000  1
  F  F108  1  0.67138650  0.78532150  0.66948600  1
  F  F109  1  0.31013650  0.52055850  0.23986400  1
  F  F110  1  0.38875650  0.91566650  0.65928300  1
  F  F111  1  0.79769350  0.14195750  0.94356700  1
  F  F112  1  0.48419050  0.42589850  0.11573100  1
  F  F113  1  0.61124350  0.08433350  0.34071700  1
  F  F114  1  0.42786750  0.23730450  0.09500000  1
  F  F115  1  0.61967700  0.96630100  0.58334500  1
  F  F116  1  0.76847000  0.63787900  0.79608600  1
  F  F117  1  0.53395550  0.22118150  0.97874300  1
  F  F118  1  0.48626150  0.06556550  0.39509900  1
  F  F119  1  0.61361150  0.42747450  0.31699000  1
  F  F120  1  0.75052700  0.07395800  0.55403500  1
  F  F121  1  0.54336950  0.39991750  0.59732600  1
  F  F122  1  0.13440300  0.12905100  0.05804400  1
  F  F123  1  0.38638850  0.57252550  0.68301000  1
  F  F124  1  0.88032300  0.46630100  0.91665500  1
  F  F125  1  0.43352850  0.75374050  0.80786000  1
  F  F126  1  0.61124350  0.91566650  0.84071700  1
  F  F127  1  0.56165100  0.63451600  0.37216800  1
  F  F128  1  0.11310900  0.44131200  0.22942800  1
  F  F129  1  0.78062750  0.55687450  0.17882900  1
  F  F130  1  0.01580950  0.07410150  0.88426900  1
  F  F131  1  0.74947300  0.42604200  0.44596500  1
  F  F132  1  0.93352850  0.74625950  0.30786000  1
  F  F133  1  0.88875650  0.58433350  0.15928300  1
  F  F134  1  0.69984850  0.15028650  0.02450500  1
  F  F135  1  0.88032300  0.53369900  0.41665500  1
  F  F136  1  0.89588350  0.89477050  0.39308300  1
  F  F137  1  0.84551350  0.77848950  0.63551100  1
  F  F138  1  0.79769350  0.85804250  0.44356700  1
  F  F139  1  0.13440300  0.87094900  0.55804400  1
  F  F140  1  0.30015150  0.84971350  0.97549500  1
  F  F141  1  0.61967700  0.03369900  0.08334500  1
  F  F142  1  0.06647150  0.25374050  0.69214000  1
  F  F143  1  0.96604450  0.27881850  0.02125700  1
  F  F144  1  0.19984850  0.34971350  0.52450500  1
  F  F145  1  0.31013650  0.47944150  0.73986400  1
  F  F146  1  0.98419050  0.07410150  0.61573100  1
  F  F147  1  0.23153000  0.63787900  0.70391400  1
  F  F148  1  0.06647150  0.74625950  0.19214000  1
  F  F149  1  0.39967550  0.21437150  0.88742100  1
  F  F150  1  0.60411650  0.39477050  0.10691700  1
  F  F151  1  0.15448650  0.22151050  0.36448900  1
  F  F152  1  0.95663050  0.89991750  0.90267400  1
  F  F153  1  0.76847000  0.36212100  0.29608600  1
  F  F154  1  0.88689100  0.55868800  0.77057200  1
  F  F155  1  0.01373850  0.56556550  0.10490100  1
  F  F156  1  0.20230650  0.14195750  0.55643300  1
  F  F157  1  0.28062750  0.94312550  0.67882900  1
  F  F158  1  0.06165100  0.86548400  0.87216800  1
  F  F159  1  0.60032450  0.78562850  0.11257900  1
  F  F160  1  0.88689100  0.44131200  0.27057200  1
  F  F161  1  0.93834900  0.86548400  0.62783200  1
  F  F162  1  0.11310900  0.55868800  0.72942800  1
  F  F163  1  0.68986350  0.52055850  0.26013600  1
  F  F164  1  0.67138650  0.21467850  0.16948600  1
  F  F165  1  0.86559700  0.12905100  0.44195600  1
  F  F166  1  0.29795250  0.75007850  0.61989200  1
  F  F167  1  0.36559700  0.37094900  0.94195600  1
  F  F168  1  0.96604450  0.72118150  0.52125700  1
  F  F169  1  0.10411650  0.10522950  0.60691700  1
  F  F170  1  0.01580950  0.92589850  0.38426900  1
  F  F171  1  0.70230650  0.35804250  0.05643300  1
  F  F172  1  0.04336950  0.10008250  0.09732600  1
  F  F173  1  0.15448650  0.77848950  0.86448900  1
  F  F174  1  0.39588350  0.60522950  0.89308300  1
  F  F175  1  0.75052700  0.92604200  0.05403500  1
  F  F176  1  0.93834900  0.13451600  0.12783200  1
  F  F177  1  0.11361150  0.07252550  0.81699000  1
  F  F178  1  0.84551350  0.22151050  0.13551100  1
  F  F179  1  0.06505450  0.65892950  0.84523900  1
  F  F180  1  0.21937250  0.44312550  0.82117100  1
  F  F181  1  0.95663050  0.10008250  0.40267400  1
  F  F182  1  0.93494550  0.34107050  0.15476100  1
  F  F183  1  0.92786750  0.26269550  0.59500000  1
  F  F184  1  0.73153000  0.86212100  0.20391400  1
  F  F185  1  0.98626150  0.43443450  0.89509900  1
  F  F186  1  0.89967550  0.28562850  0.38742100  1
  F  F187  1  0.10032450  0.71437150  0.61257900  1
  F  F188  1  0.24947300  0.07395800  0.94596500  1
  F  F189  1  0.70204750  0.24992150  0.38010800  1
  F  F190  1  0.18986350  0.97944150  0.76013600  1
  F  F191  1  0.71937250  0.05687450  0.32117100  1
  F  F192  1  0.06505450  0.34107050  0.34523900  1
  F  F193  1  0.80015150  0.65028650  0.47549500  1
  F  F194  1  0.01373850  0.43443450  0.60490100  1
  F  F195  1  0.82861350  0.71467850  0.33051400  1
  F  F196  1  0.79795250  0.74992150  0.11989200  1
  F  F197  1  0.88638850  0.92747450  0.18301000  1
  F  F198  1  0.20204750  0.25007850  0.88010800  1
  F  F199  1  0.32861350  0.78532150  0.83051400  1
  F  F200  1  0.07213250  0.26269550  0.90500000  1
  F  F201  1  0.93494550  0.65892950  0.65476100  1
  F  F202  1  0.03395550  0.27881850  0.47874300  1
  F  F203  1  0.07213250  0.73730450  0.40500000  1
  F  F204  1  0.17138650  0.28532150  0.66948600  1
  F  F205  1  0.81013650  0.02055850  0.23986400  1
  F  F206  1  0.88875650  0.41566650  0.65928300  1
  F  F207  1  0.29769350  0.64195750  0.94356700  1
  F  F208  1  0.98419050  0.92589850  0.11573100  1
  F  F209  1  0.11124350  0.58433350  0.34071700  1
  F  F210  1  0.92786750  0.73730450  0.09500000  1
  F  F211  1  0.11967700  0.46630100  0.58334500  1
  F  F212  1  0.26847000  0.13787900  0.79608600  1
  F  F213  1  0.03395550  0.72118150  0.97874300  1
  F  F214  1  0.98626150  0.56556550  0.39509900  1
  F  F215  1  0.11361150  0.92747450  0.31699000  1
  F  F216  1  0.25052700  0.57395800  0.55403500  1
  F  F217  1  0.04336950  0.89991750  0.59732600  1
  F  F218  1  0.63440300  0.62905100  0.05804400  1
  F  F219  1  0.88638850  0.07252550  0.68301000  1
  F  F220  1  0.38032300  0.96630100  0.91665500  1
  F  F221  1  0.93352850  0.25374050  0.80786000  1
  F  F222  1  0.11124350  0.41566650  0.84071700  1
  F  F223  1  0.06165100  0.13451600  0.37216800  1
