# generated using pymatgen
data_CdH16C4S4(N4Cl)2
_symmetry_space_group_name_H-M   'P 1'
_cell_length_a   14.11382100
_cell_length_b   14.11382100
_cell_length_c   9.45011300
_cell_angle_alpha   90.00000000
_cell_angle_beta   90.00000000
_cell_angle_gamma   90.00000000
_symmetry_Int_Tables_number   1
_chemical_formula_structural   CdH16C4S4(N4Cl)2
_chemical_formula_sum   'Cd4 H64 C16 S16 N32 Cl8'
_cell_volume   1882.46197302
_cell_formula_units_Z   4
loop_
 _symmetry_equiv_pos_site_id
 _symmetry_equiv_pos_as_xyz
  1  'x, y, z'
loop_
 _atom_site_type_symbol
 _atom_site_label
 _atom_site_symmetry_multiplicity
 _atom_site_fract_x
 _atom_site_fract_y
 _atom_site_fract_z
 _atom_site_occupancy
  Cd  Cd0  1  0.75000000  0.25000000  0.75000000  1
  Cd  Cd1  1  0.25000000  0.75000000  0.75000000  1
  Cd  Cd2  1  0.75000000  0.75000000  0.25000000  1
  Cd  Cd3  1  0.25000000  0.25000000  0.25000000  1
  H  H4  1  0.75570400  0.95062400  0.97374200  1
  H  H5  1  0.24429600  0.04937600  0.97374200  1
  H  H6  1  0.45062400  0.74429600  0.47374200  1
  H  H7  1  0.54937600  0.25570400  0.47374200  1
  H  H8  1  0.74429600  0.54937600  0.52625800  1
  H  H9  1  0.25570400  0.45062400  0.52625800  1
  H  H10  1  0.04937600  0.75570400  0.02625800  1
  H  H11  1  0.95062400  0.24429600  0.02625800  1
  H  H12  1  0.08292800  0.04670500  0.71623000  1
  H  H13  1  0.91707200  0.95329500  0.71623000  1
  H  H14  1  0.54670500  0.41707200  0.21623000  1
  H  H15  1  0.45329500  0.58292800  0.21623000  1
  H  H16  1  0.41707200  0.45329500  0.78377000  1
  H  H17  1  0.58292800  0.54670500  0.78377000  1
  H  H18  1  0.95329500  0.08292800  0.28377000  1
  H  H19  1  0.04670500  0.91707200  0.28377000  1
  H  H20  1  0.05922200  0.25778200  0.52055600  1
  H  H21  1  0.94077800  0.74221800  0.52055600  1
  H  H22  1  0.75778200  0.44077800  0.02055600  1
  H  H23  1  0.24221800  0.55922200  0.02055600  1
  H  H24  1  0.44077800  0.24221800  0.97944400  1
  H  H25  1  0.55922200  0.75778200  0.97944400  1
  H  H26  1  0.74221800  0.05922200  0.47944400  1
  H  H27  1  0.25778200  0.94077800  0.47944400  1
  H  H28  1  0.94936700  0.28898300  0.59292900  1
  H  H29  1  0.05063300  0.71101700  0.59292900  1
  H  H30  1  0.78898300  0.55063300  0.09292900  1
  H  H31  1  0.21101700  0.44936700  0.09292900  1
  H  H32  1  0.55063300  0.21101700  0.90707100  1
  H  H33  1  0.44936700  0.78898300  0.90707100  1
  H  H34  1  0.71101700  0.94936700  0.40707100  1
  H  H35  1  0.28898300  0.05063300  0.40707100  1
  H  H36  1  0.13884400  0.12938800  0.60385700  1
  H  H37  1  0.86115600  0.87061200  0.60385700  1
  H  H38  1  0.62938800  0.36115600  0.10385700  1
  H  H39  1  0.37061200  0.63884400  0.10385700  1
  H  H40  1  0.36115600  0.37061200  0.89614300  1
  H  H41  1  0.63884400  0.62938800  0.89614300  1
  H  H42  1  0.87061200  0.13884400  0.39614300  1
  H  H43  1  0.12938800  0.86115600  0.39614300  1
  H  H44  1  0.67777100  0.85761800  0.81926100  1
  H  H45  1  0.32222900  0.14238200  0.81926100  1
  H  H46  1  0.35761800  0.82222900  0.31926100  1
  H  H47  1  0.64238200  0.17777100  0.31926100  1
  H  H48  1  0.82222900  0.64238200  0.68073900  1
  H  H49  1  0.17777100  0.35761800  0.68073900  1
  H  H50  1  0.14238200  0.67777100  0.18073900  1
  H  H51  1  0.85761800  0.32222900  0.18073900  1
  H  H52  1  0.74617800  0.07493400  0.96848900  1
  H  H53  1  0.25382200  0.92506600  0.96848900  1
  H  H54  1  0.57493400  0.75382200  0.46848900  1
  H  H55  1  0.42506600  0.24617800  0.46848900  1
  H  H56  1  0.75382200  0.42506600  0.53151100  1
  H  H57  1  0.24617800  0.57493400  0.53151100  1
  H  H58  1  0.92506600  0.74617800  0.03151100  1
  H  H59  1  0.07493400  0.25382200  0.03151100  1
  H  H60  1  0.60389800  0.90715800  0.68908100  1
  H  H61  1  0.39610200  0.09284200  0.68908100  1
  H  H62  1  0.40715800  0.89610200  0.18908100  1
  H  H63  1  0.59284200  0.10389800  0.18908100  1
  H  H64  1  0.89610200  0.59284200  0.81091900  1
  H  H65  1  0.10389800  0.40715800  0.81091900  1
  H  H66  1  0.09284200  0.60389800  0.31091900  1
  H  H67  1  0.90715800  0.39610200  0.31091900  1
  C  C68  1  0.00276600  0.16223700  0.66137500  1
  C  C69  1  0.99723400  0.83776300  0.66137500  1
  C  C70  1  0.66223700  0.49723400  0.16137500  1
  C  C71  1  0.33776300  0.50276600  0.16137500  1
  C  C72  1  0.49723400  0.33776300  0.83862500  1
  C  C73  1  0.50276600  0.66223700  0.83862500  1
  C  C74  1  0.83776300  0.00276600  0.33862500  1
  C  C75  1  0.16223700  0.99723400  0.33862500  1
  C  C76  1  0.67246900  0.00304000  0.81410500  1
  C  C77  1  0.32753100  0.99696000  0.81410500  1
  C  C78  1  0.50304000  0.82753100  0.31410500  1
  C  C79  1  0.49696000  0.17246900  0.31410500  1
  C  C80  1  0.82753100  0.49696000  0.68589500  1
  C  C81  1  0.17246900  0.50304000  0.68589500  1
  C  C82  1  0.99696000  0.67246900  0.18589500  1
  C  C83  1  0.00304000  0.32753100  0.18589500  1
  S  S84  1  0.91036100  0.13176200  0.76970700  1
  S  S85  1  0.08963900  0.86823800  0.76970700  1
  S  S86  1  0.63176200  0.58963900  0.26970700  1
  S  S87  1  0.36823800  0.41036100  0.26970700  1
  S  S88  1  0.58963900  0.36823800  0.73029300  1
  S  S89  1  0.41036100  0.63176200  0.73029300  1
  S  S90  1  0.86823800  0.91036100  0.23029300  1
  S  S91  1  0.13176200  0.08963900  0.23029300  1
  S  S92  1  0.62939900  0.09934800  0.72375000  1
  S  S93  1  0.37060100  0.90065200  0.72375000  1
  S  S94  1  0.59934800  0.87060100  0.22375000  1
  S  S95  1  0.40065200  0.12939900  0.22375000  1
  S  S96  1  0.87060100  0.40065200  0.77625000  1
  S  S97  1  0.12939900  0.59934800  0.77625000  1
  S  S98  1  0.90065200  0.62939900  0.27625000  1
  S  S99  1  0.09934800  0.37060100  0.27625000  1
  N  N100  1  0.07988900  0.10710800  0.65715800  1
  N  N101  1  0.92011100  0.89289200  0.65715800  1
  N  N102  1  0.60710800  0.42011100  0.15715800  1
  N  N103  1  0.39289200  0.57988900  0.15715800  1
  N  N104  1  0.42011100  0.39289200  0.84284200  1
  N  N105  1  0.57988900  0.60710800  0.84284200  1
  N  N106  1  0.89289200  0.07988900  0.34284200  1
  N  N107  1  0.10710800  0.92011100  0.34284200  1
  N  N108  1  0.00138300  0.23982300  0.57935800  1
  N  N109  1  0.99861700  0.76017700  0.57935800  1
  N  N110  1  0.73982300  0.49861700  0.07935800  1
  N  N111  1  0.26017700  0.50138300  0.07935800  1
  N  N112  1  0.49861700  0.26017700  0.92064200  1
  N  N113  1  0.50138300  0.73982300  0.92064200  1
  N  N114  1  0.76017700  0.00138300  0.42064200  1
  N  N115  1  0.23982300  0.99861700  0.42064200  1
  N  N116  1  0.65082300  0.91593900  0.76899900  1
  N  N117  1  0.34917700  0.08406100  0.76899900  1
  N  N118  1  0.41593900  0.84917700  0.26899900  1
  N  N119  1  0.58406100  0.15082300  0.26899900  1
  N  N120  1  0.84917700  0.58406100  0.73100100  1
  N  N121  1  0.15082300  0.41593900  0.73100100  1
  N  N122  1  0.08406100  0.65082300  0.23100100  1
  N  N123  1  0.91593900  0.34917700  0.23100100  1
  N  N124  1  0.72834800  0.01021100  0.92853500  1
  N  N125  1  0.27165200  0.98978900  0.92853500  1
  N  N126  1  0.51021100  0.77165200  0.42853500  1
  N  N127  1  0.48978900  0.22834800  0.42853500  1
  N  N128  1  0.77165200  0.48978900  0.57146500  1
  N  N129  1  0.22834800  0.51021100  0.57146500  1
  N  N130  1  0.98978900  0.72834800  0.07146500  1
  N  N131  1  0.01021100  0.27165200  0.07146500  1
  Cl  Cl132  1  0.75005800  0.23739500  0.03419000  1
  Cl  Cl133  1  0.24994200  0.76260500  0.03419000  1
  Cl  Cl134  1  0.73739500  0.74994200  0.53419000  1
  Cl  Cl135  1  0.26260500  0.25005800  0.53419000  1
  Cl  Cl136  1  0.74994200  0.26260500  0.46581000  1
  Cl  Cl137  1  0.25005800  0.73739500  0.46581000  1
  Cl  Cl138  1  0.76260500  0.75005800  0.96581000  1
  Cl  Cl139  1  0.23739500  0.24994200  0.96581000  1
