# generated using pymatgen
data_SbRu2C6Cl7O6
_symmetry_space_group_name_H-M   'P 1'
_cell_length_a   9.39527300
_cell_length_b   12.11108100
_cell_length_c   17.09306751
_cell_angle_alpha   90.00000000
_cell_angle_beta   100.22061123
_cell_angle_gamma   90.00000000
_symmetry_Int_Tables_number   1
_chemical_formula_structural   SbRu2C6Cl7O6
_chemical_formula_sum   'Sb4 Ru8 C24 Cl28 O24'
_cell_volume   1914.10432285
_cell_formula_units_Z   4
loop_
 _symmetry_equiv_pos_site_id
 _symmetry_equiv_pos_as_xyz
  1  'x, y, z'
loop_
 _atom_site_type_symbol
 _atom_site_label
 _atom_site_symmetry_multiplicity
 _atom_site_fract_x
 _atom_site_fract_y
 _atom_site_fract_z
 _atom_site_occupancy
  Sb  Sb0  1  0.63633600  0.14021500  0.62298600  1
  Sb  Sb1  1  0.36366400  0.64021500  0.87701400  1
  Sb  Sb2  1  0.36366400  0.85978500  0.37701400  1
  Sb  Sb3  1  0.63633600  0.35978500  0.12298600  1
  Ru  Ru4  1  0.86750000  0.46252100  0.91058300  1
  Ru  Ru5  1  0.86750000  0.03747900  0.41058300  1
  Ru  Ru6  1  0.13250000  0.53747900  0.08941700  1
  Ru  Ru7  1  0.19392300  0.46271000  0.52664200  1
  Ru  Ru8  1  0.13250000  0.96252100  0.58941700  1
  Ru  Ru9  1  0.80607700  0.53729000  0.47335800  1
  Ru  Ru10  1  0.19392300  0.03729000  0.02664200  1
  Ru  Ru11  1  0.80607700  0.96271000  0.97335800  1
  C  C12  1  0.85307100  0.63480500  0.39303400  1
  C  C13  1  0.19962800  0.03047100  0.69035100  1
  C  C14  1  0.68874100  0.64059500  0.51562100  1
  C  C15  1  0.26535800  0.65646400  0.10971200  1
  C  C16  1  0.73464200  0.15646400  0.39028800  1
  C  C17  1  0.26535800  0.84353600  0.60971200  1
  C  C18  1  0.35834700  0.51705200  0.59704200  1
  C  C19  1  0.31125900  0.35940500  0.48437900  1
  C  C20  1  0.14692900  0.36519500  0.60696600  1
  C  C21  1  0.98540200  0.61606400  0.13086600  1
  C  C22  1  0.64165300  0.48294800  0.40295800  1
  C  C23  1  0.80037200  0.53047100  0.80964900  1
  C  C24  1  0.01459800  0.11606400  0.36913400  1
  C  C25  1  0.64165300  0.01705200  0.90295800  1
  C  C26  1  0.14692900  0.13480500  0.10696600  1
  C  C27  1  0.31125900  0.14059500  0.98437900  1
  C  C28  1  0.80037200  0.96952900  0.30964900  1
  C  C29  1  0.68874100  0.85940500  0.01562100  1
  C  C30  1  0.19962800  0.46952900  0.19035100  1
  C  C31  1  0.73464200  0.34353600  0.89028800  1
  C  C32  1  0.98540200  0.88393600  0.63086600  1
  C  C33  1  0.85307100  0.86519500  0.89303400  1
  C  C34  1  0.35834700  0.98294800  0.09704200  1
  C  C35  1  0.01459800  0.38393600  0.86913400  1
  Cl  Cl36  1  0.69231900  0.94008700  0.47394300  1
  Cl  Cl37  1  0.02292100  0.59799800  0.56907400  1
  Cl  Cl38  1  0.51726200  0.74784000  0.31149600  1
  Cl  Cl39  1  0.75244000  0.09660000  0.06952500  1
  Cl  Cl40  1  0.75244000  0.40340000  0.56952500  1
  Cl  Cl41  1  0.15539600  0.82617000  0.27480000  1
  Cl  Cl42  1  0.51726200  0.75216000  0.81149600  1
  Cl  Cl43  1  0.40741200  0.03034800  0.31493500  1
  Cl  Cl44  1  0.59258800  0.53034800  0.18506500  1
  Cl  Cl45  1  0.24756000  0.90340000  0.93047500  1
  Cl  Cl46  1  0.84460400  0.17383000  0.72520000  1
  Cl  Cl47  1  0.30768100  0.44008700  0.02605700  1
  Cl  Cl48  1  0.84460400  0.32617000  0.22520000  1
  Cl  Cl49  1  0.59258800  0.96965200  0.68506500  1
  Cl  Cl50  1  0.30768100  0.05991300  0.52605700  1
  Cl  Cl51  1  0.48273800  0.24784000  0.18850400  1
  Cl  Cl52  1  0.96119400  0.38473400  0.04353200  1
  Cl  Cl53  1  0.69231900  0.55991300  0.97394300  1
  Cl  Cl54  1  0.48273800  0.25216000  0.68850400  1
  Cl  Cl55  1  0.03880600  0.88473400  0.45646800  1
  Cl  Cl56  1  0.24756000  0.59660000  0.43047500  1
  Cl  Cl57  1  0.03880600  0.61526600  0.95646800  1
  Cl  Cl58  1  0.96119400  0.11526600  0.54353200  1
  Cl  Cl59  1  0.02292100  0.90200200  0.06907400  1
  Cl  Cl60  1  0.97707900  0.40200200  0.43092600  1
  Cl  Cl61  1  0.97707900  0.09799800  0.93092600  1
  Cl  Cl62  1  0.40741200  0.46965200  0.81493500  1
  Cl  Cl63  1  0.15539600  0.67383000  0.77480000  1
  O  O64  1  0.34608800  0.72870100  0.11783600  1
  O  O65  1  0.34608800  0.77129900  0.61783600  1
  O  O66  1  0.61568700  0.70109500  0.54235200  1
  O  O67  1  0.76380300  0.92849600  0.24877400  1
  O  O68  1  0.89971200  0.66557300  0.15645100  1
  O  O69  1  0.54040400  0.04795400  0.86074500  1
  O  O70  1  0.38431300  0.29890500  0.45764800  1
  O  O71  1  0.12217500  0.31087400  0.65817900  1
  O  O72  1  0.23619700  0.42849600  0.25122600  1
  O  O73  1  0.45959600  0.54795400  0.63925500  1
  O  O74  1  0.38431300  0.20109500  0.95764800  1
  O  O75  1  0.54040400  0.45204600  0.36074500  1
  O  O76  1  0.61568700  0.79890500  0.04235200  1
  O  O77  1  0.45959600  0.95204600  0.13925500  1
  O  O78  1  0.23619700  0.07150400  0.75122600  1
  O  O79  1  0.87782500  0.81087400  0.84182100  1
  O  O80  1  0.87782500  0.68912600  0.34182100  1
  O  O81  1  0.65391200  0.22870100  0.38216400  1
  O  O82  1  0.76380300  0.57150400  0.74877400  1
  O  O83  1  0.10028800  0.33442700  0.84354900  1
  O  O84  1  0.12217500  0.18912600  0.15817900  1
  O  O85  1  0.89971200  0.83442700  0.65645100  1
  O  O86  1  0.65391200  0.27129900  0.88216400  1
  O  O87  1  0.10028800  0.16557300  0.34354900  1
