# generated using pymatgen
data_Al24Tl10Cd7(SiO4)24
_symmetry_space_group_name_H-M   'P 1'
_cell_length_a   17.78995400
_cell_length_b   17.79522098
_cell_length_c   17.82185340
_cell_angle_alpha   89.74336400
_cell_angle_beta   119.92341689
_cell_angle_gamma   119.97301046
_symmetry_Int_Tables_number   1
_chemical_formula_structural   Al24Tl10Cd7(SiO4)24
_chemical_formula_sum   'Al24 Tl10 Cd7 Si24 O96'
_cell_volume   4004.51789943
_cell_formula_units_Z   1
loop_
 _symmetry_equiv_pos_site_id
 _symmetry_equiv_pos_as_xyz
  1  'x, y, z'
loop_
 _atom_site_type_symbol
 _atom_site_label
 _atom_site_symmetry_multiplicity
 _atom_site_fract_x
 _atom_site_fract_y
 _atom_site_fract_z
 _atom_site_occupancy
  Al  Al0  1  0.23864500  0.60202000  0.02789300  1
  Al  Al1  1  0.60554500  0.96714000  0.21028100  1
  Al  Al2  1  0.42665200  0.78679800  0.39757400  1
  Al  Al3  1  0.89499300  0.79012200  0.03224500  1
  Al  Al4  1  0.24014300  0.13708400  0.20990600  1
  Al  Al5  1  0.42659800  0.13625400  0.02954900  1
  Al  Al6  1  0.74324800  0.21295600  0.13826100  1
  Al  Al7  1  0.07345500  0.60191600  0.21317300  1
  Al  Al8  1  0.25979700  0.97091900  0.39778900  1
  Al  Al9  1  0.10944300  0.39507300  0.13844900  1
  Al  Al10  1  0.60759600  0.13862800  0.39756900  1
  Al  Al11  1  0.07196700  0.96536000  0.86275900  1
  Al  Al12  1  0.92418800  0.02932100  0.13898200  1
  Al  Al13  1  0.38943500  0.86041500  0.60529100  1
  Al  Al14  1  0.89668500  0.60584800  0.86184500  1
  Al  Al15  1  0.74667900  0.03118000  0.60649100  1
  Al  Al16  1  0.92496600  0.39495500  0.78513800  1
  Al  Al17  1  0.25623600  0.79090600  0.86309600  1
  Al  Al18  1  0.57558700  0.86105100  0.97083500  1
  Al  Al19  1  0.75585000  0.86053600  0.78683500  1
  Al  Al20  1  0.10898700  0.21389800  0.96980100  1
  Al  Al21  1  0.57649900  0.21619400  0.60580200  1
  Al  Al22  1  0.39061200  0.03108400  0.78563500  1
  Al  Al23  1  0.75519000  0.39428900  0.96893800  1
  Tl  Tl24  1  0.98937600  0.74468200  0.73413900  1
  Tl  Tl25  1  0.00239400  0.25449600  0.25090900  1
  Tl  Tl26  1  0.81648500  0.15731400  0.40800100  1
  Tl  Tl27  1  0.49827200  0.74893400  0.74727300  1
  Tl  Tl28  1  0.24392100  0.59201000  0.83706400  1
  Tl  Tl29  1  0.00064600  0.25123900  0.75110800  1
  Tl  Tl30  1  0.24880100  0.15783200  0.40799400  1
  Tl  Tl31  1  0.68566100  0.59312400  0.83763500  1
  Tl  Tl32  1  0.24429900  0.15166600  0.83580800  1
  Tl  Tl33  1  0.50190800  0.25144600  0.75103100  1
  Cd  Cd34  1  0.99205000  0.00158500  0.99492900  1
  Cd  Cd35  1  0.99441300  0.49190400  0.99684800  1
  Cd  Cd36  1  0.50416200  0.00152000  0.99457700  1
  Cd  Cd37  1  0.43622200  0.77607200  0.22235800  1
  Cd  Cd38  1  0.50679300  0.00182700  0.51169600  1
  Cd  Cd39  1  0.43982700  0.16062900  0.21905400  1
  Cd  Cd40  1  0.06162900  0.77550400  0.22175600  1
  Si  Si41  1  0.42814200  0.78992700  0.03427500  1
  Si  Si42  1  0.24389000  0.60313000  0.20970800  1
  Si  Si43  1  0.60560500  0.96700100  0.39621400  1
  Si  Si44  1  0.24241400  0.13750400  0.03234500  1
  Si  Si45  1  0.07114200  0.96552000  0.21013400  1
  Si  Si46  1  0.89458300  0.60381400  0.03258600  1
  Si  Si47  1  0.93128000  0.39515400  0.14197700  1
  Si  Si48  1  0.60512900  0.13788300  0.20998800  1
  Si  Si49  1  0.42942000  0.13959400  0.39590000  1
  Si  Si50  1  0.74754900  0.03662400  0.14419500  1
  Si  Si51  1  0.25579500  0.79015100  0.39640200  1
  Si  Si52  1  0.89605700  0.79047200  0.86095000  1
  Si  Si53  1  0.10579500  0.20956200  0.14385000  1
  Si  Si54  1  0.74860100  0.21122500  0.60400700  1
  Si  Si55  1  0.25545500  0.96511300  0.86054000  1
  Si  Si56  1  0.56845400  0.85751300  0.60474200  1
  Si  Si57  1  0.39280400  0.85522500  0.79050600  1
  Si  Si58  1  0.06880800  0.60445600  0.85917100  1
  Si  Si59  1  0.10583800  0.39543000  0.96151800  1
  Si  Si60  1  0.93550000  0.03783200  0.78984600  1
  Si  Si61  1  0.75268200  0.85605100  0.96384600  1
  Si  Si62  1  0.39414900  0.03908300  0.60455300  1
  Si  Si63  1  0.75242400  0.39756800  0.78920000  1
  Si  Si64  1  0.56609700  0.21052800  0.96222800  1
  O  O65  1  0.33844700  0.68711300  0.01899900  1
  O  O66  1  0.06710200  0.40711100  0.02647200  1
  O  O67  1  0.63174400  0.97159000  0.04138800  1
  O  O68  1  0.49818200  0.78396300  0.00537800  1
  O  O69  1  0.50029600  0.84783800  0.14697800  1
  O  O70  1  0.29267500  0.64077300  0.14626400  1
  O  O71  1  0.22218500  0.50489000  0.21446700  1
  O  O72  1  0.86860700  0.95948700  0.02895100  1
  O  O73  1  0.07007200  0.15961200  0.04147000  1
  O  O74  1  0.33728700  0.68559200  0.30700600  1
  O  O75  1  0.63264700  0.98173100  0.32019500  1
  O  O76  1  0.22001000  0.21333600  0.00174000  1
  O  O77  1  0.50869400  0.85608700  0.35845900  1
  O  O78  1  0.33308800  0.15113300  0.02114900  1
  O  O79  1  0.86987000  0.68111200  0.02125000  1
  O  O80  1  0.71245300  0.99908700  0.49439700  1
  O  O81  1  0.00295100  0.99618200  0.21715300  1
  O  O82  1  0.62393400  0.96297600  0.59556800  1
  O  O83  1  0.29509300  0.15212700  0.14510100  1
  O  O84  1  0.78814900  0.50568200  0.00155500  1
  O  O85  1  0.00021000  0.85362700  0.15285500  1
  O  O86  1  0.16276400  0.98331700  0.31390300  1
  O  O87  1  0.99126200  0.64018100  0.14389200  1
  O  O88  1  0.61828400  0.15943600  0.02852300  1
  O  O89  1  0.87790700  0.40541800  0.03730400  1
  O  O90  1  0.50735300  0.15246500  0.15015900  1
  O  O91  1  0.33873800  0.15145700  0.31909000  1
  O  O92  1  0.84118500  0.31963700  0.15302300  1
  O  O93  1  0.55679700  0.03277000  0.15707400  1
  O  O94  1  0.13216500  0.59636900  0.15794000  1
  O  O95  1  0.50279000  0.15401800  0.35663400  1
  O  O96  1  0.71157100  0.21302900  0.21798700  1
  O  O97  1  0.20603200  0.85313400  0.35770500  1
  O  O98  1  0.00054900  0.49477500  0.21741100  1
  O  O99  1  0.88063400  0.97105600  0.83895300  1
  O  O100  1  0.49620100  0.21437000  0.49357800  1
  O  O101  1  0.78664500  0.78032300  0.78823200  1
  O  O102  1  0.63115000  0.15112600  0.31254200  1
  O  O103  1  0.16316500  0.69267200  0.31457300  1
  O  O104  1  0.00718500  0.36280200  0.15303100  1
  O  O105  1  0.79129900  0.14428300  0.15330600  1
  O  O106  1  0.72374600  0.01036000  0.22217300  1
  O  O107  1  0.36820000  0.84245100  0.40375500  1
  O  O108  1  0.55715800  0.02446500  0.40170400  1
  O  O109  1  0.83244200  0.01979700  0.15534400  1
  O  O110  1  0.13262600  0.31098200  0.15401700  1
  O  O111  1  0.98841300  0.84778000  0.84323100  1
  O  O112  1  0.27744000  0.78617400  0.49454200  1
  O  O113  1  0.72539400  0.21396700  0.50250600  1
  O  O114  1  0.00761000  0.14577300  0.15346000  1
  O  O115  1  0.86502100  0.68582400  0.85029300  1
  O  O116  1  0.17187700  0.98632200  0.85064300  1
  O  O117  1  0.43199500  0.97318700  0.59330700  1
  O  O118  1  0.63239500  0.16140900  0.59105900  1
  O  O119  1  0.28175600  0.00289700  0.78786500  1
  O  O120  1  0.20270400  0.85534300  0.84333600  1
  O  O121  1  0.99432300  0.64003800  0.84157000  1
  O  O122  1  0.83360400  0.31224500  0.67784400  1
  O  O123  1  0.36524400  0.84392200  0.68860000  1
  O  O124  1  0.20981900  0.21245300  0.22262500  1
  O  O125  1  0.49983300  0.78315600  0.50485000  1
  O  O126  1  0.12287300  0.02294600  0.15628300  1
  O  O127  1  0.00712200  0.50592100  0.78677000  1
  O  O128  1  0.79291500  0.14743800  0.63835300  1
  O  O129  1  0.29051500  0.77789100  0.79000500  1
  O  O130  1  0.49245300  0.84706800  0.63668700  1
  O  O131  1  0.86753000  0.40882100  0.83839900  1
  O  O132  1  0.42934500  0.95895900  0.83859200  1
  O  O133  1  0.16385000  0.67888100  0.84963200  1
  O  O134  1  0.65862600  0.84644000  0.68022900  1
  O  O135  1  0.49213800  0.84679900  0.85451300  1
  O  O136  1  0.12053700  0.59800100  0.96504600  1
  O  O137  1  0.37664700  0.84396700  0.97723000  1
  O  O138  1  0.00738600  0.36038900  0.85386800  1
  O  O139  1  0.84667000  0.02272400  0.68798100  1
  O  O140  1  0.00702000  0.14511300  0.85380400  1
  O  O141  1  0.20905000  0.49620800  0.98605000  1
  O  O142  1  0.70883700  0.84744600  0.85632100  1
  O  O143  1  0.37864900  0.03452500  0.40181900  1
  O  O144  1  0.01319400  0.01371600  0.78960700  1
  O  O145  1  0.29076800  0.01441600  0.50349600  1
  O  O146  1  0.13412600  0.32152900  0.97800000  1
  O  O147  1  0.66788400  0.84536200  0.98067900  1
  O  O148  1  0.49251100  0.14661200  0.63852900  1
  O  O149  1  0.77746100  0.77898600  0.99094300  1
  O  O150  1  0.36524300  0.02256500  0.67799300  1
  O  O151  1  0.66636100  0.32367200  0.68758300  1
  O  O152  1  0.94352300  0.84379000  0.96698200  1
  O  O153  1  0.13298200  0.03237000  0.97680300  1
  O  O154  1  0.77639300  0.49926300  0.78840400  1
  O  O155  1  0.70726300  0.36172800  0.85237300  1
  O  O156  1  0.49424200  0.14696800  0.85502600  1
  O  O157  1  0.49005300  0.21295200  0.98745800  1
  O  O158  1  0.36724200  0.02274800  0.96658600  1
  O  O159  1  0.94356900  0.59927000  0.97575700  1
  O  O160  1  0.65578800  0.31169600  0.97771700  1
