# generated using pymatgen
data_SeCl4
_symmetry_space_group_name_H-M   'P 1'
_cell_length_a   16.94188500
_cell_length_b   16.94188500
_cell_length_c   16.94188500
_cell_angle_alpha   90.00000000
_cell_angle_beta   90.00000000
_cell_angle_gamma   90.00000000
_symmetry_Int_Tables_number   1
_chemical_formula_structural   SeCl4
_chemical_formula_sum   'Se32 Cl128'
_cell_volume   4862.78634374
_cell_formula_units_Z   32
loop_
 _symmetry_equiv_pos_site_id
 _symmetry_equiv_pos_as_xyz
  1  'x, y, z'
loop_
 _atom_site_type_symbol
 _atom_site_label
 _atom_site_symmetry_multiplicity
 _atom_site_fract_x
 _atom_site_fract_y
 _atom_site_fract_z
 _atom_site_occupancy
  Se  Se0  1  0.09147400  0.59861100  0.66943600  1
  Se  Se1  1  0.83056400  0.90138900  0.59147400  1
  Se  Se2  1  0.08830300  0.91169700  0.91169700  1
  Se  Se3  1  0.40138900  0.66943600  0.90852600  1
  Se  Se4  1  0.59147400  0.83056400  0.90138900  1
  Se  Se5  1  0.90852600  0.40138900  0.66943600  1
  Se  Se6  1  0.40138900  0.33056400  0.09147400  1
  Se  Se7  1  0.59861100  0.66943600  0.09147400  1
  Se  Se8  1  0.58830300  0.41169700  0.41169700  1
  Se  Se9  1  0.16943600  0.90138900  0.40852600  1
  Se  Se10  1  0.91169700  0.91169700  0.08830300  1
  Se  Se11  1  0.41169700  0.58830300  0.41169700  1
  Se  Se12  1  0.09861100  0.59147400  0.16943600  1
  Se  Se13  1  0.83056400  0.09861100  0.40852600  1
  Se  Se14  1  0.33056400  0.09147400  0.40138900  1
  Se  Se15  1  0.33056400  0.90852600  0.59861100  1
  Se  Se16  1  0.40852600  0.16943600  0.90138900  1
  Se  Se17  1  0.66943600  0.90852600  0.40138900  1
  Se  Se18  1  0.90852600  0.59861100  0.33056400  1
  Se  Se19  1  0.90138900  0.40852600  0.16943600  1
  Se  Se20  1  0.66943600  0.09147400  0.59861100  1
  Se  Se21  1  0.08830300  0.08830300  0.08830300  1
  Se  Se22  1  0.41169700  0.41169700  0.58830300  1
  Se  Se23  1  0.58830300  0.58830300  0.58830300  1
  Se  Se24  1  0.40852600  0.83056400  0.09861100  1
  Se  Se25  1  0.90138900  0.59147400  0.83056400  1
  Se  Se26  1  0.09861100  0.40852600  0.83056400  1
  Se  Se27  1  0.91169700  0.08830300  0.91169700  1
  Se  Se28  1  0.16943600  0.09861100  0.59147400  1
  Se  Se29  1  0.59861100  0.33056400  0.90852600  1
  Se  Se30  1  0.09147400  0.40138900  0.33056400  1
  Se  Se31  1  0.59147400  0.16943600  0.09861100  1
  Cl  Cl32  1  0.03842300  0.09893500  0.59556100  1
  Cl  Cl33  1  0.27939100  0.18703100  0.90280700  1
  Cl  Cl34  1  0.27939100  0.81296900  0.09719300  1
  Cl  Cl35  1  0.28146200  0.58374400  0.42139200  1
  Cl  Cl36  1  0.17022300  0.07147700  0.42129600  1
  Cl  Cl37  1  0.78146200  0.07860800  0.91625600  1
  Cl  Cl38  1  0.57694600  0.42305400  0.57694600  1
  Cl  Cl39  1  0.31832800  0.07629800  0.27270700  1
  Cl  Cl40  1  0.59893500  0.53842300  0.09556100  1
  Cl  Cl41  1  0.09893500  0.40443900  0.96157700  1
  Cl  Cl42  1  0.82977700  0.07147700  0.57870400  1
  Cl  Cl43  1  0.18703100  0.09719300  0.72060900  1
  Cl  Cl44  1  0.53842300  0.09556100  0.59893500  1
  Cl  Cl45  1  0.59556100  0.03842300  0.09893500  1
  Cl  Cl46  1  0.22729300  0.57629800  0.18167200  1
  Cl  Cl47  1  0.92305400  0.07694600  0.07694600  1
  Cl  Cl48  1  0.40106500  0.53842300  0.90443900  1
  Cl  Cl49  1  0.90443900  0.59893500  0.46157700  1
  Cl  Cl50  1  0.42852300  0.32977700  0.92129600  1
  Cl  Cl51  1  0.31832800  0.92370200  0.72729300  1
  Cl  Cl52  1  0.21853800  0.92139200  0.91625600  1
  Cl  Cl53  1  0.78146200  0.92139200  0.08374400  1
  Cl  Cl54  1  0.57694600  0.57694600  0.42305400  1
  Cl  Cl55  1  0.71853800  0.41625600  0.42139200  1
  Cl  Cl56  1  0.32977700  0.07870400  0.57147700  1
  Cl  Cl57  1  0.09556100  0.40106500  0.46157700  1
  Cl  Cl58  1  0.40106500  0.46157700  0.09556100  1
  Cl  Cl59  1  0.68703100  0.22060900  0.59719300  1
  Cl  Cl60  1  0.67022300  0.92129600  0.57147700  1
  Cl  Cl61  1  0.72060900  0.18703100  0.09719300  1
  Cl  Cl62  1  0.57870400  0.17022300  0.92852300  1
  Cl  Cl63  1  0.90106500  0.40443900  0.03842300  1
  Cl  Cl64  1  0.40443900  0.03842300  0.90106500  1
  Cl  Cl65  1  0.57147700  0.32977700  0.07870400  1
  Cl  Cl66  1  0.32977700  0.92129600  0.42852300  1
  Cl  Cl67  1  0.28146200  0.41625600  0.57860800  1
  Cl  Cl68  1  0.71853800  0.58374400  0.57860800  1
  Cl  Cl69  1  0.57629800  0.81832800  0.77270700  1
  Cl  Cl70  1  0.53842300  0.90443900  0.40106500  1
  Cl  Cl71  1  0.92129600  0.42852300  0.32977700  1
  Cl  Cl72  1  0.67022300  0.07870400  0.42852300  1
  Cl  Cl73  1  0.42305400  0.42305400  0.42305400  1
  Cl  Cl74  1  0.07629800  0.72729300  0.68167200  1
  Cl  Cl75  1  0.92139200  0.08374400  0.78146200  1
  Cl  Cl76  1  0.58374400  0.42139200  0.28146200  1
  Cl  Cl77  1  0.81832800  0.77270700  0.57629800  1
  Cl  Cl78  1  0.31296900  0.22060900  0.40280700  1
  Cl  Cl79  1  0.59556100  0.96157700  0.90106500  1
  Cl  Cl80  1  0.96157700  0.09893500  0.40443900  1
  Cl  Cl81  1  0.18167200  0.22729300  0.57629800  1
  Cl  Cl82  1  0.08374400  0.21853800  0.07860800  1
  Cl  Cl83  1  0.09719300  0.72060900  0.18703100  1
  Cl  Cl84  1  0.77270700  0.57629800  0.81832800  1
  Cl  Cl85  1  0.92852300  0.42129600  0.82977700  1
  Cl  Cl86  1  0.22060900  0.40280700  0.31296900  1
  Cl  Cl87  1  0.18167200  0.77270700  0.42370200  1
  Cl  Cl88  1  0.27270700  0.68167200  0.92370200  1
  Cl  Cl89  1  0.17022300  0.92852300  0.57870400  1
  Cl  Cl90  1  0.68167200  0.92370200  0.27270700  1
  Cl  Cl91  1  0.57147700  0.67022300  0.92129600  1
  Cl  Cl92  1  0.82977700  0.92852300  0.42129600  1
  Cl  Cl93  1  0.09556100  0.59893500  0.53842300  1
  Cl  Cl94  1  0.42305400  0.57694600  0.57694600  1
  Cl  Cl95  1  0.41625600  0.57860800  0.28146200  1
  Cl  Cl96  1  0.90280700  0.27939100  0.18703100  1
  Cl  Cl97  1  0.03842300  0.90106500  0.40443900  1
  Cl  Cl98  1  0.42139200  0.28146200  0.58374400  1
  Cl  Cl99  1  0.59719300  0.68703100  0.22060900  1
  Cl  Cl100  1  0.91625600  0.78146200  0.07860800  1
  Cl  Cl101  1  0.72060900  0.81296900  0.90280700  1
  Cl  Cl102  1  0.90106500  0.59556100  0.96157700  1
  Cl  Cl103  1  0.07860800  0.91625600  0.78146200  1
  Cl  Cl104  1  0.22729300  0.42370200  0.81832800  1
  Cl  Cl105  1  0.77939100  0.40280700  0.68703100  1
  Cl  Cl106  1  0.46157700  0.09556100  0.40106500  1
  Cl  Cl107  1  0.77939100  0.59719300  0.31296900  1
  Cl  Cl108  1  0.42129600  0.17022300  0.07147700  1
  Cl  Cl109  1  0.92370200  0.72729300  0.31832800  1
  Cl  Cl110  1  0.07694600  0.07694600  0.92305400  1
  Cl  Cl111  1  0.92305400  0.92305400  0.92305400  1
  Cl  Cl112  1  0.92370200  0.27270700  0.68167200  1
  Cl  Cl113  1  0.42370200  0.81832800  0.22729300  1
  Cl  Cl114  1  0.96157700  0.90106500  0.59556100  1
  Cl  Cl115  1  0.92852300  0.57870400  0.17022300  1
  Cl  Cl116  1  0.90280700  0.72060900  0.81296900  1
  Cl  Cl117  1  0.81296900  0.90280700  0.72060900  1
  Cl  Cl118  1  0.27270700  0.31832800  0.07629800  1
  Cl  Cl119  1  0.42370200  0.18167200  0.77270700  1
  Cl  Cl120  1  0.07629800  0.27270700  0.31832800  1
  Cl  Cl121  1  0.07694600  0.92305400  0.07694600  1
  Cl  Cl122  1  0.46157700  0.90443900  0.59893500  1
  Cl  Cl123  1  0.92129600  0.57147700  0.67022300  1
  Cl  Cl124  1  0.58374400  0.57860800  0.71853800  1
  Cl  Cl125  1  0.42129600  0.82977700  0.92852300  1
  Cl  Cl126  1  0.57860800  0.71853800  0.58374400  1
  Cl  Cl127  1  0.22060900  0.59719300  0.68703100  1
  Cl  Cl128  1  0.09893500  0.59556100  0.03842300  1
  Cl  Cl129  1  0.42852300  0.67022300  0.07870400  1
  Cl  Cl130  1  0.09719300  0.27939100  0.81296900  1
  Cl  Cl131  1  0.91625600  0.21853800  0.92139200  1
  Cl  Cl132  1  0.42139200  0.71853800  0.41625600  1
  Cl  Cl133  1  0.07147700  0.42129600  0.17022300  1
  Cl  Cl134  1  0.57870400  0.82977700  0.07147700  1
  Cl  Cl135  1  0.40443900  0.96157700  0.09893500  1
  Cl  Cl136  1  0.68167200  0.07629800  0.72729300  1
  Cl  Cl137  1  0.07870400  0.57147700  0.32977700  1
  Cl  Cl138  1  0.59893500  0.46157700  0.90443900  1
  Cl  Cl139  1  0.68703100  0.77939100  0.40280700  1
  Cl  Cl140  1  0.90443900  0.40106500  0.53842300  1
  Cl  Cl141  1  0.40280700  0.31296900  0.22060900  1
  Cl  Cl142  1  0.31296900  0.77939100  0.59719300  1
  Cl  Cl143  1  0.07870400  0.42852300  0.67022300  1
  Cl  Cl144  1  0.57860800  0.28146200  0.41625600  1
  Cl  Cl145  1  0.07860800  0.08374400  0.21853800  1
  Cl  Cl146  1  0.81832800  0.22729300  0.42370200  1
  Cl  Cl147  1  0.92139200  0.91625600  0.21853800  1
  Cl  Cl148  1  0.18703100  0.90280700  0.27939100  1
  Cl  Cl149  1  0.21853800  0.07860800  0.08374400  1
  Cl  Cl150  1  0.72729300  0.31832800  0.92370200  1
  Cl  Cl151  1  0.72729300  0.68167200  0.07629800  1
  Cl  Cl152  1  0.07147700  0.57870400  0.82977700  1
  Cl  Cl153  1  0.77270700  0.42370200  0.18167200  1
  Cl  Cl154  1  0.57629800  0.18167200  0.22729300  1
  Cl  Cl155  1  0.81296900  0.09719300  0.27939100  1
  Cl  Cl156  1  0.59719300  0.31296900  0.77939100  1
  Cl  Cl157  1  0.40280700  0.68703100  0.77939100  1
  Cl  Cl158  1  0.08374400  0.78146200  0.92139200  1
  Cl  Cl159  1  0.41625600  0.42139200  0.71853800  1
