# generated using pymatgen
data_Mg(GaS2)2
_symmetry_space_group_name_H-M   'P 1'
_cell_length_a   12.86569000
_cell_length_b   22.76771800
_cell_length_c   6.47657717
_cell_angle_alpha   90.00000000
_cell_angle_beta   108.80548904
_cell_angle_gamma   90.00000000
_symmetry_Int_Tables_number   1
_chemical_formula_structural   Mg(GaS2)2
_chemical_formula_sum   'Mg12 Ga24 S48'
_cell_volume   1795.86242828
_cell_formula_units_Z   12
loop_
 _symmetry_equiv_pos_site_id
 _symmetry_equiv_pos_as_xyz
  1  'x, y, z'
loop_
 _atom_site_type_symbol
 _atom_site_label
 _atom_site_symmetry_multiplicity
 _atom_site_fract_x
 _atom_site_fract_y
 _atom_site_fract_z
 _atom_site_occupancy
  Mg  Mg0  1  0.00000000  0.12970700  0.25000000  1
  Mg  Mg1  1  0.50000000  0.37029300  0.75000000  1
  Mg  Mg2  1  0.50000000  0.45636100  0.25000000  1
  Mg  Mg3  1  0.00000000  0.04363900  0.75000000  1
  Mg  Mg4  1  0.50000000  0.28222700  0.25000000  1
  Mg  Mg5  1  0.00000000  0.21777300  0.75000000  1
  Mg  Mg6  1  0.50000000  0.62970700  0.25000000  1
  Mg  Mg7  1  0.00000000  0.87029300  0.75000000  1
  Mg  Mg8  1  0.00000000  0.95636100  0.25000000  1
  Mg  Mg9  1  0.50000000  0.54363900  0.75000000  1
  Mg  Mg10  1  0.00000000  0.78222700  0.25000000  1
  Mg  Mg11  1  0.50000000  0.71777300  0.75000000  1
  Ga  Ga12  1  0.70826450  0.12500750  0.38174300  1
  Ga  Ga13  1  0.29173550  0.12500750  0.11825700  1
  Ga  Ga14  1  0.79173550  0.37499250  0.61825700  1
  Ga  Ga15  1  0.20826450  0.37499250  0.88174300  1
  Ga  Ga16  1  0.21179100  0.45978900  0.38198000  1
  Ga  Ga17  1  0.78820900  0.45978900  0.11802000  1
  Ga  Ga18  1  0.28820900  0.04021100  0.61802000  1
  Ga  Ga19  1  0.71179100  0.04021100  0.88198000  1
  Ga  Ga20  1  0.18402900  0.29943700  0.35335700  1
  Ga  Ga21  1  0.81597100  0.29943700  0.14664300  1
  Ga  Ga22  1  0.31597100  0.20056300  0.64664300  1
  Ga  Ga23  1  0.68402900  0.20056300  0.85335700  1
  Ga  Ga24  1  0.20826450  0.62500750  0.38174300  1
  Ga  Ga25  1  0.79173550  0.62500750  0.11825700  1
  Ga  Ga26  1  0.29173550  0.87499250  0.61825700  1
  Ga  Ga27  1  0.70826450  0.87499250  0.88174300  1
  Ga  Ga28  1  0.71179100  0.95978900  0.38198000  1
  Ga  Ga29  1  0.28820900  0.95978900  0.11802000  1
  Ga  Ga30  1  0.78820900  0.54021100  0.61802000  1
  Ga  Ga31  1  0.21179100  0.54021100  0.88198000  1
  Ga  Ga32  1  0.68402900  0.79943700  0.35335700  1
  Ga  Ga33  1  0.31597100  0.79943700  0.14664300  1
  Ga  Ga34  1  0.81597100  0.70056300  0.64664300  1
  Ga  Ga35  1  0.18402900  0.70056300  0.85335700  1
  S  S36  1  0.89172150  0.13188650  0.51697800  1
  S  S37  1  0.10827850  0.13188650  0.98302200  1
  S  S38  1  0.60827850  0.36811350  0.48302200  1
  S  S39  1  0.39172150  0.36811350  0.01697800  1
  S  S40  1  0.39252650  0.45605750  0.51696600  1
  S  S41  1  0.60747350  0.45605750  0.98303400  1
  S  S42  1  0.10747350  0.04394250  0.48303400  1
  S  S43  1  0.89252650  0.04394250  0.01696600  1
  S  S44  1  0.37205200  0.28372400  0.50270100  1
  S  S45  1  0.62794800  0.28372400  0.99729900  1
  S  S46  1  0.12794800  0.21627600  0.49729900  1
  S  S47  1  0.87205200  0.21627600  0.00270100  1
  S  S48  1  0.12544600  0.38209200  0.49978800  1
  S  S49  1  0.87455400  0.38209200  0.00021200  1
  S  S50  1  0.37455400  0.11790800  0.50021200  1
  S  S51  1  0.62544600  0.11790800  0.99978800  1
  S  S52  1  0.63311000  0.04078000  0.49855000  1
  S  S53  1  0.36689000  0.04078000  0.00145000  1
  S  S54  1  0.86689000  0.45922000  0.50145000  1
  S  S55  1  0.13311000  0.45922000  0.99855000  1
  S  S56  1  0.61521050  0.19817950  0.48747600  1
  S  S57  1  0.38478950  0.19817950  0.01252400  1
  S  S58  1  0.88478950  0.30182050  0.51252400  1
  S  S59  1  0.11521050  0.30182050  0.98747600  1
  S  S60  1  0.39172150  0.63188650  0.51697800  1
  S  S61  1  0.60827850  0.63188650  0.98302200  1
  S  S62  1  0.10827850  0.86811350  0.48302200  1
  S  S63  1  0.89172150  0.86811350  0.01697800  1
  S  S64  1  0.89252650  0.95605750  0.51696600  1
  S  S65  1  0.10747350  0.95605750  0.98303400  1
  S  S66  1  0.60747350  0.54394250  0.48303400  1
  S  S67  1  0.39252650  0.54394250  0.01696600  1
  S  S68  1  0.87205200  0.78372400  0.50270100  1
  S  S69  1  0.12794800  0.78372400  0.99729900  1
  S  S70  1  0.62794800  0.71627600  0.49729900  1
  S  S71  1  0.37205200  0.71627600  0.00270100  1
  S  S72  1  0.62544600  0.88209200  0.49978800  1
  S  S73  1  0.37455400  0.88209200  0.00021200  1
  S  S74  1  0.87455400  0.61790800  0.50021200  1
  S  S75  1  0.12544600  0.61790800  0.99978800  1
  S  S76  1  0.13311000  0.54078000  0.49855000  1
  S  S77  1  0.86689000  0.54078000  0.00145000  1
  S  S78  1  0.36689000  0.95922000  0.50145000  1
  S  S79  1  0.63311000  0.95922000  0.99855000  1
  S  S80  1  0.11521050  0.69817950  0.48747600  1
  S  S81  1  0.88478950  0.69817950  0.01252400  1
  S  S82  1  0.38478950  0.80182050  0.51252400  1
  S  S83  1  0.61521050  0.80182050  0.98747600  1
