# generated using pymatgen
data_H5IO6
_symmetry_space_group_name_H-M   'P 1'
_cell_length_a   4.92196300
_cell_length_b   18.46406200
_cell_length_c   5.51926887
_cell_angle_alpha   90.00000000
_cell_angle_beta   110.29836029
_cell_angle_gamma   90.00000000
_symmetry_Int_Tables_number   1
_chemical_formula_structural   H5IO6
_chemical_formula_sum   'H20 I4 O24'
_cell_volume   470.43882343
_cell_formula_units_Z   4
loop_
 _symmetry_equiv_pos_site_id
 _symmetry_equiv_pos_as_xyz
  1  'x, y, z'
loop_
 _atom_site_type_symbol
 _atom_site_label
 _atom_site_symmetry_multiplicity
 _atom_site_fract_x
 _atom_site_fract_y
 _atom_site_fract_z
 _atom_site_occupancy
  H  H0  1  0.36142100  0.45453500  0.02209300  1
  H  H1  1  0.04536500  0.00699400  0.34841300  1
  H  H2  1  0.95463500  0.50699400  0.65158700  1
  H  H3  1  0.63857900  0.95453500  0.97790700  1
  H  H4  1  0.80346200  0.39037000  0.48837200  1
  H  H5  1  0.41004300  0.02012400  0.08946200  1
  H  H6  1  0.58995700  0.52012400  0.91053800  1
  H  H7  1  0.19653800  0.89037000  0.51162800  1
  H  H8  1  0.64411300  0.03473600  0.60265200  1
  H  H9  1  0.35588700  0.53473600  0.39734800  1
  H  H10  1  0.21085400  0.30975600  0.88906400  1
  H  H11  1  0.66445600  0.19980300  0.35396500  1
  H  H12  1  0.33554400  0.69980300  0.64603500  1
  H  H13  1  0.78914600  0.80975600  0.11093600  1
  H  H14  1  0.24152300  0.13587300  0.84028100  1
  H  H15  1  0.75847700  0.63587300  0.15971900  1
  H  H16  1  0.50804100  0.29305600  0.66457900  1
  H  H17  1  0.00502300  0.22677000  0.11578300  1
  H  H18  1  0.99497700  0.72677000  0.88421700  1
  H  H19  1  0.49195900  0.79305600  0.33542100  1
  I  I20  1  0.82767500  0.38428500  0.97380100  1
  I  I21  1  0.26197800  0.12770500  0.40532900  1
  I  I22  1  0.73802200  0.62770500  0.59467100  1
  I  I23  1  0.17232500  0.88428500  0.02619900  1
  O  O24  1  0.53913200  0.46509600  0.95258400  1
  O  O25  1  0.97927300  0.05517500  0.39373600  1
  O  O26  1  0.02072700  0.55517500  0.60626400  1
  O  O27  1  0.46086800  0.96509600  0.04741600  1
  O  O28  1  0.81468600  0.42489000  0.64702500  1
  O  O29  1  0.34053700  0.09046200  0.12523600  1
  O  O30  1  0.65946300  0.59046200  0.87476400  1
  O  O31  1  0.18531400  0.92489000  0.35297500  1
  O  O32  1  0.14449400  0.44216300  0.12827100  1
  O  O33  1  0.56573200  0.07638200  0.66844800  1
  O  O34  1  0.43426800  0.57638200  0.33155200  1
  O  O35  1  0.85550600  0.94216300  0.87172900  1
  O  O36  1  0.02910600  0.29820800  0.92913400  1
  O  O37  1  0.50761900  0.21143000  0.42502000  1
  O  O38  1  0.49238100  0.71143000  0.57498000  1
  O  O39  1  0.97089400  0.79820800  0.07086600  1
  O  O40  1  0.78464400  0.34949300  0.26578000  1
  O  O41  1  0.18508000  0.17018500  0.68840900  1
  O  O42  1  0.81492000  0.67018500  0.31159100  1
  O  O43  1  0.21535600  0.84949300  0.73422000  1
  O  O44  1  0.46920000  0.33055100  0.77752300  1
  O  O45  1  0.93836000  0.18408700  0.19407800  1
  O  O46  1  0.06164000  0.68408700  0.80592200  1
  O  O47  1  0.53080000  0.83055100  0.22247700  1
