# generated using pymatgen
data_LiCrP2O7
_symmetry_space_group_name_H-M   'P 1'
_cell_length_a   15.23201000
_cell_length_b   5.50169400
_cell_length_c   8.31405305
_cell_angle_alpha   90.00000000
_cell_angle_beta   118.75005389
_cell_angle_gamma   90.00000000
_symmetry_Int_Tables_number   1
_chemical_formula_structural   LiCrP2O7
_chemical_formula_sum   'Li4 Cr4 P8 O28'
_cell_volume   610.84422962
_cell_formula_units_Z   4
loop_
 _symmetry_equiv_pos_site_id
 _symmetry_equiv_pos_as_xyz
  1  'x, y, z'
loop_
 _atom_site_type_symbol
 _atom_site_label
 _atom_site_symmetry_multiplicity
 _atom_site_fract_x
 _atom_site_fract_y
 _atom_site_fract_z
 _atom_site_occupancy
  Li  Li0  1  0.27023950  0.31536350  0.67588200  1
  Li  Li1  1  0.27023950  0.68463650  0.17588200  1
  Li  Li2  1  0.77023950  0.81536350  0.67588200  1
  Li  Li3  1  0.77023950  0.18463650  0.17588200  1
  Cr  Cr4  1  0.00240100  0.02404200  0.49383800  1
  Cr  Cr5  1  0.00240100  0.97595800  0.99383800  1
  Cr  Cr6  1  0.50240100  0.52404200  0.49383800  1
  Cr  Cr7  1  0.50240100  0.47595800  0.99383800  1
  P  P8  1  0.10730650  0.64408750  0.35584300  1
  P  P9  1  0.39333350  0.14742650  0.15137300  1
  P  P10  1  0.39333350  0.85257350  0.65137300  1
  P  P11  1  0.10730650  0.35591250  0.85584300  1
  P  P12  1  0.60730650  0.14408750  0.35584300  1
  P  P13  1  0.89333350  0.64742650  0.15137300  1
  P  P14  1  0.89333350  0.35257350  0.65137300  1
  P  P15  1  0.60730650  0.85591250  0.85584300  1
  O  O16  1  0.39682600  0.35162100  0.28292600  1
  O  O17  1  0.10706600  0.20043900  0.70053600  1
  O  O18  1  0.09842950  0.80671450  0.50156400  1
  O  O19  1  0.49996700  0.99728700  0.25842400  1
  O  O20  1  0.09842950  0.19328550  0.00156400  1
  O  O21  1  0.10706600  0.79956100  0.20053600  1
  O  O22  1  0.39682600  0.64837900  0.78292600  1
  O  O23  1  0.39805000  0.72547200  0.48580600  1
  O  O24  1  0.31176350  0.03304650  0.59484000  1
  O  O25  1  0.31176350  0.96695350  0.09484000  1
  O  O26  1  0.39805000  0.27452800  0.98580600  1
  O  O27  1  0.19092250  0.46699750  0.43875600  1
  O  O28  1  0.19092250  0.53300250  0.93875600  1
  O  O29  1  0.49996700  0.00271300  0.75842400  1
  O  O30  1  0.89682600  0.85162100  0.28292600  1
  O  O31  1  0.60706600  0.70043900  0.70053600  1
  O  O32  1  0.59842950  0.30671450  0.50156400  1
  O  O33  1  0.99996700  0.49728700  0.25842400  1
  O  O34  1  0.59842950  0.69328550  0.00156400  1
  O  O35  1  0.60706600  0.29956100  0.20053600  1
  O  O36  1  0.89682600  0.14837900  0.78292600  1
  O  O37  1  0.89805000  0.22547200  0.48580600  1
  O  O38  1  0.81176350  0.53304650  0.59484000  1
  O  O39  1  0.81176350  0.46695350  0.09484000  1
  O  O40  1  0.89805000  0.77452800  0.98580600  1
  O  O41  1  0.69092250  0.96699750  0.43875600  1
  O  O42  1  0.69092250  0.03300250  0.93875600  1
  O  O43  1  0.99996700  0.50271300  0.75842400  1
