# generated using pymatgen
data_Ca2H2S2O9
_symmetry_space_group_name_H-M   'P 1'
_cell_length_a   17.71717600
_cell_length_b   7.15035200
_cell_length_c   12.39532792
_cell_angle_alpha   90.00000000
_cell_angle_beta   134.33749452
_cell_angle_gamma   90.00000000
_symmetry_Int_Tables_number   1
_chemical_formula_structural   Ca2H2S2O9
_chemical_formula_sum   'Ca12 H12 S12 O54'
_cell_volume   1123.12740762
_cell_formula_units_Z   6
loop_
 _symmetry_equiv_pos_site_id
 _symmetry_equiv_pos_as_xyz
  1  'x, y, z'
loop_
 _atom_site_type_symbol
 _atom_site_label
 _atom_site_symmetry_multiplicity
 _atom_site_fract_x
 _atom_site_fract_y
 _atom_site_fract_z
 _atom_site_occupancy
  Ca  Ca0  1  0.00000000  0.53602300  0.00000000  1
  Ca  Ca1  1  0.50000000  0.49578400  0.50000000  1
  Ca  Ca2  1  0.66877900  0.23508700  0.43212900  1
  Ca  Ca3  1  0.33122100  0.23508700  0.56787100  1
  Ca  Ca4  1  0.33509750  0.74771250  0.08290500  1
  Ca  Ca5  1  0.66490250  0.74771250  0.91709500  1
  Ca  Ca6  1  0.50000000  0.03602300  0.00000000  1
  Ca  Ca7  1  0.00000000  0.99578400  0.50000000  1
  Ca  Ca8  1  0.16877900  0.73508700  0.43212900  1
  Ca  Ca9  1  0.83122100  0.73508700  0.56787100  1
  Ca  Ca10  1  0.83509750  0.24771250  0.08290500  1
  Ca  Ca11  1  0.16490250  0.24771250  0.91709500  1
  H  H12  1  0.50120300  0.85190300  0.43749200  1
  H  H13  1  0.49879700  0.85190300  0.56250800  1
  H  H14  1  0.83368950  0.16969850  0.87499000  1
  H  H15  1  0.16631050  0.16969850  0.12501000  1
  H  H16  1  0.83367700  0.97802900  0.93940800  1
  H  H17  1  0.16632300  0.97802900  0.06059200  1
  H  H18  1  0.00120300  0.35190300  0.43749200  1
  H  H19  1  0.99879700  0.35190300  0.56250800  1
  H  H20  1  0.33368950  0.66969850  0.87499000  1
  H  H21  1  0.66631050  0.66969850  0.12501000  1
  H  H22  1  0.33367700  0.47802900  0.93940800  1
  H  H23  1  0.66632300  0.47802900  0.06059200  1
  S  S24  1  0.58230800  0.22640100  0.81092900  1
  S  S25  1  0.41769200  0.22640100  0.18907100  1
  S  S26  1  0.24900300  0.54462300  0.25004900  1
  S  S27  1  0.75099700  0.54462300  0.74995100  1
  S  S28  1  0.41576050  0.72904550  0.68915200  1
  S  S29  1  0.58423950  0.72904550  0.31084800  1
  S  S30  1  0.08230800  0.72640100  0.81092900  1
  S  S31  1  0.91769200  0.72640100  0.18907100  1
  S  S32  1  0.74900300  0.04462300  0.25004900  1
  S  S33  1  0.25099700  0.04462300  0.74995100  1
  S  S34  1  0.91576050  0.22904550  0.68915200  1
  S  S35  1  0.08423950  0.22904550  0.31084800  1
  O  O36  1  0.51853950  0.78144350  0.15155100  1
  O  O37  1  0.48146050  0.78144350  0.84844900  1
  O  O38  1  0.51338050  0.27375250  0.64900500  1
  O  O39  1  0.48661950  0.27375250  0.35099500  1
  O  O40  1  0.35129450  0.06113150  0.14568500  1
  O  O41  1  0.64870550  0.06113150  0.85431500  1
  O  O42  1  0.34765000  0.56340400  0.64147600  1
  O  O43  1  0.65235000  0.56340400  0.35852400  1
  O  O44  1  0.18195650  0.65941550  0.25546200  1
  O  O45  1  0.81804350  0.65941550  0.74453800  1
  O  O46  1  0.68349750  0.66055850  0.75375200  1
  O  O47  1  0.31650250  0.66055850  0.24624800  1
  O  O48  1  0.65704200  0.88501100  0.41462300  1
  O  O49  1  0.34295800  0.88501100  0.58537700  1
  O  O50  1  0.65785100  0.38289000  0.91023500  1
  O  O51  1  0.34214900  0.38289000  0.08976500  1
  O  O52  1  0.49002750  0.19414550  0.16832300  1
  O  O53  1  0.50997250  0.19414550  0.83167700  1
  O  O54  1  0.49148150  0.68758150  0.67393500  1
  O  O55  1  0.50851850  0.68758150  0.32606500  1
  O  O56  1  0.82616050  0.42912850  0.89098800  1
  O  O57  1  0.17383950  0.42912850  0.10901200  1
  O  O58  1  0.32213900  0.42178800  0.38599800  1
  O  O59  1  0.67786100  0.42178800  0.61400200  1
  O  O60  1  0.50000000  0.93211300  0.50000000  1
  O  O61  1  0.83264400  0.03373900  0.86656600  1
  O  O62  1  0.16735600  0.03373900  0.13343400  1
  O  O63  1  0.01853950  0.28144350  0.15155100  1
  O  O64  1  0.98146050  0.28144350  0.84844900  1
  O  O65  1  0.01338050  0.77375250  0.64900500  1
  O  O66  1  0.98661950  0.77375250  0.35099500  1
  O  O67  1  0.85129450  0.56113150  0.14568500  1
  O  O68  1  0.14870550  0.56113150  0.85431500  1
  O  O69  1  0.84765000  0.06340400  0.64147600  1
  O  O70  1  0.15235000  0.06340400  0.35852400  1
  O  O71  1  0.68195650  0.15941550  0.25546200  1
  O  O72  1  0.31804350  0.15941550  0.74453800  1
  O  O73  1  0.18349750  0.16055850  0.75375200  1
  O  O74  1  0.81650250  0.16055850  0.24624800  1
  O  O75  1  0.15704200  0.38501100  0.41462300  1
  O  O76  1  0.84295800  0.38501100  0.58537700  1
  O  O77  1  0.15785100  0.88289000  0.91023500  1
  O  O78  1  0.84214900  0.88289000  0.08976500  1
  O  O79  1  0.99002750  0.69414550  0.16832300  1
  O  O80  1  0.00997250  0.69414550  0.83167700  1
  O  O81  1  0.99148150  0.18758150  0.67393500  1
  O  O82  1  0.00851850  0.18758150  0.32606500  1
  O  O83  1  0.32616050  0.92912850  0.89098800  1
  O  O84  1  0.67383950  0.92912850  0.10901200  1
  O  O85  1  0.82213900  0.92178800  0.38599800  1
  O  O86  1  0.17786100  0.92178800  0.61400200  1
  O  O87  1  0.00000000  0.43211300  0.50000000  1
  O  O88  1  0.33264400  0.53373900  0.86656600  1
  O  O89  1  0.66735600  0.53373900  0.13343400  1
