# generated using pymatgen
data_Hf(ClO4)4
_symmetry_space_group_name_H-M   'P 1'
_cell_length_a   13.06166800
_cell_length_b   8.07818600
_cell_length_c   13.35713459
_cell_angle_alpha   90.00000000
_cell_angle_beta   108.06883309
_cell_angle_gamma   90.00000000
_symmetry_Int_Tables_number   1
_chemical_formula_structural   Hf(ClO4)4
_chemical_formula_sum   'Hf4 Cl16 O64'
_cell_volume   1339.86870938
_cell_formula_units_Z   4
loop_
 _symmetry_equiv_pos_site_id
 _symmetry_equiv_pos_as_xyz
  1  'x, y, z'
loop_
 _atom_site_type_symbol
 _atom_site_label
 _atom_site_symmetry_multiplicity
 _atom_site_fract_x
 _atom_site_fract_y
 _atom_site_fract_z
 _atom_site_occupancy
  Hf  Hf0  1  0.87560600  0.52811100  0.40490900  1
  Hf  Hf1  1  0.87560600  0.47188900  0.90490900  1
  Hf  Hf2  1  0.37560600  0.02811100  0.40490900  1
  Hf  Hf3  1  0.37560600  0.97188900  0.90490900  1
  Cl  Cl4  1  0.93380400  0.76526600  0.57279200  1
  Cl  Cl5  1  0.20360400  0.20634700  0.83649500  1
  Cl  Cl6  1  0.05612650  0.68626450  0.99960300  1
  Cl  Cl7  1  0.81212100  0.76563700  0.23576000  1
  Cl  Cl8  1  0.05612650  0.31373550  0.49960300  1
  Cl  Cl9  1  0.93380400  0.23473400  0.07279200  1
  Cl  Cl10  1  0.20360400  0.79365300  0.33649500  1
  Cl  Cl11  1  0.81212100  0.23436300  0.73576000  1
  Cl  Cl12  1  0.43380400  0.26526600  0.57279200  1
  Cl  Cl13  1  0.70360400  0.70634700  0.83649500  1
  Cl  Cl14  1  0.55612650  0.18626450  0.99960300  1
  Cl  Cl15  1  0.31212100  0.26563700  0.23576000  1
  Cl  Cl16  1  0.55612650  0.81373550  0.49960300  1
  Cl  Cl17  1  0.43380400  0.73473400  0.07279200  1
  Cl  Cl18  1  0.70360400  0.29365300  0.33649500  1
  Cl  Cl19  1  0.31212100  0.73436300  0.73576000  1
  O  O20  1  0.95574250  0.64760850  0.03198400  1
  O  O21  1  0.10463700  0.15939900  0.76136600  1
  O  O22  1  0.20828250  0.62781450  0.37145500  1
  O  O23  1  0.75907350  0.28301650  0.81981200  1
  O  O24  1  0.73223800  0.58638000  0.92929400  1
  O  O25  1  0.98574800  0.27509300  0.98660800  1
  O  O26  1  0.74134500  0.73299200  0.13339600  1
  O  O27  1  0.90551850  0.64077750  0.26506900  1
  O  O28  1  0.02829650  0.41806050  0.39879500  1
  O  O29  1  0.39591750  0.56911450  0.06301100  1
  O  O30  1  0.98574800  0.72490700  0.48660800  1
  O  O31  1  0.00401250  0.72242750  0.67367200  1
  O  O32  1  0.06037450  0.85676650  0.97612200  1
  O  O33  1  0.95574250  0.35239150  0.53198400  1
  O  O34  1  0.79879050  0.66848850  0.79432800  1
  O  O35  1  0.15011200  0.37552500  0.57610100  1
  O  O36  1  0.73223800  0.41362000  0.42929400  1
  O  O37  1  0.35163000  0.56979100  0.75286500  1
  O  O38  1  0.83932000  0.35613200  0.03846300  1
  O  O39  1  0.20828250  0.37218550  0.87145500  1
  O  O40  1  0.02829650  0.58193950  0.89879500  1
  O  O41  1  0.06037450  0.14323350  0.47612200  1
  O  O42  1  0.90551850  0.35922250  0.76506900  1
  O  O43  1  0.74134500  0.26700800  0.63339600  1
  O  O44  1  0.39591750  0.43088550  0.56301100  1
  O  O45  1  0.15011200  0.62447500  0.07610100  1
  O  O46  1  0.00401250  0.27757250  0.17367200  1
  O  O47  1  0.75907350  0.71698350  0.31981200  1
  O  O48  1  0.83932000  0.64386800  0.53846300  1
  O  O49  1  0.35163000  0.43020900  0.25286500  1
  O  O50  1  0.10463700  0.84060100  0.26136600  1
  O  O51  1  0.79879050  0.33151150  0.29432800  1
  O  O52  1  0.45574250  0.14760850  0.03198400  1
  O  O53  1  0.60463700  0.65939900  0.76136600  1
  O  O54  1  0.70828250  0.12781450  0.37145500  1
  O  O55  1  0.25907350  0.78301650  0.81981200  1
  O  O56  1  0.23223800  0.08638000  0.92929400  1
  O  O57  1  0.48574800  0.77509300  0.98660800  1
  O  O58  1  0.24134500  0.23299200  0.13339600  1
  O  O59  1  0.40551850  0.14077750  0.26506900  1
  O  O60  1  0.52829650  0.91806050  0.39879500  1
  O  O61  1  0.89591750  0.06911450  0.06301100  1
  O  O62  1  0.48574800  0.22490700  0.48660800  1
  O  O63  1  0.50401250  0.22242750  0.67367200  1
  O  O64  1  0.56037450  0.35676650  0.97612200  1
  O  O65  1  0.45574250  0.85239150  0.53198400  1
  O  O66  1  0.29879050  0.16848850  0.79432800  1
  O  O67  1  0.65011200  0.87552500  0.57610100  1
  O  O68  1  0.23223800  0.91362000  0.42929400  1
  O  O69  1  0.85163000  0.06979100  0.75286500  1
  O  O70  1  0.33932000  0.85613200  0.03846300  1
  O  O71  1  0.70828250  0.87218550  0.87145500  1
  O  O72  1  0.52829650  0.08193950  0.89879500  1
  O  O73  1  0.56037450  0.64323350  0.47612200  1
  O  O74  1  0.40551850  0.85922250  0.76506900  1
  O  O75  1  0.24134500  0.76700800  0.63339600  1
  O  O76  1  0.89591750  0.93088550  0.56301100  1
  O  O77  1  0.65011200  0.12447500  0.07610100  1
  O  O78  1  0.50401250  0.77757250  0.17367200  1
  O  O79  1  0.25907350  0.21698350  0.31981200  1
  O  O80  1  0.33932000  0.14386800  0.53846300  1
  O  O81  1  0.85163000  0.93020900  0.25286500  1
  O  O82  1  0.60463700  0.34060100  0.26136600  1
  O  O83  1  0.29879050  0.83151150  0.29432800  1
