# generated using pymatgen
data_K2Ca(CO3)2
_symmetry_space_group_name_H-M   'P 1'
_cell_length_a   5.44321609
_cell_length_b   5.44321609
_cell_length_c   18.57979525
_cell_angle_alpha   90.00000000
_cell_angle_beta   90.00000000
_cell_angle_gamma   120.00000000
_symmetry_Int_Tables_number   1
_chemical_formula_structural   K2Ca(CO3)2
_chemical_formula_sum   'K6 Ca3 C6 O18'
_cell_volume   476.74122304
_cell_formula_units_Z   3
loop_
 _symmetry_equiv_pos_site_id
 _symmetry_equiv_pos_as_xyz
  1  'x, y, z'
loop_
 _atom_site_type_symbol
 _atom_site_label
 _atom_site_symmetry_multiplicity
 _atom_site_fract_x
 _atom_site_fract_y
 _atom_site_fract_z
 _atom_site_occupancy
  K  K0  1  0.66666667  0.33333333  0.12331133  1
  K  K1  1  0.00000000  0.00000000  0.21002200  1
  K  K2  1  0.33333333  0.66666667  0.45664467  1
  K  K3  1  0.66666667  0.33333333  0.54335533  1
  K  K4  1  0.00000000  0.00000000  0.78997800  1
  K  K5  1  0.33333333  0.66666667  0.87668867  1
  Ca  Ca6  1  0.00000000  0.00000000  0.00000000  1
  Ca  Ca7  1  0.66666667  0.33333333  0.33333333  1
  Ca  Ca8  1  0.33333333  0.66666667  0.66666667  1
  C  C9  1  0.33333333  0.66666667  0.07755367  1
  C  C10  1  0.33333333  0.66666667  0.25577967  1
  C  C11  1  0.00000000  0.00000000  0.41088700  1
  C  C12  1  0.00000000  0.00000000  0.58911300  1
  C  C13  1  0.66666667  0.33333333  0.74422033  1
  C  C14  1  0.66666667  0.33333333  0.92244633  1
  O  O15  1  0.47139500  0.52860500  0.25523400  1
  O  O16  1  0.05721000  0.52860500  0.25523400  1
  O  O17  1  0.47139500  0.94279000  0.25523400  1
  O  O18  1  0.19527167  0.39054333  0.07809933  1
  O  O19  1  0.60945667  0.80472833  0.07809933  1
  O  O20  1  0.19527167  0.80472833  0.07809933  1
  O  O21  1  0.13806167  0.86193833  0.58856733  1
  O  O22  1  0.72387667  0.86193833  0.58856733  1
  O  O23  1  0.13806167  0.27612333  0.58856733  1
  O  O24  1  0.86193833  0.72387667  0.41143267  1
  O  O25  1  0.27612333  0.13806167  0.41143267  1
  O  O26  1  0.86193833  0.13806167  0.41143267  1
  O  O27  1  0.80472833  0.19527167  0.92190067  1
  O  O28  1  0.39054333  0.19527167  0.92190067  1
  O  O29  1  0.80472833  0.60945667  0.92190067  1
  O  O30  1  0.52860500  0.05721000  0.74476600  1
  O  O31  1  0.94279000  0.47139500  0.74476600  1
  O  O32  1  0.52860500  0.47139500  0.74476600  1
