# generated using pymatgen
data_NaSn4(PO4)3
_symmetry_space_group_name_H-M   'P 1'
_cell_length_a   9.85840339
_cell_length_b   9.85840339
_cell_length_c   24.88784054
_cell_angle_alpha   90.00000000
_cell_angle_beta   90.00000000
_cell_angle_gamma   120.00000000
_symmetry_Int_Tables_number   1
_chemical_formula_structural   NaSn4(PO4)3
_chemical_formula_sum   'Na6 Sn24 P18 O72'
_cell_volume   2094.74429944
_cell_formula_units_Z   6
loop_
 _symmetry_equiv_pos_site_id
 _symmetry_equiv_pos_as_xyz
  1  'x, y, z'
loop_
 _atom_site_type_symbol
 _atom_site_label
 _atom_site_symmetry_multiplicity
 _atom_site_fract_x
 _atom_site_fract_y
 _atom_site_fract_z
 _atom_site_occupancy
  Na  Na0  1  0.33333333  0.66666667  0.32797267  1
  Na  Na1  1  0.00000000  0.00000000  0.16130600  1
  Na  Na2  1  0.00000000  0.00000000  0.66130600  1
  Na  Na3  1  0.66666667  0.33333333  0.49463933  1
  Na  Na4  1  0.66666667  0.33333333  0.99463933  1
  Na  Na5  1  0.33333333  0.66666667  0.82797267  1
  Sn  Sn6  1  0.46757067  0.40057533  0.27585933  1
  Sn  Sn7  1  0.93300467  0.53242933  0.27585933  1
  Sn  Sn8  1  0.59942467  0.06699533  0.27585933  1
  Sn  Sn9  1  0.26609133  0.86576267  0.10919267  1
  Sn  Sn10  1  0.13423733  0.40032867  0.10919267  1
  Sn  Sn11  1  0.59967133  0.73390867  0.10919267  1
  Sn  Sn12  1  0.00000000  0.00000000  0.31043400  1
  Sn  Sn13  1  0.66666667  0.33333333  0.14376733  1
  Sn  Sn14  1  0.13423733  0.73390867  0.60919267  1
  Sn  Sn15  1  0.59967133  0.86576267  0.60919267  1
  Sn  Sn16  1  0.26609133  0.40032867  0.60919267  1
  Sn  Sn17  1  0.93275800  0.19909600  0.44252600  1
  Sn  Sn18  1  0.80090400  0.73366200  0.44252600  1
  Sn  Sn19  1  0.26633800  0.06724200  0.44252600  1
  Sn  Sn20  1  0.66666667  0.33333333  0.64376733  1
  Sn  Sn21  1  0.33333333  0.66666667  0.47710067  1
  Sn  Sn22  1  0.80090400  0.06724200  0.94252600  1
  Sn  Sn23  1  0.26633800  0.19909600  0.94252600  1
  Sn  Sn24  1  0.93275800  0.73366200  0.94252600  1
  Sn  Sn25  1  0.59942467  0.53242933  0.77585933  1
  Sn  Sn26  1  0.46757067  0.06699533  0.77585933  1
  Sn  Sn27  1  0.93300467  0.40057533  0.77585933  1
  Sn  Sn28  1  0.33333333  0.66666667  0.97710067  1
  Sn  Sn29  1  0.00000000  0.00000000  0.81043400  1
  P  P30  1  0.67354400  0.78661600  0.23622300  1
  P  P31  1  0.11307200  0.32645600  0.23622300  1
  P  P32  1  0.21338400  0.88692800  0.23622300  1
  P  P33  1  0.34021067  0.22026133  0.06955633  1
  P  P34  1  0.77973867  0.11994933  0.06955633  1
  P  P35  1  0.88005067  0.65978933  0.06955633  1
  P  P36  1  0.34021067  0.11994933  0.56955633  1
  P  P37  1  0.77973867  0.65978933  0.56955633  1
  P  P38  1  0.88005067  0.22026133  0.56955633  1
  P  P39  1  0.00687733  0.55359467  0.40288967  1
  P  P40  1  0.44640533  0.45328267  0.40288967  1
  P  P41  1  0.54671733  0.99312267  0.40288967  1
  P  P42  1  0.00687733  0.45328267  0.90288967  1
  P  P43  1  0.44640533  0.99312267  0.90288967  1
  P  P44  1  0.54671733  0.55359467  0.90288967  1
  P  P45  1  0.67354400  0.88692800  0.73622300  1
  P  P46  1  0.11307200  0.78661600  0.73622300  1
  P  P47  1  0.21338400  0.32645600  0.73622300  1
  O  O48  1  0.70580067  0.94135833  0.06007233  1
  O  O49  1  0.56889100  0.60802500  0.22673900  1
  O  O50  1  0.36460267  0.15975533  0.01439833  1
  O  O51  1  0.84024467  0.20484733  0.01439833  1
  O  O52  1  0.79515267  0.63539733  0.01439833  1
  O  O53  1  0.12848600  0.82642200  0.18106500  1
  O  O54  1  0.17357800  0.30206400  0.18106500  1
  O  O55  1  0.69793600  0.87151400  0.18106500  1
  O  O56  1  0.98606833  0.16402567  0.25807067  1
  O  O57  1  0.83597433  0.82204267  0.25807067  1
  O  O58  1  0.17795733  0.01393167  0.25807067  1
  O  O59  1  0.84462400  0.49735900  0.09140400  1
  O  O60  1  0.39197500  0.96086600  0.22673900  1
  O  O61  1  0.65273500  0.15537600  0.09140400  1
  O  O62  1  0.82156333  0.74033767  0.10974067  1
  O  O63  1  0.91877433  0.17843667  0.10974067  1
  O  O64  1  0.25966233  0.08122567  0.10974067  1
  O  O65  1  0.59299567  0.84510333  0.27640733  1
  O  O66  1  0.25210767  0.40700433  0.27640733  1
  O  O67  1  0.15489667  0.74789233  0.27640733  1
  O  O68  1  0.50264100  0.34726500  0.09140400  1
  O  O69  1  0.23555767  0.29419933  0.06007233  1
  O  O70  1  0.05864167  0.76444233  0.06007233  1
  O  O71  1  0.03913400  0.43110900  0.22673900  1
  O  O72  1  0.37246733  0.27469167  0.39340567  1
  O  O73  1  0.23555767  0.94135833  0.56007233  1
  O  O74  1  0.03126933  0.49308867  0.34773167  1
  O  O75  1  0.50691133  0.53818067  0.34773167  1
  O  O76  1  0.46181933  0.96873067  0.34773167  1
  O  O77  1  0.79515267  0.15975533  0.51439833  1
  O  O78  1  0.84024467  0.63539733  0.51439833  1
  O  O79  1  0.36460267  0.20484733  0.51439833  1
  O  O80  1  0.65273500  0.49735900  0.59140400  1
  O  O81  1  0.50264100  0.15537600  0.59140400  1
  O  O82  1  0.84462400  0.34726500  0.59140400  1
  O  O83  1  0.51129067  0.83069233  0.42473733  1
  O  O84  1  0.05864167  0.29419933  0.56007233  1
  O  O85  1  0.31940167  0.48870933  0.42473733  1
  O  O86  1  0.48823000  0.07367100  0.44307400  1
  O  O87  1  0.58544100  0.51177000  0.44307400  1
  O  O88  1  0.92632900  0.41455900  0.44307400  1
  O  O89  1  0.25966233  0.17843667  0.60974067  1
  O  O90  1  0.91877433  0.74033767  0.60974067  1
  O  O91  1  0.82156333  0.08122567  0.60974067  1
  O  O92  1  0.16930767  0.68059833  0.42473733  1
  O  O93  1  0.90222433  0.62753267  0.39340567  1
  O  O94  1  0.72530833  0.09777567  0.39340567  1
  O  O95  1  0.70580067  0.76444233  0.56007233  1
  O  O96  1  0.03913400  0.60802500  0.72673900  1
  O  O97  1  0.90222433  0.27469167  0.89340567  1
  O  O98  1  0.69793600  0.82642200  0.68106500  1
  O  O99  1  0.17357800  0.87151400  0.68106500  1
  O  O100  1  0.12848600  0.30206400  0.68106500  1
  O  O101  1  0.46181933  0.49308867  0.84773167  1
  O  O102  1  0.50691133  0.96873067  0.84773167  1
  O  O103  1  0.03126933  0.53818067  0.84773167  1
  O  O104  1  0.31940167  0.83069233  0.92473733  1
  O  O105  1  0.16930767  0.48870933  0.92473733  1
  O  O106  1  0.51129067  0.68059833  0.92473733  1
  O  O107  1  0.17795733  0.16402567  0.75807067  1
  O  O108  1  0.72530833  0.62753267  0.89340567  1
  O  O109  1  0.98606833  0.82204267  0.75807067  1
  O  O110  1  0.15489667  0.40700433  0.77640733  1
  O  O111  1  0.25210767  0.84510333  0.77640733  1
  O  O112  1  0.59299567  0.74789233  0.77640733  1
  O  O113  1  0.92632900  0.51177000  0.94307400  1
  O  O114  1  0.58544100  0.07367100  0.94307400  1
  O  O115  1  0.48823000  0.41455900  0.94307400  1
  O  O116  1  0.83597433  0.01393167  0.75807067  1
  O  O117  1  0.56889100  0.96086600  0.72673900  1
  O  O118  1  0.39197500  0.43110900  0.72673900  1
  O  O119  1  0.37246733  0.09777567  0.89340567  1
