# generated using pymatgen
data_Ca3Sc2(SiO4)3
_symmetry_space_group_name_H-M   'P 1'
_cell_length_a   12.36733000
_cell_length_b   12.36733000
_cell_length_c   12.36733000
_cell_angle_alpha   90.00000000
_cell_angle_beta   90.00000000
_cell_angle_gamma   90.00000000
_symmetry_Int_Tables_number   1
_chemical_formula_structural   Ca3Sc2(SiO4)3
_chemical_formula_sum   'Ca24 Sc16 Si24 O96'
_cell_volume   1891.59365217
_cell_formula_units_Z   8
loop_
 _symmetry_equiv_pos_site_id
 _symmetry_equiv_pos_as_xyz
  1  'x, y, z'
loop_
 _atom_site_type_symbol
 _atom_site_label
 _atom_site_symmetry_multiplicity
 _atom_site_fract_x
 _atom_site_fract_y
 _atom_site_fract_z
 _atom_site_occupancy
  Ca  Ca0  1  0.87500000  0.50000000  0.25000000  1
  Ca  Ca1  1  0.12500000  0.00000000  0.25000000  1
  Ca  Ca2  1  0.25000000  0.12500000  0.00000000  1
  Ca  Ca3  1  0.25000000  0.87500000  0.50000000  1
  Ca  Ca4  1  0.37500000  0.50000000  0.25000000  1
  Ca  Ca5  1  0.50000000  0.25000000  0.87500000  1
  Ca  Ca6  1  0.50000000  0.25000000  0.37500000  1
  Ca  Ca7  1  0.62500000  0.00000000  0.25000000  1
  Ca  Ca8  1  0.00000000  0.25000000  0.62500000  1
  Ca  Ca9  1  0.25000000  0.62500000  0.00000000  1
  Ca  Ca10  1  0.25000000  0.37500000  0.50000000  1
  Ca  Ca11  1  0.00000000  0.25000000  0.12500000  1
  Ca  Ca12  1  0.37500000  0.00000000  0.75000000  1
  Ca  Ca13  1  0.62500000  0.50000000  0.75000000  1
  Ca  Ca14  1  0.75000000  0.62500000  0.50000000  1
  Ca  Ca15  1  0.75000000  0.37500000  0.00000000  1
  Ca  Ca16  1  0.87500000  0.00000000  0.75000000  1
  Ca  Ca17  1  0.00000000  0.75000000  0.37500000  1
  Ca  Ca18  1  0.00000000  0.75000000  0.87500000  1
  Ca  Ca19  1  0.12500000  0.50000000  0.75000000  1
  Ca  Ca20  1  0.50000000  0.75000000  0.12500000  1
  Ca  Ca21  1  0.75000000  0.12500000  0.50000000  1
  Ca  Ca22  1  0.75000000  0.87500000  0.00000000  1
  Ca  Ca23  1  0.50000000  0.75000000  0.62500000  1
  Sc  Sc24  1  0.00000000  0.00000000  0.00000000  1
  Sc  Sc25  1  0.75000000  0.25000000  0.25000000  1
  Sc  Sc26  1  0.25000000  0.75000000  0.25000000  1
  Sc  Sc27  1  0.00000000  0.00000000  0.50000000  1
  Sc  Sc28  1  0.50000000  0.00000000  0.00000000  1
  Sc  Sc29  1  0.00000000  0.50000000  0.00000000  1
  Sc  Sc30  1  0.25000000  0.25000000  0.25000000  1
  Sc  Sc31  1  0.25000000  0.25000000  0.75000000  1
  Sc  Sc32  1  0.50000000  0.50000000  0.50000000  1
  Sc  Sc33  1  0.25000000  0.75000000  0.75000000  1
  Sc  Sc34  1  0.75000000  0.25000000  0.75000000  1
  Sc  Sc35  1  0.50000000  0.50000000  0.00000000  1
  Sc  Sc36  1  0.00000000  0.50000000  0.50000000  1
  Sc  Sc37  1  0.50000000  0.00000000  0.50000000  1
  Sc  Sc38  1  0.75000000  0.75000000  0.75000000  1
  Sc  Sc39  1  0.75000000  0.75000000  0.25000000  1
  Si  Si40  1  0.50000000  0.75000000  0.37500000  1
  Si  Si41  1  0.00000000  0.75000000  0.12500000  1
  Si  Si42  1  0.37500000  0.00000000  0.25000000  1
  Si  Si43  1  0.25000000  0.37500000  0.00000000  1
  Si  Si44  1  0.12500000  0.00000000  0.75000000  1
  Si  Si45  1  0.75000000  0.12500000  0.00000000  1
  Si  Si46  1  0.50000000  0.25000000  0.12500000  1
  Si  Si47  1  0.25000000  0.12500000  0.50000000  1
  Si  Si48  1  0.75000000  0.37500000  0.50000000  1
  Si  Si49  1  0.37500000  0.50000000  0.75000000  1
  Si  Si50  1  0.12500000  0.50000000  0.25000000  1
  Si  Si51  1  0.00000000  0.25000000  0.37500000  1
  Si  Si52  1  0.00000000  0.25000000  0.87500000  1
  Si  Si53  1  0.50000000  0.25000000  0.62500000  1
  Si  Si54  1  0.87500000  0.50000000  0.75000000  1
  Si  Si55  1  0.75000000  0.87500000  0.50000000  1
  Si  Si56  1  0.62500000  0.50000000  0.25000000  1
  Si  Si57  1  0.25000000  0.62500000  0.50000000  1
  Si  Si58  1  0.00000000  0.75000000  0.62500000  1
  Si  Si59  1  0.75000000  0.62500000  0.00000000  1
  Si  Si60  1  0.25000000  0.87500000  0.00000000  1
  Si  Si61  1  0.87500000  0.00000000  0.25000000  1
  Si  Si62  1  0.62500000  0.00000000  0.75000000  1
  Si  Si63  1  0.50000000  0.75000000  0.87500000  1
  O  O64  1  0.09152000  0.20015200  0.28995500  1
  O  O65  1  0.29984800  0.71004500  0.59152000  1
  O  O66  1  0.21004500  0.90848000  0.70015200  1
  O  O67  1  0.90848000  0.29984800  0.28995500  1
  O  O68  1  0.04984800  0.15848000  0.96004500  1
  O  O69  1  0.29984800  0.28995500  0.90848000  1
  O  O70  1  0.45015200  0.15848000  0.03995500  1
  O  O71  1  0.28995500  0.90848000  0.29984800  1
  O  O72  1  0.54984800  0.34152000  0.03995500  1
  O  O73  1  0.84152000  0.46004500  0.45015200  1
  O  O74  1  0.46004500  0.45015200  0.84152000  1
  O  O75  1  0.96004500  0.04984800  0.15848000  1
  O  O76  1  0.15848000  0.03995500  0.45015200  1
  O  O77  1  0.03995500  0.54984800  0.34152000  1
  O  O78  1  0.15848000  0.96004500  0.04984800  1
  O  O79  1  0.03995500  0.45015200  0.15848000  1
  O  O80  1  0.34152000  0.03995500  0.54984800  1
  O  O81  1  0.59152000  0.29984800  0.71004500  1
  O  O82  1  0.90848000  0.70015200  0.21004500  1
  O  O83  1  0.95015200  0.15848000  0.46004500  1
  O  O84  1  0.70015200  0.21004500  0.90848000  1
  O  O85  1  0.28995500  0.09152000  0.20015200  1
  O  O86  1  0.71004500  0.59152000  0.29984800  1
  O  O87  1  0.45015200  0.84152000  0.46004500  1
  O  O88  1  0.40848000  0.29984800  0.21004500  1
  O  O89  1  0.20015200  0.78995500  0.90848000  1
  O  O90  1  0.28995500  0.59152000  0.79984800  1
  O  O91  1  0.59152000  0.20015200  0.21004500  1
  O  O92  1  0.45015200  0.34152000  0.53995500  1
  O  O93  1  0.20015200  0.21004500  0.59152000  1
  O  O94  1  0.04984800  0.34152000  0.46004500  1
  O  O95  1  0.21004500  0.59152000  0.20015200  1
  O  O96  1  0.04984800  0.65848000  0.03995500  1
  O  O97  1  0.78995500  0.90848000  0.20015200  1
  O  O98  1  0.21004500  0.40848000  0.29984800  1
  O  O99  1  0.29984800  0.21004500  0.40848000  1
  O  O100  1  0.79984800  0.28995500  0.59152000  1
  O  O101  1  0.59152000  0.79984800  0.28995500  1
  O  O102  1  0.90848000  0.20015200  0.78995500  1
  O  O103  1  0.15848000  0.46004500  0.95015200  1
  O  O104  1  0.46004500  0.04984800  0.34152000  1
  O  O105  1  0.34152000  0.53995500  0.45015200  1
  O  O106  1  0.46004500  0.95015200  0.15848000  1
  O  O107  1  0.34152000  0.46004500  0.04984800  1
  O  O108  1  0.53995500  0.45015200  0.34152000  1
  O  O109  1  0.03995500  0.04984800  0.65848000  1
  O  O110  1  0.65848000  0.03995500  0.04984800  1
  O  O111  1  0.20015200  0.28995500  0.09152000  1
  O  O112  1  0.59152000  0.70015200  0.78995500  1
  O  O113  1  0.79984800  0.21004500  0.09152000  1
  O  O114  1  0.71004500  0.40848000  0.20015200  1
  O  O115  1  0.40848000  0.79984800  0.78995500  1
  O  O116  1  0.54984800  0.65848000  0.46004500  1
  O  O117  1  0.79984800  0.78995500  0.40848000  1
  O  O118  1  0.95015200  0.65848000  0.53995500  1
  O  O119  1  0.78995500  0.40848000  0.79984800  1
  O  O120  1  0.04984800  0.84152000  0.53995500  1
  O  O121  1  0.34152000  0.96004500  0.95015200  1
  O  O122  1  0.96004500  0.95015200  0.34152000  1
  O  O123  1  0.46004500  0.54984800  0.65848000  1
  O  O124  1  0.65848000  0.53995500  0.95015200  1
  O  O125  1  0.53995500  0.04984800  0.84152000  1
  O  O126  1  0.65848000  0.46004500  0.54984800  1
  O  O127  1  0.53995500  0.95015200  0.65848000  1
  O  O128  1  0.84152000  0.53995500  0.04984800  1
  O  O129  1  0.09152000  0.79984800  0.21004500  1
  O  O130  1  0.40848000  0.20015200  0.71004500  1
  O  O131  1  0.45015200  0.65848000  0.96004500  1
  O  O132  1  0.20015200  0.71004500  0.40848000  1
  O  O133  1  0.78995500  0.59152000  0.70015200  1
  O  O134  1  0.21004500  0.09152000  0.79984800  1
  O  O135  1  0.95015200  0.34152000  0.96004500  1
  O  O136  1  0.90848000  0.79984800  0.71004500  1
  O  O137  1  0.70015200  0.28995500  0.40848000  1
  O  O138  1  0.78995500  0.09152000  0.29984800  1
  O  O139  1  0.09152000  0.70015200  0.71004500  1
  O  O140  1  0.95015200  0.84152000  0.03995500  1
  O  O141  1  0.70015200  0.71004500  0.09152000  1
  O  O142  1  0.54984800  0.84152000  0.96004500  1
  O  O143  1  0.71004500  0.09152000  0.70015200  1
  O  O144  1  0.54984800  0.15848000  0.53995500  1
  O  O145  1  0.28995500  0.40848000  0.70015200  1
  O  O146  1  0.71004500  0.90848000  0.79984800  1
  O  O147  1  0.79984800  0.71004500  0.90848000  1
  O  O148  1  0.29984800  0.78995500  0.09152000  1
  O  O149  1  0.09152000  0.29984800  0.78995500  1
  O  O150  1  0.40848000  0.70015200  0.28995500  1
  O  O151  1  0.65848000  0.96004500  0.45015200  1
  O  O152  1  0.96004500  0.54984800  0.84152000  1
  O  O153  1  0.84152000  0.03995500  0.95015200  1
  O  O154  1  0.96004500  0.45015200  0.65848000  1
  O  O155  1  0.84152000  0.96004500  0.54984800  1
  O  O156  1  0.03995500  0.95015200  0.84152000  1
  O  O157  1  0.53995500  0.54984800  0.15848000  1
  O  O158  1  0.15848000  0.53995500  0.54984800  1
  O  O159  1  0.70015200  0.78995500  0.59152000  1
