# generated using pymatgen
data_KDy(PO3)4
_symmetry_space_group_name_H-M   'P 1'
_cell_length_a   7.97674000
_cell_length_b   12.63216400
_cell_length_c   10.57753984
_cell_angle_alpha   90.00000000
_cell_angle_beta   111.20690645
_cell_angle_gamma   90.00000000
_symmetry_Int_Tables_number   1
_chemical_formula_structural   KDy(PO3)4
_chemical_formula_sum   'K4 Dy4 P16 O48'
_cell_volume   993.65203021
_cell_formula_units_Z   4
loop_
 _symmetry_equiv_pos_site_id
 _symmetry_equiv_pos_as_xyz
  1  'x, y, z'
loop_
 _atom_site_type_symbol
 _atom_site_label
 _atom_site_symmetry_multiplicity
 _atom_site_fract_x
 _atom_site_fract_y
 _atom_site_fract_z
 _atom_site_occupancy
  K  K0  1  0.50000000  0.31067900  0.25000000  1
  K  K1  1  0.50000000  0.68932100  0.75000000  1
  K  K2  1  0.00000000  0.81067900  0.25000000  1
  K  K3  1  0.00000000  0.18932100  0.75000000  1
  Dy  Dy4  1  0.50000000  0.37965900  0.75000000  1
  Dy  Dy5  1  0.50000000  0.62034100  0.25000000  1
  Dy  Dy6  1  0.00000000  0.87965900  0.75000000  1
  Dy  Dy7  1  0.00000000  0.12034100  0.25000000  1
  P  P8  1  0.54578200  0.83186800  0.49368500  1
  P  P9  1  0.45421800  0.83186800  0.00631500  1
  P  P10  1  0.45421800  0.16813200  0.50631500  1
  P  P11  1  0.54578200  0.16813200  0.99368500  1
  P  P12  1  0.72348400  0.97323400  0.94863300  1
  P  P13  1  0.27651600  0.97323400  0.55136700  1
  P  P14  1  0.27651600  0.02676600  0.05136700  1
  P  P15  1  0.72348400  0.02676600  0.44863300  1
  P  P16  1  0.04578200  0.33186800  0.49368500  1
  P  P17  1  0.95421800  0.33186800  0.00631500  1
  P  P18  1  0.95421800  0.66813200  0.50631500  1
  P  P19  1  0.04578200  0.66813200  0.99368500  1
  P  P20  1  0.22348400  0.47323400  0.94863300  1
  P  P21  1  0.77651600  0.47323400  0.55136700  1
  P  P22  1  0.77651600  0.52676600  0.05136700  1
  P  P23  1  0.22348400  0.52676600  0.44863300  1
  O  O24  1  0.45138800  0.74796900  0.39242300  1
  O  O25  1  0.54861200  0.74796900  0.10757700  1
  O  O26  1  0.54861200  0.25203100  0.60757700  1
  O  O27  1  0.45138800  0.25203100  0.89242300  1
  O  O28  1  0.71085700  0.80419800  0.61326100  1
  O  O29  1  0.28914300  0.80419800  0.88673900  1
  O  O30  1  0.28914300  0.19580200  0.38673900  1
  O  O31  1  0.71085700  0.19580200  0.11326100  1
  O  O32  1  0.57515800  0.93238100  0.41111000  1
  O  O33  1  0.42484200  0.93238100  0.08889000  1
  O  O34  1  0.42484200  0.06761900  0.58889000  1
  O  O35  1  0.57515800  0.06761900  0.91111000  1
  O  O36  1  0.79107500  0.03702200  0.33526600  1
  O  O37  1  0.20892500  0.03702200  0.16473400  1
  O  O38  1  0.20892500  0.96297800  0.66473400  1
  O  O39  1  0.79107500  0.96297800  0.83526600  1
  O  O40  1  0.85160750  0.01259650  0.59240000  1
  O  O41  1  0.14839250  0.01259650  0.90760000  1
  O  O42  1  0.14839250  0.98740350  0.40760000  1
  O  O43  1  0.85160750  0.98740350  0.09240000  1
  O  O44  1  0.60010700  0.12941300  0.44120100  1
  O  O45  1  0.39989300  0.12941300  0.05879900  1
  O  O46  1  0.39989300  0.87058700  0.55879900  1
  O  O47  1  0.60010700  0.87058700  0.94120100  1
  O  O48  1  0.95138800  0.24796900  0.39242300  1
  O  O49  1  0.04861200  0.24796900  0.10757700  1
  O  O50  1  0.04861200  0.75203100  0.60757700  1
  O  O51  1  0.95138800  0.75203100  0.89242300  1
  O  O52  1  0.21085700  0.30419800  0.61326100  1
  O  O53  1  0.78914300  0.30419800  0.88673900  1
  O  O54  1  0.78914300  0.69580200  0.38673900  1
  O  O55  1  0.21085700  0.69580200  0.11326100  1
  O  O56  1  0.07515800  0.43238100  0.41111000  1
  O  O57  1  0.92484200  0.43238100  0.08889000  1
  O  O58  1  0.92484200  0.56761900  0.58889000  1
  O  O59  1  0.07515800  0.56761900  0.91111000  1
  O  O60  1  0.29107500  0.53702200  0.33526600  1
  O  O61  1  0.70892500  0.53702200  0.16473400  1
  O  O62  1  0.70892500  0.46297800  0.66473400  1
  O  O63  1  0.29107500  0.46297800  0.83526600  1
  O  O64  1  0.35160750  0.51259650  0.59240000  1
  O  O65  1  0.64839250  0.51259650  0.90760000  1
  O  O66  1  0.64839250  0.48740350  0.40760000  1
  O  O67  1  0.35160750  0.48740350  0.09240000  1
  O  O68  1  0.10010700  0.62941300  0.44120100  1
  O  O69  1  0.89989300  0.62941300  0.05879900  1
  O  O70  1  0.89989300  0.37058700  0.55879900  1
  O  O71  1  0.10010700  0.37058700  0.94120100  1
