# generated using pymatgen
data_Ba4Ta2TiZnO12
_symmetry_space_group_name_H-M   'P 1'
_cell_length_a   8.20319000
_cell_length_b   8.20319000
_cell_length_c   16.54484600
_cell_angle_alpha   90.00000000
_cell_angle_beta   90.00000000
_cell_angle_gamma   90.00000000
_symmetry_Int_Tables_number   1
_chemical_formula_structural   Ba4Ta2TiZnO12
_chemical_formula_sum   'Ba16 Ta8 Ti4 Zn4 O48'
_cell_volume   1113.34117357
_cell_formula_units_Z   4
loop_
 _symmetry_equiv_pos_site_id
 _symmetry_equiv_pos_as_xyz
  1  'x, y, z'
loop_
 _atom_site_type_symbol
 _atom_site_label
 _atom_site_symmetry_multiplicity
 _atom_site_fract_x
 _atom_site_fract_y
 _atom_site_fract_z
 _atom_site_occupancy
  Ba  Ba0  1  0.75576000  0.25000000  0.12500000  1
  Ba  Ba1  1  0.75576000  0.75000000  0.12500000  1
  Ba  Ba2  1  0.24424000  0.75000000  0.12500000  1
  Ba  Ba3  1  0.24424000  0.25000000  0.12500000  1
  Ba  Ba4  1  0.25000000  0.74424000  0.37500000  1
  Ba  Ba5  1  0.25000000  0.25576000  0.37500000  1
  Ba  Ba6  1  0.75000000  0.74424000  0.37500000  1
  Ba  Ba7  1  0.75000000  0.25576000  0.37500000  1
  Ba  Ba8  1  0.25576000  0.75000000  0.62500000  1
  Ba  Ba9  1  0.25576000  0.25000000  0.62500000  1
  Ba  Ba10  1  0.74424000  0.25000000  0.62500000  1
  Ba  Ba11  1  0.74424000  0.75000000  0.62500000  1
  Ba  Ba12  1  0.75000000  0.24424000  0.87500000  1
  Ba  Ba13  1  0.75000000  0.75576000  0.87500000  1
  Ba  Ba14  1  0.25000000  0.24424000  0.87500000  1
  Ba  Ba15  1  0.25000000  0.75576000  0.87500000  1
  Ta  Ta16  1  0.00000000  0.00000000  0.25105900  1
  Ta  Ta17  1  0.50000000  0.50000000  0.24894100  1
  Ta  Ta18  1  0.50000000  0.00000000  0.49894100  1
  Ta  Ta19  1  0.50000000  0.00000000  0.00105900  1
  Ta  Ta20  1  0.50000000  0.50000000  0.75105900  1
  Ta  Ta21  1  0.00000000  0.00000000  0.74894100  1
  Ta  Ta22  1  0.00000000  0.50000000  0.99894100  1
  Ta  Ta23  1  0.00000000  0.50000000  0.50105900  1
  Ti  Ti24  1  0.50000000  0.00000000  0.25000000  1
  Ti  Ti25  1  0.50000000  0.50000000  0.00000000  1
  Ti  Ti26  1  0.00000000  0.50000000  0.75000000  1
  Ti  Ti27  1  0.00000000  0.00000000  0.50000000  1
  Zn  Zn28  1  0.00000000  0.50000000  0.25000000  1
  Zn  Zn29  1  0.00000000  0.00000000  0.00000000  1
  Zn  Zn30  1  0.50000000  0.00000000  0.75000000  1
  Zn  Zn31  1  0.50000000  0.50000000  0.50000000  1
  O  O32  1  0.00000000  0.50000000  0.11594900  1
  O  O33  1  0.00000000  0.00000000  0.13405100  1
  O  O34  1  0.00000000  0.75994200  0.25526700  1
  O  O35  1  0.00000000  0.24005800  0.25526700  1
  O  O36  1  0.25994200  0.50000000  0.24473300  1
  O  O37  1  0.25140300  0.00000000  0.25337400  1
  O  O38  1  0.24859700  0.00000000  0.49662600  1
  O  O39  1  0.74005800  0.00000000  0.00526700  1
  O  O40  1  0.50000000  0.50000000  0.11963600  1
  O  O41  1  0.50000000  0.00000000  0.13036400  1
  O  O42  1  0.50000000  0.00000000  0.36963600  1
  O  O43  1  0.50000000  0.50000000  0.36594900  1
  O  O44  1  0.50000000  0.75140300  0.24662600  1
  O  O45  1  0.50000000  0.75994200  0.49473300  1
  O  O46  1  0.50000000  0.24859700  0.24662600  1
  O  O47  1  0.50000000  0.24005800  0.49473300  1
  O  O48  1  0.74005800  0.50000000  0.24473300  1
  O  O49  1  0.74859700  0.00000000  0.25337400  1
  O  O50  1  0.75140300  0.00000000  0.49662600  1
  O  O51  1  0.25994200  0.00000000  0.00526700  1
  O  O52  1  0.00000000  0.00000000  0.38036400  1
  O  O53  1  0.00000000  0.50000000  0.38405100  1
  O  O54  1  0.50000000  0.25140300  0.00337400  1
  O  O55  1  0.50000000  0.74859700  0.00337400  1
  O  O56  1  0.50000000  0.00000000  0.61594900  1
  O  O57  1  0.50000000  0.50000000  0.63405100  1
  O  O58  1  0.50000000  0.25994200  0.75526700  1
  O  O59  1  0.50000000  0.74005800  0.75526700  1
  O  O60  1  0.75994200  0.00000000  0.74473300  1
  O  O61  1  0.75140300  0.50000000  0.75337400  1
  O  O62  1  0.74859700  0.50000000  0.99662600  1
  O  O63  1  0.24005800  0.50000000  0.50526700  1
  O  O64  1  0.00000000  0.00000000  0.61963600  1
  O  O65  1  0.00000000  0.50000000  0.63036400  1
  O  O66  1  0.00000000  0.50000000  0.86963600  1
  O  O67  1  0.00000000  0.00000000  0.86594900  1
  O  O68  1  0.00000000  0.25140300  0.74662600  1
  O  O69  1  0.00000000  0.25994200  0.99473300  1
  O  O70  1  0.00000000  0.74859700  0.74662600  1
  O  O71  1  0.00000000  0.74005800  0.99473300  1
  O  O72  1  0.24005800  0.00000000  0.74473300  1
  O  O73  1  0.24859700  0.50000000  0.75337400  1
  O  O74  1  0.25140300  0.50000000  0.99662600  1
  O  O75  1  0.75994200  0.50000000  0.50526700  1
  O  O76  1  0.50000000  0.50000000  0.88036400  1
  O  O77  1  0.50000000  0.00000000  0.88405100  1
  O  O78  1  0.00000000  0.75140300  0.50337400  1
  O  O79  1  0.00000000  0.24859700  0.50337400  1
