# generated using pymatgen
data_Nd4CuTe5(ClO5)3
_symmetry_space_group_name_H-M   'P 1'
_cell_length_a   23.26349400
_cell_length_b   5.73125200
_cell_length_c   17.92257199
_cell_angle_alpha   90.00000000
_cell_angle_beta   125.02037439
_cell_angle_gamma   90.00000000
_symmetry_Int_Tables_number   1
_chemical_formula_structural   Nd4CuTe5(ClO5)3
_chemical_formula_sum   'Nd16 Cu4 Te20 Cl12 O60'
_cell_volume   1956.95627845
_cell_formula_units_Z   4
loop_
 _symmetry_equiv_pos_site_id
 _symmetry_equiv_pos_as_xyz
  1  'x, y, z'
loop_
 _atom_site_type_symbol
 _atom_site_label
 _atom_site_symmetry_multiplicity
 _atom_site_fract_x
 _atom_site_fract_y
 _atom_site_fract_z
 _atom_site_occupancy
  Nd  Nd0  1  0.00000000  0.22988400  0.50000000  1
  Nd  Nd1  1  0.90932400  0.68651500  0.57343600  1
  Nd  Nd2  1  0.20937200  0.17318800  0.62890800  1
  Nd  Nd3  1  0.91957550  0.66998750  0.80119000  1
  Nd  Nd4  1  0.00000000  0.17738600  0.00000000  1
  Nd  Nd5  1  0.79062800  0.17318800  0.37109200  1
  Nd  Nd6  1  0.09067600  0.68651500  0.42656400  1
  Nd  Nd7  1  0.08042450  0.66998750  0.19881000  1
  Nd  Nd8  1  0.50000000  0.72988400  0.50000000  1
  Nd  Nd9  1  0.40932400  0.18651500  0.57343600  1
  Nd  Nd10  1  0.70937200  0.67318800  0.62890800  1
  Nd  Nd11  1  0.41957550  0.16998750  0.80119000  1
  Nd  Nd12  1  0.50000000  0.67738600  0.00000000  1
  Nd  Nd13  1  0.29062800  0.67318800  0.37109200  1
  Nd  Nd14  1  0.59067600  0.18651500  0.42656400  1
  Nd  Nd15  1  0.58042450  0.16998750  0.19881000  1
  Cu  Cu16  1  0.79282850  0.45991950  0.08661700  1
  Cu  Cu17  1  0.20717150  0.45991950  0.91338300  1
  Cu  Cu18  1  0.29282850  0.95991950  0.08661700  1
  Cu  Cu19  1  0.70717150  0.95991950  0.91338300  1
  Te  Te20  1  0.89090600  0.68912400  0.35221600  1
  Te  Te21  1  0.79620950  0.27672950  0.58826400  1
  Te  Te22  1  0.99530800  0.14185400  0.26665700  1
  Te  Te23  1  0.20379050  0.27672950  0.41173600  1
  Te  Te24  1  0.09501650  0.73809350  0.97750500  1
  Te  Te25  1  0.10909400  0.68912400  0.64778400  1
  Te  Te26  1  0.69222200  0.63443000  0.18721100  1
  Te  Te27  1  0.90498350  0.73809350  0.02249500  1
  Te  Te28  1  0.00469200  0.14185400  0.73334300  1
  Te  Te29  1  0.30777800  0.63443000  0.81278900  1
  Te  Te30  1  0.39090600  0.18912400  0.35221600  1
  Te  Te31  1  0.29620950  0.77672950  0.58826400  1
  Te  Te32  1  0.49530800  0.64185400  0.26665700  1
  Te  Te33  1  0.70379050  0.77672950  0.41173600  1
  Te  Te34  1  0.59501650  0.23809350  0.97750500  1
  Te  Te35  1  0.60909400  0.18912400  0.64778400  1
  Te  Te36  1  0.19222200  0.13443000  0.18721100  1
  Te  Te37  1  0.40498350  0.23809350  0.02249500  1
  Te  Te38  1  0.50469200  0.64185400  0.73334300  1
  Te  Te39  1  0.80777800  0.13443000  0.81278900  1
  Cl  Cl40  1  0.19011750  0.24396850  0.77845200  1
  Cl  Cl41  1  0.80664500  0.18053000  0.00143600  1
  Cl  Cl42  1  0.19335500  0.18053000  0.99856400  1
  Cl  Cl43  1  0.90048350  0.65999250  0.17834200  1
  Cl  Cl44  1  0.09951650  0.65999250  0.82165800  1
  Cl  Cl45  1  0.80988250  0.24396850  0.22154800  1
  Cl  Cl46  1  0.69011750  0.74396850  0.77845200  1
  Cl  Cl47  1  0.30664500  0.68053000  0.00143600  1
  Cl  Cl48  1  0.69335500  0.68053000  0.99856400  1
  Cl  Cl49  1  0.40048350  0.15999250  0.17834200  1
  Cl  Cl50  1  0.59951650  0.15999250  0.82165800  1
  Cl  Cl51  1  0.30988250  0.74396850  0.22154800  1
  O  O52  1  0.90543250  0.93809150  0.43467600  1
  O  O53  1  0.81622550  0.38224750  0.50451000  1
  O  O54  1  0.11685150  0.46280550  0.57404500  1
  O  O55  1  0.97114250  0.48784750  0.06444800  1
  O  O56  1  0.98464150  0.57642350  0.40646900  1
  O  O57  1  0.18377450  0.38224750  0.49549000  1
  O  O58  1  0.05713700  0.40208800  0.30142800  1
  O  O59  1  0.01071850  0.07748650  0.38165500  1
  O  O60  1  0.02165050  0.95137750  0.89658600  1
  O  O61  1  0.20016400  0.88498700  0.51793600  1
  O  O62  1  0.93340800  0.91448300  0.70221800  1
  O  O63  1  0.98928150  0.07748650  0.61834500  1
  O  O64  1  0.67997700  0.07192900  0.35133500  1
  O  O65  1  0.94286300  0.40208800  0.69857200  1
  O  O66  1  0.38995700  0.81183200  0.84824900  1
  O  O67  1  0.09456750  0.93809150  0.56532400  1
  O  O68  1  0.23990450  0.80302350  0.70473400  1
  O  O69  1  0.68805550  0.39765050  0.25925900  1
  O  O70  1  0.97834950  0.95137750  0.10341400  1
  O  O71  1  0.61004300  0.81183200  0.15175100  1
  O  O72  1  0.32002300  0.07192900  0.64866500  1
  O  O73  1  0.88314850  0.46280550  0.42595500  1
  O  O74  1  0.06659200  0.91448300  0.29778200  1
  O  O75  1  0.02885750  0.48784750  0.93555200  1
  O  O76  1  0.79983600  0.88498700  0.48206400  1
  O  O77  1  0.31194450  0.39765050  0.74074100  1
  O  O78  1  0.41170500  0.35275200  0.92496400  1
  O  O79  1  0.58829500  0.35275200  0.07503600  1
  O  O80  1  0.76009550  0.80302350  0.29526600  1
  O  O81  1  0.01535850  0.57642350  0.59353100  1
  O  O82  1  0.40543250  0.43809150  0.43467600  1
  O  O83  1  0.31622550  0.88224750  0.50451000  1
  O  O84  1  0.61685150  0.96280550  0.57404500  1
  O  O85  1  0.47114250  0.98784750  0.06444800  1
  O  O86  1  0.48464150  0.07642350  0.40646900  1
  O  O87  1  0.68377450  0.88224750  0.49549000  1
  O  O88  1  0.55713700  0.90208800  0.30142800  1
  O  O89  1  0.51071850  0.57748650  0.38165500  1
  O  O90  1  0.52165050  0.45137750  0.89658600  1
  O  O91  1  0.70016400  0.38498700  0.51793600  1
  O  O92  1  0.43340800  0.41448300  0.70221800  1
  O  O93  1  0.48928150  0.57748650  0.61834500  1
  O  O94  1  0.17997700  0.57192900  0.35133500  1
  O  O95  1  0.44286300  0.90208800  0.69857200  1
  O  O96  1  0.88995700  0.31183200  0.84824900  1
  O  O97  1  0.59456750  0.43809150  0.56532400  1
  O  O98  1  0.73990450  0.30302350  0.70473400  1
  O  O99  1  0.18805550  0.89765050  0.25925900  1
  O  O100  1  0.47834950  0.45137750  0.10341400  1
  O  O101  1  0.11004300  0.31183200  0.15175100  1
  O  O102  1  0.82002300  0.57192900  0.64866500  1
  O  O103  1  0.38314850  0.96280550  0.42595500  1
  O  O104  1  0.56659200  0.41448300  0.29778200  1
  O  O105  1  0.52885750  0.98784750  0.93555200  1
  O  O106  1  0.29983600  0.38498700  0.48206400  1
  O  O107  1  0.81194450  0.89765050  0.74074100  1
  O  O108  1  0.91170500  0.85275200  0.92496400  1
  O  O109  1  0.08829500  0.85275200  0.07503600  1
  O  O110  1  0.26009550  0.30302350  0.29526600  1
  O  O111  1  0.51535850  0.07642350  0.59353100  1
