# generated using pymatgen
data_Ca3(HO3)2
_symmetry_space_group_name_H-M   'P 1'
_cell_length_a   11.35160800
_cell_length_b   4.33628000
_cell_length_c   6.10553941
_cell_angle_alpha   90.00000000
_cell_angle_beta   112.46841631
_cell_angle_gamma   90.00000000
_symmetry_Int_Tables_number   1
_chemical_formula_structural   Ca3(HO3)2
_chemical_formula_sum   'Ca6 H4 O12'
_cell_volume   277.72384733
_cell_formula_units_Z   2
loop_
 _symmetry_equiv_pos_site_id
 _symmetry_equiv_pos_as_xyz
  1  'x, y, z'
loop_
 _atom_site_type_symbol
 _atom_site_label
 _atom_site_symmetry_multiplicity
 _atom_site_fract_x
 _atom_site_fract_y
 _atom_site_fract_z
 _atom_site_occupancy
  Ca  Ca0  1  0.00000000  0.00000000  0.00000000  1
  Ca  Ca1  1  0.31205200  0.00000000  0.28476800  1
  Ca  Ca2  1  0.18794800  0.50000000  0.71523200  1
  Ca  Ca3  1  0.50000000  0.50000000  0.00000000  1
  Ca  Ca4  1  0.81205200  0.50000000  0.28476800  1
  Ca  Ca5  1  0.68794800  0.00000000  0.71523200  1
  H  H6  1  0.32120500  0.50000000  0.43750300  1
  H  H7  1  0.17879500  0.00000000  0.56249700  1
  H  H8  1  0.82120500  0.00000000  0.43750300  1
  H  H9  1  0.67879500  0.50000000  0.56249700  1
  O  O10  1  0.38393100  0.00000000  0.98196900  1
  O  O11  1  0.37400700  0.50000000  0.61068200  1
  O  O12  1  0.12599300  0.00000000  0.38931800  1
  O  O13  1  0.24036700  0.00000000  0.85691000  1
  O  O14  1  0.11606900  0.50000000  0.01803100  1
  O  O15  1  0.25963300  0.50000000  0.14309000  1
  O  O16  1  0.88393100  0.50000000  0.98196900  1
  O  O17  1  0.87400700  0.00000000  0.61068200  1
  O  O18  1  0.62599300  0.50000000  0.38931800  1
  O  O19  1  0.74036700  0.50000000  0.85691000  1
  O  O20  1  0.61606900  0.00000000  0.01803100  1
  O  O21  1  0.75963300  0.00000000  0.14309000  1
