# generated using pymatgen
data_K2Ca2C2O3F2
_symmetry_space_group_name_H-M   'P 1'
_cell_length_a   9.23146600
_cell_length_b   9.89949400
_cell_length_c   8.17984700
_cell_angle_alpha   90.00000000
_cell_angle_beta   90.00000000
_cell_angle_gamma   90.00000000
_symmetry_Int_Tables_number   1
_chemical_formula_structural   K2Ca2C2O3F2
_chemical_formula_sum   'K8 Ca8 C8 O12 F8'
_cell_volume   747.53038765
_cell_formula_units_Z   4
loop_
 _symmetry_equiv_pos_site_id
 _symmetry_equiv_pos_as_xyz
  1  'x, y, z'
loop_
 _atom_site_type_symbol
 _atom_site_label
 _atom_site_symmetry_multiplicity
 _atom_site_fract_x
 _atom_site_fract_y
 _atom_site_fract_z
 _atom_site_occupancy
  K  K0  1  0.75199350  0.87530550  0.00869900  1
  K  K1  1  0.75199350  0.12469450  0.50869900  1
  K  K2  1  0.24800650  0.87530550  0.00869900  1
  K  K3  1  0.24800650  0.12469450  0.50869900  1
  K  K4  1  0.25199350  0.37530550  0.00869900  1
  K  K5  1  0.25199350  0.62469450  0.50869900  1
  K  K6  1  0.74800650  0.37530550  0.00869900  1
  K  K7  1  0.74800650  0.62469450  0.50869900  1
  Ca  Ca8  1  0.50000000  0.11927400  0.17449300  1
  Ca  Ca9  1  0.50000000  0.36365400  0.67642700  1
  Ca  Ca10  1  0.50000000  0.63634600  0.17642700  1
  Ca  Ca11  1  0.50000000  0.88072600  0.67449300  1
  Ca  Ca12  1  0.00000000  0.61927400  0.17449300  1
  Ca  Ca13  1  0.00000000  0.86365400  0.67642700  1
  Ca  Ca14  1  0.00000000  0.13634600  0.17642700  1
  Ca  Ca15  1  0.00000000  0.38072600  0.67449300  1
  C  C16  1  0.50000000  0.37544500  0.31410500  1
  C  C17  1  0.50000000  0.62455500  0.81410500  1
  C  C18  1  0.50000000  0.85125300  0.32638000  1
  C  C19  1  0.50000000  0.14874700  0.82638000  1
  C  C20  1  0.00000000  0.87544500  0.31410500  1
  C  C21  1  0.00000000  0.12455500  0.81410500  1
  C  C22  1  0.00000000  0.35125300  0.32638000  1
  C  C23  1  0.00000000  0.64874700  0.82638000  1
  O  O24  1  0.50000000  0.26437900  0.40227200  1
  O  O25  1  0.50000000  0.48700700  0.40224600  1
  O  O26  1  0.50000000  0.51299300  0.90224600  1
  O  O27  1  0.50000000  0.73562100  0.90227200  1
  O  O28  1  0.50000000  0.96882300  0.40303200  1
  O  O29  1  0.50000000  0.03117700  0.90303200  1
  O  O30  1  0.00000000  0.76437900  0.40227200  1
  O  O31  1  0.00000000  0.98700700  0.40224600  1
  O  O32  1  0.00000000  0.01299300  0.90224600  1
  O  O33  1  0.00000000  0.23562100  0.90227200  1
  O  O34  1  0.00000000  0.46882300  0.40303200  1
  O  O35  1  0.00000000  0.53117700  0.90303200  1
  F  F36  1  0.74690950  0.87843050  0.66553200  1
  F  F37  1  0.74690950  0.12156950  0.16553200  1
  F  F38  1  0.25309050  0.87843050  0.66553200  1
  F  F39  1  0.25309050  0.12156950  0.16553200  1
  F  F40  1  0.24690950  0.37843050  0.66553200  1
  F  F41  1  0.24690950  0.62156950  0.16553200  1
  F  F42  1  0.75309050  0.37843050  0.66553200  1
  F  F43  1  0.75309050  0.62156950  0.16553200  1
