# generated using pymatgen
data_Nd2Th8O19
_symmetry_space_group_name_H-M   'P 1'
_cell_length_a   3.97539800
_cell_length_b   3.97539800
_cell_length_c   28.16659600
_cell_angle_alpha   90.00000000
_cell_angle_beta   90.00000000
_cell_angle_gamma   90.00000000
_symmetry_Int_Tables_number   1
_chemical_formula_structural   Nd2Th8O19
_chemical_formula_sum   'Nd2 Th8 O19'
_cell_volume   445.13894731
_cell_formula_units_Z   1
loop_
 _symmetry_equiv_pos_site_id
 _symmetry_equiv_pos_as_xyz
  1  'x, y, z'
loop_
 _atom_site_type_symbol
 _atom_site_label
 _atom_site_symmetry_multiplicity
 _atom_site_fract_x
 _atom_site_fract_y
 _atom_site_fract_z
 _atom_site_occupancy
  Nd  Nd0  1  0.50000000  0.00000000  0.94385500  1
  Nd  Nd1  1  0.00000000  0.50000000  0.05614500  1
  Th  Th2  1  0.50000000  0.00000000  0.15027100  1
  Th  Th3  1  0.00000000  0.50000000  0.24993000  1
  Th  Th4  1  0.50000000  0.00000000  0.34967000  1
  Th  Th5  1  0.00000000  0.50000000  0.44963400  1
  Th  Th6  1  0.50000000  0.00000000  0.55036600  1
  Th  Th7  1  0.00000000  0.50000000  0.65033000  1
  Th  Th8  1  0.50000000  0.00000000  0.75007000  1
  Th  Th9  1  0.00000000  0.50000000  0.84972900  1
  O  O10  1  0.50000000  0.50000000  0.19839500  1
  O  O11  1  0.00000000  0.00000000  0.30000900  1
  O  O12  1  0.50000000  0.50000000  0.39969300  1
  O  O13  1  0.00000000  0.00000000  0.50000000  1
  O  O14  1  0.50000000  0.50000000  0.60030700  1
  O  O15  1  0.00000000  0.00000000  0.69999100  1
  O  O16  1  0.50000000  0.50000000  0.70041200  1
  O  O17  1  0.50000000  0.50000000  0.80160500  1
  O  O18  1  0.00000000  0.00000000  0.79747700  1
  O  O19  1  0.00000000  0.00000000  0.89475200  1
  O  O20  1  0.50000000  0.50000000  0.90449200  1
  O  O21  1  0.00000000  0.00000000  0.00000000  1
  O  O22  1  0.00000000  0.00000000  0.10524800  1
  O  O23  1  0.50000000  0.50000000  0.09550800  1
  O  O24  1  0.00000000  0.00000000  0.20252300  1
  O  O25  1  0.50000000  0.50000000  0.29958800  1
  O  O26  1  0.00000000  0.00000000  0.39955700  1
  O  O27  1  0.50000000  0.50000000  0.50000000  1
  O  O28  1  0.00000000  0.00000000  0.60044300  1
