# generated using pymatgen
data_Li4Ti5O12
_symmetry_space_group_name_H-M   'P 1'
_cell_length_a   8.44437200
_cell_length_b   8.42047200
_cell_length_c   13.33898705
_cell_angle_alpha   90.00000000
_cell_angle_beta   108.17243223
_cell_angle_gamma   90.00000000
_symmetry_Int_Tables_number   1
_chemical_formula_structural   Li4Ti5O12
_chemical_formula_sum   'Li16 Ti20 O48'
_cell_volume   901.16874179
_cell_formula_units_Z   4
loop_
 _symmetry_equiv_pos_site_id
 _symmetry_equiv_pos_as_xyz
  1  'x, y, z'
loop_
 _atom_site_type_symbol
 _atom_site_label
 _atom_site_symmetry_multiplicity
 _atom_site_fract_x
 _atom_site_fract_y
 _atom_site_fract_z
 _atom_site_occupancy
  Li  Li0  1  0.33346450  0.37150050  0.91701400  1
  Li  Li1  1  0.00000000  0.37514100  0.25000000  1
  Li  Li2  1  0.33346450  0.62849950  0.41701400  1
  Li  Li3  1  0.66653550  0.37150050  0.58298600  1
  Li  Li4  1  0.75000000  0.75000000  0.50000000  1
  Li  Li5  1  0.00000000  0.62485900  0.75000000  1
  Li  Li6  1  0.66653550  0.62849950  0.08298600  1
  Li  Li7  1  0.25000000  0.75000000  0.00000000  1
  Li  Li8  1  0.83346450  0.87150050  0.91701400  1
  Li  Li9  1  0.50000000  0.87514100  0.25000000  1
  Li  Li10  1  0.83346450  0.12849950  0.41701400  1
  Li  Li11  1  0.16653550  0.87150050  0.58298600  1
  Li  Li12  1  0.25000000  0.25000000  0.50000000  1
  Li  Li13  1  0.50000000  0.12485900  0.75000000  1
  Li  Li14  1  0.16653550  0.12849950  0.08298600  1
  Li  Li15  1  0.75000000  0.25000000  0.00000000  1
  Ti  Ti16  1  0.08381050  0.75454950  0.16070200  1
  Ti  Ti17  1  0.33090750  0.49588350  0.65676100  1
  Ti  Ti18  1  0.00000000  0.50000000  0.00000000  1
  Ti  Ti19  1  0.08381050  0.24545050  0.66070200  1
  Ti  Ti20  1  0.66909250  0.49588350  0.84323900  1
  Ti  Ti21  1  0.91618950  0.24545050  0.83929800  1
  Ti  Ti22  1  0.66909250  0.50411650  0.34323900  1
  Ti  Ti23  1  0.33090750  0.50411650  0.15676100  1
  Ti  Ti24  1  0.91618950  0.75454950  0.33929800  1
  Ti  Ti25  1  0.00000000  0.50000000  0.50000000  1
  Ti  Ti26  1  0.58381050  0.25454950  0.16070200  1
  Ti  Ti27  1  0.83090750  0.99588350  0.65676100  1
  Ti  Ti28  1  0.50000000  0.00000000  0.00000000  1
  Ti  Ti29  1  0.58381050  0.74545050  0.66070200  1
  Ti  Ti30  1  0.16909250  0.99588350  0.84323900  1
  Ti  Ti31  1  0.41618950  0.74545050  0.83929800  1
  Ti  Ti32  1  0.16909250  0.00411650  0.34323900  1
  Ti  Ti33  1  0.83090750  0.00411650  0.15676100  1
  Ti  Ti34  1  0.41618950  0.25454950  0.33929800  1
  Ti  Ti35  1  0.50000000  0.00000000  0.50000000  1
  O  O36  1  0.14372750  0.76620150  0.32196600  1
  O  O37  1  0.23852450  0.50241850  0.51138800  1
  O  O38  1  0.81492650  0.77137550  0.66819100  1
  O  O39  1  0.90663350  0.51149050  0.34147600  1
  O  O40  1  0.00733650  0.26911150  0.51264200  1
  O  O41  1  0.14372750  0.23379850  0.82196600  1
  O  O42  1  0.90663350  0.48850950  0.84147600  1
  O  O43  1  0.99266350  0.26911150  0.98735800  1
  O  O44  1  0.76147550  0.50241850  0.98861200  1
  O  O45  1  0.57042300  0.51384400  0.67093700  1
  O  O46  1  0.18507350  0.77137550  0.83180900  1
  O  O47  1  0.42957700  0.51384400  0.82906300  1
  O  O48  1  0.81492650  0.22862450  0.16819100  1
  O  O49  1  0.57042300  0.48615600  0.17093700  1
  O  O50  1  0.42957700  0.48615600  0.32906300  1
  O  O51  1  0.00733650  0.73088850  0.01264200  1
  O  O52  1  0.23852450  0.49758150  0.01138800  1
  O  O53  1  0.85627250  0.76620150  0.17803400  1
  O  O54  1  0.09336650  0.51149050  0.15852400  1
  O  O55  1  0.99266350  0.73088850  0.48735800  1
  O  O56  1  0.18507350  0.22862450  0.33180900  1
  O  O57  1  0.09336650  0.48850950  0.65852400  1
  O  O58  1  0.76147550  0.49758150  0.48861200  1
  O  O59  1  0.85627250  0.23379850  0.67803400  1
  O  O60  1  0.64372750  0.26620150  0.32196600  1
  O  O61  1  0.73852450  0.00241850  0.51138800  1
  O  O62  1  0.31492650  0.27137550  0.66819100  1
  O  O63  1  0.40663350  0.01149050  0.34147600  1
  O  O64  1  0.50733650  0.76911150  0.51264200  1
  O  O65  1  0.64372750  0.73379850  0.82196600  1
  O  O66  1  0.40663350  0.98850950  0.84147600  1
  O  O67  1  0.49266350  0.76911150  0.98735800  1
  O  O68  1  0.26147550  0.00241850  0.98861200  1
  O  O69  1  0.07042300  0.01384400  0.67093700  1
  O  O70  1  0.68507350  0.27137550  0.83180900  1
  O  O71  1  0.92957700  0.01384400  0.82906300  1
  O  O72  1  0.31492650  0.72862450  0.16819100  1
  O  O73  1  0.07042300  0.98615600  0.17093700  1
  O  O74  1  0.92957700  0.98615600  0.32906300  1
  O  O75  1  0.50733650  0.23088850  0.01264200  1
  O  O76  1  0.73852450  0.99758150  0.01138800  1
  O  O77  1  0.35627250  0.26620150  0.17803400  1
  O  O78  1  0.59336650  0.01149050  0.15852400  1
  O  O79  1  0.49266350  0.23088850  0.48735800  1
  O  O80  1  0.68507350  0.72862450  0.33180900  1
  O  O81  1  0.59336650  0.98850950  0.65852400  1
  O  O82  1  0.26147550  0.99758150  0.48861200  1
  O  O83  1  0.35627250  0.73379850  0.67803400  1
