# generated using pymatgen
data_KHo2Cu(MoO4)4
_symmetry_space_group_name_H-M   'P 1'
_cell_length_a   5.28425800
_cell_length_b   12.68695039
_cell_length_c   19.69633121
_cell_angle_alpha   90.00000000
_cell_angle_beta   93.29246747
_cell_angle_gamma   90.00000000
_symmetry_Int_Tables_number   1
_chemical_formula_structural   KHo2Cu(MoO4)4
_chemical_formula_sum   'K4 Ho8 Cu4 Mo16 O64'
_cell_volume   1318.28449687
_cell_formula_units_Z   4
loop_
 _symmetry_equiv_pos_site_id
 _symmetry_equiv_pos_as_xyz
  1  'x, y, z'
loop_
 _atom_site_type_symbol
 _atom_site_label
 _atom_site_symmetry_multiplicity
 _atom_site_fract_x
 _atom_site_fract_y
 _atom_site_fract_z
 _atom_site_occupancy
  K  K0  1  0.50257550  0.52699350  0.75175600  1
  K  K1  1  0.00257550  0.97300650  0.25175600  1
  K  K2  1  0.00257550  0.02699350  0.75175600  1
  K  K3  1  0.50257550  0.47300650  0.25175600  1
  Ho  Ho4  1  0.49986500  0.64544700  0.53128200  1
  Ho  Ho5  1  0.50309550  0.64558350  0.96925700  1
  Ho  Ho6  1  0.99986500  0.85455300  0.03128200  1
  Ho  Ho7  1  0.00309550  0.85441650  0.46925700  1
  Ho  Ho8  1  0.99986500  0.14544700  0.53128200  1
  Ho  Ho9  1  0.00309550  0.14558350  0.96925700  1
  Ho  Ho10  1  0.49986500  0.35455300  0.03128200  1
  Ho  Ho11  1  0.50309550  0.35441650  0.46925700  1
  Cu  Cu12  1  0.50032350  0.80730650  0.75049800  1
  Cu  Cu13  1  0.00032350  0.69269350  0.25049800  1
  Cu  Cu14  1  0.00032350  0.30730650  0.75049800  1
  Cu  Cu15  1  0.50032350  0.19269350  0.25049800  1
  Mo  Mo16  1  0.48529850  0.93670150  0.90858700  1
  Mo  Mo17  1  0.01040250  0.73953050  0.64645600  1
  Mo  Mo18  1  0.98529850  0.56329850  0.40858700  1
  Mo  Mo19  1  0.99233800  0.73870100  0.85397900  1
  Mo  Mo20  1  0.01687200  0.55985700  0.09161400  1
  Mo  Mo21  1  0.49233800  0.76129900  0.35397900  1
  Mo  Mo22  1  0.51687200  0.94014300  0.59161400  1
  Mo  Mo23  1  0.51040250  0.76046950  0.14645600  1
  Mo  Mo24  1  0.98529850  0.43670150  0.90858700  1
  Mo  Mo25  1  0.51040250  0.23953050  0.64645600  1
  Mo  Mo26  1  0.48529850  0.06329850  0.40858700  1
  Mo  Mo27  1  0.49233800  0.23870100  0.85397900  1
  Mo  Mo28  1  0.51687200  0.05985700  0.09161400  1
  Mo  Mo29  1  0.99233800  0.26129900  0.35397900  1
  Mo  Mo30  1  0.01687200  0.44014300  0.59161400  1
  Mo  Mo31  1  0.01040250  0.26046950  0.14645600  1
  O  O32  1  0.73699250  0.51758250  0.03723000  1
  O  O33  1  0.33913400  0.82895300  0.95875400  1
  O  O34  1  0.89478100  0.58863100  0.17195600  1
  O  O35  1  0.75652550  0.84641950  0.36949900  1
  O  O36  1  0.73035100  0.79607300  0.21462300  1
  O  O37  1  0.60759750  0.90831150  0.82809700  1
  O  O38  1  0.72973750  0.95008150  0.10069900  1
  O  O39  1  0.32262650  0.73811550  0.43417700  1
  O  O40  1  0.27062350  0.79662850  0.28636700  1
  O  O41  1  0.77062350  0.70337150  0.78636700  1
  O  O42  1  0.10759750  0.59168850  0.32809700  1
  O  O43  1  0.67107900  0.82858500  0.54211000  1
  O  O44  1  0.39478100  0.91136900  0.67195600  1
  O  O45  1  0.82262650  0.76188450  0.93417700  1
  O  O46  1  0.18566450  0.75993950  0.56677100  1
  O  O47  1  0.13089100  0.85822200  0.82805100  1
  O  O48  1  0.25652550  0.65358050  0.86949900  1
  O  O49  1  0.68566450  0.74006050  0.06677100  1
  O  O50  1  0.87843900  0.85935900  0.67278500  1
  O  O51  1  0.27321650  0.94936750  0.39894800  1
  O  O52  1  0.23699250  0.98241750  0.53723000  1
  O  O53  1  0.17107900  0.67141500  0.04211000  1
  O  O54  1  0.37843900  0.64064100  0.17278500  1
  O  O55  1  0.77321650  0.55063250  0.89894800  1
  O  O56  1  0.26563900  0.51750700  0.46223000  1
  O  O57  1  0.74527150  0.64972950  0.62976700  1
  O  O58  1  0.23035100  0.70392700  0.71462300  1
  O  O59  1  0.22973750  0.54991850  0.60069900  1
  O  O60  1  0.83913400  0.67104700  0.45875400  1
  O  O61  1  0.76563900  0.98249300  0.96223000  1
  O  O62  1  0.63089100  0.64177800  0.32805100  1
  O  O63  1  0.24527150  0.85027050  0.12976700  1
  O  O64  1  0.23699250  0.01758250  0.03723000  1
  O  O65  1  0.83913400  0.32895300  0.95875400  1
  O  O66  1  0.39478100  0.08863100  0.17195600  1
  O  O67  1  0.25652550  0.34641950  0.36949900  1
  O  O68  1  0.23035100  0.29607300  0.21462300  1
  O  O69  1  0.10759750  0.40831150  0.82809700  1
  O  O70  1  0.22973750  0.45008150  0.10069900  1
  O  O71  1  0.82262650  0.23811550  0.43417700  1
  O  O72  1  0.77062350  0.29662850  0.28636700  1
  O  O73  1  0.27062350  0.20337150  0.78636700  1
  O  O74  1  0.60759750  0.09168850  0.32809700  1
  O  O75  1  0.17107900  0.32858500  0.54211000  1
  O  O76  1  0.89478100  0.41136900  0.67195600  1
  O  O77  1  0.32262650  0.26188450  0.93417700  1
  O  O78  1  0.68566450  0.25993950  0.56677100  1
  O  O79  1  0.63089100  0.35822200  0.82805100  1
  O  O80  1  0.75652550  0.15358050  0.86949900  1
  O  O81  1  0.18566450  0.24006050  0.06677100  1
  O  O82  1  0.37843900  0.35935900  0.67278500  1
  O  O83  1  0.77321650  0.44936750  0.39894800  1
  O  O84  1  0.73699250  0.48241750  0.53723000  1
  O  O85  1  0.67107900  0.17141500  0.04211000  1
  O  O86  1  0.87843900  0.14064100  0.17278500  1
  O  O87  1  0.27321650  0.05063250  0.89894800  1
  O  O88  1  0.76563900  0.01750700  0.46223000  1
  O  O89  1  0.24527150  0.14972950  0.62976700  1
  O  O90  1  0.73035100  0.20392700  0.71462300  1
  O  O91  1  0.72973750  0.04991850  0.60069900  1
  O  O92  1  0.33913400  0.17104700  0.45875400  1
  O  O93  1  0.26563900  0.48249300  0.96223000  1
  O  O94  1  0.13089100  0.14177800  0.32805100  1
  O  O95  1  0.74527150  0.35027050  0.12976700  1
