# generated using pymatgen
data_Zn7(SbO6)2
_symmetry_space_group_name_H-M   'P 1'
_cell_length_a   8.73481400
_cell_length_b   8.73419000
_cell_length_c   13.67970790
_cell_angle_alpha   90.00000000
_cell_angle_beta   107.03129805
_cell_angle_gamma   90.00000000
_symmetry_Int_Tables_number   1
_chemical_formula_structural   Zn7(SbO6)2
_chemical_formula_sum   'Zn28 Sb8 O48'
_cell_volume   997.87659292
_cell_formula_units_Z   4
loop_
 _symmetry_equiv_pos_site_id
 _symmetry_equiv_pos_as_xyz
  1  'x, y, z'
loop_
 _atom_site_type_symbol
 _atom_site_label
 _atom_site_symmetry_multiplicity
 _atom_site_fract_x
 _atom_site_fract_y
 _atom_site_fract_z
 _atom_site_occupancy
  Zn  Zn0  1  0.84261600  0.14390800  0.42396000  1
  Zn  Zn1  1  0.15738400  0.14390800  0.07604000  1
  Zn  Zn2  1  0.57561800  0.24209200  0.15975000  1
  Zn  Zn3  1  0.84261600  0.85609200  0.92396000  1
  Zn  Zn4  1  0.50000000  0.13991900  0.75000000  1
  Zn  Zn5  1  0.57561800  0.75790800  0.65975000  1
  Zn  Zn6  1  0.42438200  0.75790800  0.84025000  1
  Zn  Zn7  1  0.15738400  0.85609200  0.57604000  1
  Zn  Zn8  1  0.42438200  0.24209200  0.34025000  1
  Zn  Zn9  1  0.50000000  0.00000000  0.50000000  1
  Zn  Zn10  1  0.75000000  0.75000000  0.50000000  1
  Zn  Zn11  1  0.50000000  0.86008100  0.25000000  1
  Zn  Zn12  1  0.75000000  0.25000000  0.00000000  1
  Zn  Zn13  1  0.50000000  0.00000000  0.00000000  1
  Zn  Zn14  1  0.34261600  0.64390800  0.42396000  1
  Zn  Zn15  1  0.65738400  0.64390800  0.07604000  1
  Zn  Zn16  1  0.07561800  0.74209200  0.15975000  1
  Zn  Zn17  1  0.34261600  0.35609200  0.92396000  1
  Zn  Zn18  1  0.00000000  0.63991900  0.75000000  1
  Zn  Zn19  1  0.07561800  0.25790800  0.65975000  1
  Zn  Zn20  1  0.92438200  0.25790800  0.84025000  1
  Zn  Zn21  1  0.65738400  0.35609200  0.57604000  1
  Zn  Zn22  1  0.92438200  0.74209200  0.34025000  1
  Zn  Zn23  1  0.00000000  0.50000000  0.50000000  1
  Zn  Zn24  1  0.25000000  0.25000000  0.50000000  1
  Zn  Zn25  1  0.00000000  0.36008100  0.25000000  1
  Zn  Zn26  1  0.25000000  0.75000000  0.00000000  1
  Zn  Zn27  1  0.00000000  0.50000000  0.00000000  1
  Sb  Sb28  1  0.82754500  0.00285600  0.66473100  1
  Sb  Sb29  1  0.17245500  0.99714400  0.33526900  1
  Sb  Sb30  1  0.82754500  0.99714400  0.16473100  1
  Sb  Sb31  1  0.17245500  0.00285600  0.83526900  1
  Sb  Sb32  1  0.32754500  0.50285600  0.66473100  1
  Sb  Sb33  1  0.67245500  0.49714400  0.33526900  1
  Sb  Sb34  1  0.32754500  0.49714400  0.16473100  1
  Sb  Sb35  1  0.67245500  0.50285600  0.83526900  1
  O  O36  1  0.51773900  0.23133500  0.00563000  1
  O  O37  1  0.65828250  0.73277650  0.82684400  1
  O  O38  1  0.24114200  0.00156200  0.98778200  1
  O  O39  1  0.34171750  0.73277650  0.67315600  1
  O  O40  1  0.92697850  0.00192350  0.82390300  1
  O  O41  1  0.75885800  0.00156200  0.51221800  1
  O  O42  1  0.48226100  0.23133500  0.49437000  1
  O  O43  1  0.39705650  0.00026450  0.32925200  1
  O  O44  1  0.60294350  0.99973550  0.67074800  1
  O  O45  1  0.67447450  0.72571350  0.33568600  1
  O  O46  1  0.24114200  0.99843800  0.48778200  1
  O  O47  1  0.51773900  0.76866500  0.50563000  1
  O  O48  1  0.07302150  0.99807650  0.17609700  1
  O  O49  1  0.32552550  0.72571350  0.16431400  1
  O  O50  1  0.75885800  0.99843800  0.01221800  1
  O  O51  1  0.65828250  0.26722350  0.32684400  1
  O  O52  1  0.92697850  0.99807650  0.32390300  1
  O  O53  1  0.34171750  0.26722350  0.17315600  1
  O  O54  1  0.60294350  0.00026450  0.17074800  1
  O  O55  1  0.39705650  0.99973550  0.82925200  1
  O  O56  1  0.07302150  0.00192350  0.67609700  1
  O  O57  1  0.48226100  0.76866500  0.99437000  1
  O  O58  1  0.67447450  0.27428650  0.83568600  1
  O  O59  1  0.32552550  0.27428650  0.66431400  1
  O  O60  1  0.01773900  0.73133500  0.00563000  1
  O  O61  1  0.15828250  0.23277650  0.82684400  1
  O  O62  1  0.74114200  0.50156200  0.98778200  1
  O  O63  1  0.84171750  0.23277650  0.67315600  1
  O  O64  1  0.42697850  0.50192350  0.82390300  1
  O  O65  1  0.25885800  0.50156200  0.51221800  1
  O  O66  1  0.98226100  0.73133500  0.49437000  1
  O  O67  1  0.89705650  0.50026450  0.32925200  1
  O  O68  1  0.10294350  0.49973550  0.67074800  1
  O  O69  1  0.17447450  0.22571350  0.33568600  1
  O  O70  1  0.74114200  0.49843800  0.48778200  1
  O  O71  1  0.01773900  0.26866500  0.50563000  1
  O  O72  1  0.57302150  0.49807650  0.17609700  1
  O  O73  1  0.82552550  0.22571350  0.16431400  1
  O  O74  1  0.25885800  0.49843800  0.01221800  1
  O  O75  1  0.15828250  0.76722350  0.32684400  1
  O  O76  1  0.42697850  0.49807650  0.32390300  1
  O  O77  1  0.84171750  0.76722350  0.17315600  1
  O  O78  1  0.10294350  0.50026450  0.17074800  1
  O  O79  1  0.89705650  0.49973550  0.82925200  1
  O  O80  1  0.57302150  0.50192350  0.67609700  1
  O  O81  1  0.98226100  0.26866500  0.99437000  1
  O  O82  1  0.17447450  0.77428650  0.83568600  1
  O  O83  1  0.82552550  0.77428650  0.66431400  1
