# generated using pymatgen
data_AgMo6Br13
_symmetry_space_group_name_H-M   'P 1'
_cell_length_a   9.57234800
_cell_length_b   9.70543616
_cell_length_c   14.76783678
_cell_angle_alpha   96.59708205
_cell_angle_beta   102.63210115
_cell_angle_gamma   113.22474920
_symmetry_Int_Tables_number   1
_chemical_formula_structural   AgMo6Br13
_chemical_formula_sum   'Ag2 Mo12 Br26'
_cell_volume   1198.94624651
_cell_formula_units_Z   2
loop_
 _symmetry_equiv_pos_site_id
 _symmetry_equiv_pos_as_xyz
  1  'x, y, z'
loop_
 _atom_site_type_symbol
 _atom_site_label
 _atom_site_symmetry_multiplicity
 _atom_site_fract_x
 _atom_site_fract_y
 _atom_site_fract_z
 _atom_site_occupancy
  Ag  Ag0  1  0.04544300  0.27587200  0.77220500  1
  Ag  Ag1  1  0.95455700  0.72412800  0.22779500  1
  Mo  Mo2  1  0.46168800  0.32095300  0.41539300  1
  Mo  Mo3  1  0.63132400  0.45667400  0.59526700  1
  Mo  Mo4  1  0.54901400  0.98549600  0.88389000  1
  Mo  Mo5  1  0.69151600  0.99777000  0.06239900  1
  Mo  Mo6  1  0.53831200  0.67904700  0.58460700  1
  Mo  Mo7  1  0.45098600  0.01450400  0.11611000  1
  Mo  Mo8  1  0.60143200  0.21551000  0.02433100  1
  Mo  Mo9  1  0.30848400  0.00223000  0.93760100  1
  Mo  Mo10  1  0.36867600  0.54332600  0.40473300  1
  Mo  Mo11  1  0.32384400  0.38836200  0.54035200  1
  Mo  Mo12  1  0.67615600  0.61163800  0.45964800  1
  Mo  Mo13  1  0.39856800  0.78449000  0.97566900  1
  Br  Br14  1  0.41614100  0.16806800  0.55028100  1
  Br  Br15  1  0.51004600  0.47781500  0.28348300  1
  Br  Br16  1  0.15904100  0.25413000  0.36404000  1
  Br  Br17  1  0.25782600  0.77448600  0.80028500  1
  Br  Br18  1  0.64433800  0.77799400  0.92558400  1
  Br  Br19  1  0.23418000  0.61129900  0.52847100  1
  Br  Br20  1  0.92679900  0.77198400  0.40486600  1
  Br  Br21  1  0.74436600  0.51907700  0.06316800  1
  Br  Br22  1  0.58385900  0.83193200  0.44971900  1
  Br  Br23  1  0.16227600  0.79882400  0.02977600  1
  Br  Br24  1  0.39528600  0.05485100  0.29075700  1
  Br  Br25  1  0.81866100  0.40756900  0.73278600  1
  Br  Br26  1  0.04602500  0.01661700  0.85086500  1
  Br  Br27  1  0.25563400  0.48092300  0.93683200  1
  Br  Br28  1  0.48995400  0.52218500  0.71651700  1
  Br  Br29  1  0.18133900  0.59243100  0.26721400  1
  Br  Br30  1  0.95397500  0.98338300  0.14913500  1
  Br  Br31  1  0.53841300  0.79804200  0.15205900  1
  Br  Br32  1  0.46158700  0.20195800  0.84794100  1
  Br  Br33  1  0.07320100  0.22801600  0.59513400  1
  Br  Br34  1  0.60471400  0.94514900  0.70924300  1
  Br  Br35  1  0.35566200  0.22200600  0.07441600  1
  Br  Br36  1  0.76582000  0.38870100  0.47152900  1
  Br  Br37  1  0.74217400  0.22551400  0.19971500  1
  Br  Br38  1  0.84095900  0.74587000  0.63596000  1
  Br  Br39  1  0.83772400  0.20117600  0.97022400  1
