# generated using pymatgen
data_KHO
_symmetry_space_group_name_H-M   'P 1'
_cell_length_a   4.01334400
_cell_length_b   10.89578000
_cell_length_c   3.93668300
_cell_angle_alpha   90.00000000
_cell_angle_beta   90.00000000
_cell_angle_gamma   90.00000000
_symmetry_Int_Tables_number   1
_chemical_formula_structural   KHO
_chemical_formula_sum   'K4 H4 O4'
_cell_volume   172.14529488
_cell_formula_units_Z   4
loop_
 _symmetry_equiv_pos_site_id
 _symmetry_equiv_pos_as_xyz
  1  'x, y, z'
loop_
 _atom_site_type_symbol
 _atom_site_label
 _atom_site_symmetry_multiplicity
 _atom_site_fract_x
 _atom_site_fract_y
 _atom_site_fract_z
 _atom_site_occupancy
  K  K0  1  0.00000000  0.35695700  0.76280900  1
  K  K1  1  0.50000000  0.14304300  0.26280900  1
  K  K2  1  0.50000000  0.85695700  0.76280900  1
  K  K3  1  0.00000000  0.64304300  0.26280900  1
  H  H4  1  0.00000000  0.03901600  0.89834100  1
  H  H5  1  0.50000000  0.46098400  0.39834100  1
  H  H6  1  0.50000000  0.53901600  0.89834100  1
  H  H7  1  0.00000000  0.96098400  0.39834100  1
  O  O8  1  0.00000000  0.11019700  0.74426500  1
  O  O9  1  0.50000000  0.38980300  0.24426500  1
  O  O10  1  0.50000000  0.61019700  0.74426500  1
  O  O11  1  0.00000000  0.88980300  0.24426500  1
