# generated using pymatgen
data_Nb3Se10Br3
_symmetry_space_group_name_H-M   'P 1'
_cell_length_a   14.25593800
_cell_length_b   13.96297100
_cell_length_c   19.66643808
_cell_angle_alpha   90.00000000
_cell_angle_beta   90.09330682
_cell_angle_gamma   90.00000000
_symmetry_Int_Tables_number   1
_chemical_formula_structural   Nb3Se10Br3
_chemical_formula_sum   'Nb24 Se80 Br24'
_cell_volume   3914.70253508
_cell_formula_units_Z   8
loop_
 _symmetry_equiv_pos_site_id
 _symmetry_equiv_pos_as_xyz
  1  'x, y, z'
loop_
 _atom_site_type_symbol
 _atom_site_label
 _atom_site_symmetry_multiplicity
 _atom_site_fract_x
 _atom_site_fract_y
 _atom_site_fract_z
 _atom_site_occupancy
  Nb  Nb0  1  0.36592600  0.24884000  0.39576100  1
  Nb  Nb1  1  0.28743500  0.23851900  0.24742400  1
  Nb  Nb2  1  0.54359800  0.76036000  0.25283800  1
  Nb  Nb3  1  0.05219800  0.74530000  0.45655900  1
  Nb  Nb4  1  0.37945100  0.23825700  0.89634800  1
  Nb  Nb5  1  0.70393800  0.76807800  0.95598700  1
  Nb  Nb6  1  0.45640200  0.23964000  0.74716200  1
  Nb  Nb7  1  0.63407400  0.75116000  0.60423900  1
  Nb  Nb8  1  0.29606200  0.23192200  0.04401300  1
  Nb  Nb9  1  0.94780200  0.25470000  0.54344100  1
  Nb  Nb10  1  0.79606200  0.26807800  0.04401300  1
  Nb  Nb11  1  0.04359800  0.73964000  0.25283800  1
  Nb  Nb12  1  0.21256500  0.73851900  0.75257600  1
  Nb  Nb13  1  0.12054900  0.73825700  0.10365200  1
  Nb  Nb14  1  0.55219800  0.75470000  0.45655900  1
  Nb  Nb15  1  0.95640200  0.26036000  0.74716200  1
  Nb  Nb16  1  0.20393800  0.73192200  0.95598700  1
  Nb  Nb17  1  0.44780200  0.24530000  0.54344100  1
  Nb  Nb18  1  0.87945100  0.26174300  0.89634800  1
  Nb  Nb19  1  0.71256500  0.76148100  0.75257600  1
  Nb  Nb20  1  0.78743500  0.26148100  0.24742400  1
  Nb  Nb21  1  0.62054900  0.76174300  0.10365200  1
  Nb  Nb22  1  0.13407400  0.74884000  0.60423900  1
  Nb  Nb23  1  0.86592600  0.25116000  0.39576100  1
  Se  Se24  1  0.51862500  0.34244400  0.43959300  1
  Se  Se25  1  0.92779700  0.40398500  0.46789900  1
  Se  Se26  1  0.22121200  0.34695600  0.14225700  1
  Se  Se27  1  0.01670200  0.14151200  0.64563900  1
  Se  Se28  1  0.85478500  0.16824900  0.64820700  1
  Se  Se29  1  0.57220300  0.90398500  0.53210100  1
  Se  Se30  1  0.17403600  0.58202300  0.03063600  1
  Se  Se31  1  0.62337700  0.60128600  0.51656300  1
  Se  Se32  1  0.14044700  0.88723800  0.01666200  1
  Se  Se33  1  0.44322100  0.08726400  0.82197000  1
  Se  Se34  1  0.54839700  0.83097600  0.71037600  1
  Se  Se35  1  0.42779700  0.09601500  0.46789900  1
  Se  Se36  1  0.05677900  0.58726400  0.17803000  1
  Se  Se37  1  0.79133200  0.66844000  0.64976100  1
  Se  Se38  1  0.03092600  0.16740300  0.85184600  1
  Se  Se39  1  0.65276300  0.60334100  0.69295900  1
  Se  Se40  1  0.64044700  0.61276200  0.01666200  1
  Se  Se41  1  0.94322100  0.41273600  0.82197000  1
  Se  Se42  1  0.28449200  0.16886600  0.50371800  1
  Se  Se43  1  0.96907400  0.83259700  0.14815400  1
  Se  Se44  1  0.31150400  0.09109500  0.32441700  1
  Se  Se45  1  0.21550800  0.66886600  0.49628200  1
  Se  Se46  1  0.72121200  0.15304400  0.14225700  1
  Se  Se47  1  0.03634900  0.66376200  0.99441700  1
  Se  Se48  1  0.35955300  0.38723800  0.98333800  1
  Se  Se49  1  0.61205800  0.61008100  0.18957000  1
  Se  Se50  1  0.35478500  0.33175100  0.64820700  1
  Se  Se51  1  0.29133200  0.83156000  0.64976100  1
  Se  Se52  1  0.82596400  0.41797700  0.96936400  1
  Se  Se53  1  0.07220300  0.59601500  0.53210100  1
  Se  Se54  1  0.20209900  0.65701900  0.21103300  1
  Se  Se55  1  0.98329800  0.85848800  0.35436100  1
  Se  Se56  1  0.48329800  0.64151200  0.35436100  1
  Se  Se57  1  0.71550800  0.83113400  0.49628200  1
  Se  Se58  1  0.68849600  0.90890500  0.67558300  1
  Se  Se59  1  0.27878800  0.84695600  0.85774300  1
  Se  Se60  1  0.15276300  0.89665900  0.69295900  1
  Se  Se61  1  0.55677900  0.91273600  0.17803000  1
  Se  Se62  1  0.70209900  0.84298100  0.21103300  1
  Se  Se63  1  0.11205800  0.88991900  0.18957000  1
  Se  Se64  1  0.81150400  0.40890500  0.32441700  1
  Se  Se65  1  0.32596400  0.08202300  0.96936400  1
  Se  Se66  1  0.96365100  0.33623800  0.00558300  1
  Se  Se67  1  0.67403600  0.91797700  0.03063600  1
  Se  Se68  1  0.88430800  0.17098800  0.14655600  1
  Se  Se69  1  0.84723700  0.10334100  0.30704100  1
  Se  Se70  1  0.20866800  0.33156000  0.35023900  1
  Se  Se71  1  0.18849600  0.59109500  0.67558300  1
  Se  Se72  1  0.38430800  0.32901200  0.14655600  1
  Se  Se73  1  0.88794200  0.11008100  0.81043000  1
  Se  Se74  1  0.64521500  0.66824900  0.35179300  1
  Se  Se75  1  0.22153900  0.32191100  0.93902600  1
  Se  Se76  1  0.70866800  0.16844000  0.35023900  1
  Se  Se77  1  0.72153900  0.17808900  0.93902600  1
  Se  Se78  1  0.79790100  0.34298100  0.78896700  1
  Se  Se79  1  0.38794200  0.38991900  0.81043000  1
  Se  Se80  1  0.11569200  0.82901200  0.85344400  1
  Se  Se81  1  0.77878800  0.65304400  0.85774300  1
  Se  Se82  1  0.27846100  0.82191100  0.06097400  1
  Se  Se83  1  0.77846100  0.67808900  0.06097400  1
  Se  Se84  1  0.87662300  0.10128600  0.48343700  1
  Se  Se85  1  0.12337700  0.89871400  0.51656300  1
  Se  Se86  1  0.29790100  0.15701900  0.78896700  1
  Se  Se87  1  0.85955300  0.11276200  0.98333800  1
  Se  Se88  1  0.98137500  0.84244400  0.56040700  1
  Se  Se89  1  0.53634900  0.83623800  0.99441700  1
  Se  Se90  1  0.78449200  0.33113400  0.50371800  1
  Se  Se91  1  0.34723700  0.39665900  0.30704100  1
  Se  Se92  1  0.61569200  0.67098800  0.85344400  1
  Se  Se93  1  0.14521500  0.83175100  0.35179300  1
  Se  Se94  1  0.37662300  0.39871400  0.48343700  1
  Se  Se95  1  0.51670200  0.35848800  0.64563900  1
  Se  Se96  1  0.04839700  0.66902400  0.71037600  1
  Se  Se97  1  0.46907400  0.66740300  0.14815400  1
  Se  Se98  1  0.53092600  0.33259700  0.85184600  1
  Se  Se99  1  0.01862500  0.15755600  0.43959300  1
  Se  Se100  1  0.45160300  0.16902400  0.28962400  1
  Se  Se101  1  0.95160300  0.33097600  0.28962400  1
  Se  Se102  1  0.48137500  0.65755600  0.56040700  1
  Se  Se103  1  0.46365100  0.16376200  0.00558300  1
  Br  Br104  1  0.36073900  0.81647100  0.25478200  1
  Br  Br105  1  0.80465600  0.40001300  0.14735100  1
  Br  Br106  1  0.12966400  0.31570900  0.54065600  1
  Br  Br107  1  0.13926100  0.31647100  0.74521800  1
  Br  Br108  1  0.30465600  0.09998700  0.14735100  1
  Br  Br109  1  0.88454900  0.83348900  0.95888800  1
  Br  Br110  1  0.94464900  0.39257700  0.64374400  1
  Br  Br111  1  0.11545100  0.16651100  0.04111200  1
  Br  Br112  1  0.44464900  0.10742300  0.64374400  1
  Br  Br113  1  0.87033600  0.68429100  0.45934400  1
  Br  Br114  1  0.05535100  0.60742300  0.35625600  1
  Br  Br115  1  0.38454900  0.66651100  0.95888800  1
  Br  Br116  1  0.62966400  0.18429100  0.54065600  1
  Br  Br117  1  0.89160200  0.82970200  0.75223300  1
  Br  Br118  1  0.61545100  0.33348900  0.04111200  1
  Br  Br119  1  0.86073900  0.68352900  0.25478200  1
  Br  Br120  1  0.69534400  0.90001300  0.85264900  1
  Br  Br121  1  0.39160200  0.67029800  0.75223300  1
  Br  Br122  1  0.10839800  0.17029800  0.24776700  1
  Br  Br123  1  0.19534400  0.59998700  0.85264900  1
  Br  Br124  1  0.37033600  0.81570900  0.45934400  1
  Br  Br125  1  0.55535100  0.89257700  0.35625600  1
  Br  Br126  1  0.63926100  0.18352900  0.74521800  1
  Br  Br127  1  0.60839800  0.32970200  0.24776700  1
