# generated using pymatgen
data_SbP2SN3Cl10
_symmetry_space_group_name_H-M   'P 1'
_cell_length_a   8.99715400
_cell_length_b   13.01560100
_cell_length_c   16.34346000
_cell_angle_alpha   90.00000000
_cell_angle_beta   90.00000000
_cell_angle_gamma   90.00000000
_symmetry_Int_Tables_number   1
_chemical_formula_structural   SbP2SN3Cl10
_chemical_formula_sum   'Sb4 P8 S4 N12 Cl40'
_cell_volume   1913.87418789
_cell_formula_units_Z   4
loop_
 _symmetry_equiv_pos_site_id
 _symmetry_equiv_pos_as_xyz
  1  'x, y, z'
loop_
 _atom_site_type_symbol
 _atom_site_label
 _atom_site_symmetry_multiplicity
 _atom_site_fract_x
 _atom_site_fract_y
 _atom_site_fract_z
 _atom_site_occupancy
  Sb  Sb0  1  0.50000000  0.50000000  0.50000000  1
  Sb  Sb1  1  0.50000000  0.50000000  0.00000000  1
  Sb  Sb2  1  0.00000000  0.00000000  0.50000000  1
  Sb  Sb3  1  0.00000000  0.00000000  0.00000000  1
  P  P4  1  0.97477600  0.62069900  0.75000000  1
  P  P5  1  0.02522400  0.37930100  0.25000000  1
  P  P6  1  0.54684200  0.09075700  0.25000000  1
  P  P7  1  0.52522400  0.12069900  0.75000000  1
  P  P8  1  0.47477600  0.87930100  0.25000000  1
  P  P9  1  0.45315800  0.90924300  0.75000000  1
  P  P10  1  0.95315800  0.59075700  0.25000000  1
  P  P11  1  0.04684200  0.40924300  0.75000000  1
  S  S12  1  0.27575600  0.55749300  0.75000000  1
  S  S13  1  0.77575600  0.94250700  0.25000000  1
  S  S14  1  0.22424400  0.05749300  0.75000000  1
  S  S15  1  0.72424400  0.44250700  0.25000000  1
  N  N16  1  0.72420200  0.05683300  0.25000000  1
  N  N17  1  0.06613400  0.49774800  0.25000000  1
  N  N18  1  0.93386600  0.50225200  0.75000000  1
  N  N19  1  0.43386600  0.99774800  0.25000000  1
  N  N20  1  0.34388900  0.14368000  0.75000000  1
  N  N21  1  0.84388900  0.35632000  0.25000000  1
  N  N22  1  0.15611100  0.64368000  0.75000000  1
  N  N23  1  0.56613400  0.00225200  0.75000000  1
  N  N24  1  0.27579800  0.94316700  0.75000000  1
  N  N25  1  0.22420200  0.44316700  0.75000000  1
  N  N26  1  0.65611100  0.85632000  0.25000000  1
  N  N27  1  0.77579800  0.55683300  0.25000000  1
  Cl  Cl28  1  0.12423200  0.83597900  0.51300900  1
  Cl  Cl29  1  0.39184200  0.80803800  0.15373800  1
  Cl  Cl30  1  0.87576800  0.16402100  0.01300900  1
  Cl  Cl31  1  0.27420900  0.58698300  0.95441900  1
  Cl  Cl32  1  0.37576800  0.33597900  0.51300900  1
  Cl  Cl33  1  0.51765400  0.18120000  0.15382600  1
  Cl  Cl34  1  0.77420900  0.91301700  0.04558100  1
  Cl  Cl35  1  0.10815800  0.30803800  0.34626200  1
  Cl  Cl36  1  0.62423200  0.66402100  0.48699100  1
  Cl  Cl37  1  0.89184200  0.69196200  0.65373800  1
  Cl  Cl38  1  0.60815800  0.19196200  0.84626200  1
  Cl  Cl39  1  0.58544100  0.48710700  0.86030200  1
  Cl  Cl40  1  0.22579100  0.08698300  0.54558100  1
  Cl  Cl41  1  0.01765400  0.31880000  0.65382600  1
  Cl  Cl42  1  0.77420900  0.91301700  0.45441900  1
  Cl  Cl43  1  0.48234600  0.81880000  0.65382600  1
  Cl  Cl44  1  0.91455900  0.98710700  0.63969800  1
  Cl  Cl45  1  0.91455900  0.98710700  0.86030200  1
  Cl  Cl46  1  0.08544100  0.01289300  0.36030200  1
  Cl  Cl47  1  0.72579100  0.41301700  0.04558100  1
  Cl  Cl48  1  0.08544100  0.01289300  0.13969800  1
  Cl  Cl49  1  0.48234600  0.81880000  0.84617400  1
  Cl  Cl50  1  0.41455900  0.51289300  0.36030200  1
  Cl  Cl51  1  0.01765400  0.31880000  0.84617400  1
  Cl  Cl52  1  0.22579100  0.08698300  0.95441900  1
  Cl  Cl53  1  0.89184200  0.69196200  0.84626200  1
  Cl  Cl54  1  0.98234600  0.68120000  0.15382600  1
  Cl  Cl55  1  0.72579100  0.41301700  0.45441900  1
  Cl  Cl56  1  0.39184200  0.80803800  0.34626200  1
  Cl  Cl57  1  0.58544100  0.48710700  0.63969800  1
  Cl  Cl58  1  0.87576800  0.16402100  0.48699100  1
  Cl  Cl59  1  0.41455900  0.51289300  0.13969800  1
  Cl  Cl60  1  0.27420900  0.58698300  0.54558100  1
  Cl  Cl61  1  0.51765400  0.18120000  0.34617400  1
  Cl  Cl62  1  0.37576800  0.33597900  0.98699100  1
  Cl  Cl63  1  0.62423200  0.66402100  0.01300900  1
  Cl  Cl64  1  0.10815800  0.30803800  0.15373800  1
  Cl  Cl65  1  0.60815800  0.19196200  0.65373800  1
  Cl  Cl66  1  0.98234600  0.68120000  0.34617400  1
  Cl  Cl67  1  0.12423200  0.83597900  0.98699100  1
