# generated using pymatgen
data_SiO2
_symmetry_space_group_name_H-M   'P 1'
_cell_length_a   9.81530600
_cell_length_b   26.03752000
_cell_length_c   8.47679100
_cell_angle_alpha   90.00000000
_cell_angle_beta   90.00000000
_cell_angle_gamma   90.00000000
_symmetry_Int_Tables_number   1
_chemical_formula_structural   SiO2
_chemical_formula_sum   'Si40 O80'
_cell_volume   2166.38148684
_cell_formula_units_Z   40
loop_
 _symmetry_equiv_pos_site_id
 _symmetry_equiv_pos_as_xyz
  1  'x, y, z'
loop_
 _atom_site_type_symbol
 _atom_site_label
 _atom_site_symmetry_multiplicity
 _atom_site_fract_x
 _atom_site_fract_y
 _atom_site_fract_z
 _atom_site_occupancy
  Si  Si0  1  0.20669000  0.35942400  0.56188400  1
  Si  Si1  1  0.70669000  0.14057600  0.43811600  1
  Si  Si2  1  0.79331000  0.35942400  0.93811600  1
  Si  Si3  1  0.29331000  0.14057600  0.06188400  1
  Si  Si4  1  0.29331000  0.14057600  0.43811600  1
  Si  Si5  1  0.79331000  0.35942400  0.56188400  1
  Si  Si6  1  0.70669000  0.14057600  0.06188400  1
  Si  Si7  1  0.20669000  0.35942400  0.93811600  1
  Si  Si8  1  0.50000000  0.05875700  0.55919200  1
  Si  Si9  1  0.00000000  0.44124300  0.44080800  1
  Si  Si10  1  0.50000000  0.05875700  0.94080800  1
  Si  Si11  1  0.00000000  0.44124300  0.05919200  1
  Si  Si12  1  0.50000000  0.22250900  0.56578200  1
  Si  Si13  1  0.00000000  0.27749100  0.43421800  1
  Si  Si14  1  0.50000000  0.22250900  0.93421800  1
  Si  Si15  1  0.00000000  0.27749100  0.06578200  1
  Si  Si16  1  0.00000000  0.16425300  0.56377300  1
  Si  Si17  1  0.50000000  0.33574700  0.43622700  1
  Si  Si18  1  0.00000000  0.16425300  0.93622700  1
  Si  Si19  1  0.50000000  0.33574700  0.06377300  1
  Si  Si20  1  0.70669000  0.85942400  0.56188400  1
  Si  Si21  1  0.20669000  0.64057600  0.43811600  1
  Si  Si22  1  0.29331000  0.85942400  0.93811600  1
  Si  Si23  1  0.79331000  0.64057600  0.06188400  1
  Si  Si24  1  0.79331000  0.64057600  0.43811600  1
  Si  Si25  1  0.29331000  0.85942400  0.56188400  1
  Si  Si26  1  0.20669000  0.64057600  0.06188400  1
  Si  Si27  1  0.70669000  0.85942400  0.93811600  1
  Si  Si28  1  0.00000000  0.55875700  0.55919200  1
  Si  Si29  1  0.50000000  0.94124300  0.44080800  1
  Si  Si30  1  0.00000000  0.55875700  0.94080800  1
  Si  Si31  1  0.50000000  0.94124300  0.05919200  1
  Si  Si32  1  0.00000000  0.72250900  0.56578200  1
  Si  Si33  1  0.50000000  0.77749100  0.43421800  1
  Si  Si34  1  0.00000000  0.72250900  0.93421800  1
  Si  Si35  1  0.50000000  0.77749100  0.06578200  1
  Si  Si36  1  0.50000000  0.66425300  0.56377300  1
  Si  Si37  1  0.00000000  0.83574700  0.43622700  1
  Si  Si38  1  0.50000000  0.66425300  0.93622700  1
  Si  Si39  1  0.00000000  0.83574700  0.06377300  1
  O  O40  1  0.18629100  0.35121400  0.75000000  1
  O  O41  1  0.68629100  0.14878600  0.25000000  1
  O  O42  1  0.81370900  0.35121400  0.75000000  1
  O  O43  1  0.31370900  0.14878600  0.25000000  1
  O  O44  1  0.36712950  0.36129350  0.51890100  1
  O  O45  1  0.86712950  0.13870650  0.48109900  1
  O  O46  1  0.63287050  0.36129350  0.98109900  1
  O  O47  1  0.13287050  0.13870650  0.01890100  1
  O  O48  1  0.13287050  0.13870650  0.48109900  1
  O  O49  1  0.63287050  0.36129350  0.51890100  1
  O  O50  1  0.86712950  0.13870650  0.01890100  1
  O  O51  1  0.36712950  0.36129350  0.98109900  1
  O  O52  1  0.13605300  0.31133200  0.46969300  1
  O  O53  1  0.63605300  0.18866800  0.53030700  1
  O  O54  1  0.86394700  0.31133200  0.03030700  1
  O  O55  1  0.36394700  0.18866800  0.96969300  1
  O  O56  1  0.36394700  0.18866800  0.53030700  1
  O  O57  1  0.86394700  0.31133200  0.46969300  1
  O  O58  1  0.63605300  0.18866800  0.96969300  1
  O  O59  1  0.13605300  0.31133200  0.03030700  1
  O  O60  1  0.13653700  0.41326800  0.50843200  1
  O  O61  1  0.63653700  0.08673200  0.49156800  1
  O  O62  1  0.86346300  0.41326800  0.99156800  1
  O  O63  1  0.36346300  0.08673200  0.00843200  1
  O  O64  1  0.36346300  0.08673200  0.49156800  1
  O  O65  1  0.86346300  0.41326800  0.50843200  1
  O  O66  1  0.63653700  0.08673200  0.00843200  1
  O  O67  1  0.13653700  0.41326800  0.99156800  1
  O  O68  1  0.50000000  0.00000000  0.50000000  1
  O  O69  1  0.50000000  0.00000000  0.00000000  1
  O  O70  1  0.50000000  0.06154000  0.75000000  1
  O  O71  1  0.00000000  0.43846000  0.25000000  1
  O  O72  1  0.50000000  0.24004400  0.75000000  1
  O  O73  1  0.00000000  0.25995600  0.25000000  1
  O  O74  1  0.50000000  0.27359500  0.45689100  1
  O  O75  1  0.00000000  0.22640500  0.54310900  1
  O  O76  1  0.50000000  0.27359500  0.04310900  1
  O  O77  1  0.00000000  0.22640500  0.95689100  1
  O  O78  1  0.00000000  0.15072100  0.75000000  1
  O  O79  1  0.50000000  0.34927900  0.25000000  1
  O  O80  1  0.68629100  0.85121400  0.75000000  1
  O  O81  1  0.18629100  0.64878600  0.25000000  1
  O  O82  1  0.31370900  0.85121400  0.75000000  1
  O  O83  1  0.81370900  0.64878600  0.25000000  1
  O  O84  1  0.86712950  0.86129350  0.51890100  1
  O  O85  1  0.36712950  0.63870650  0.48109900  1
  O  O86  1  0.13287050  0.86129350  0.98109900  1
  O  O87  1  0.63287050  0.63870650  0.01890100  1
  O  O88  1  0.63287050  0.63870650  0.48109900  1
  O  O89  1  0.13287050  0.86129350  0.51890100  1
  O  O90  1  0.36712950  0.63870650  0.01890100  1
  O  O91  1  0.86712950  0.86129350  0.98109900  1
  O  O92  1  0.63605300  0.81133200  0.46969300  1
  O  O93  1  0.13605300  0.68866800  0.53030700  1
  O  O94  1  0.36394700  0.81133200  0.03030700  1
  O  O95  1  0.86394700  0.68866800  0.96969300  1
  O  O96  1  0.86394700  0.68866800  0.53030700  1
  O  O97  1  0.36394700  0.81133200  0.46969300  1
  O  O98  1  0.13605300  0.68866800  0.96969300  1
  O  O99  1  0.63605300  0.81133200  0.03030700  1
  O  O100  1  0.63653700  0.91326800  0.50843200  1
  O  O101  1  0.13653700  0.58673200  0.49156800  1
  O  O102  1  0.36346300  0.91326800  0.99156800  1
  O  O103  1  0.86346300  0.58673200  0.00843200  1
  O  O104  1  0.86346300  0.58673200  0.49156800  1
  O  O105  1  0.36346300  0.91326800  0.50843200  1
  O  O106  1  0.13653700  0.58673200  0.00843200  1
  O  O107  1  0.63653700  0.91326800  0.99156800  1
  O  O108  1  0.00000000  0.50000000  0.50000000  1
  O  O109  1  0.00000000  0.50000000  0.00000000  1
  O  O110  1  0.00000000  0.56154000  0.75000000  1
  O  O111  1  0.50000000  0.93846000  0.25000000  1
  O  O112  1  0.00000000  0.74004400  0.75000000  1
  O  O113  1  0.50000000  0.75995600  0.25000000  1
  O  O114  1  0.00000000  0.77359500  0.45689100  1
  O  O115  1  0.50000000  0.72640500  0.54310900  1
  O  O116  1  0.00000000  0.77359500  0.04310900  1
  O  O117  1  0.50000000  0.72640500  0.95689100  1
  O  O118  1  0.50000000  0.65072100  0.75000000  1
  O  O119  1  0.00000000  0.84927900  0.25000000  1
