# generated using pymatgen
data_LiV2(PO4)3
_symmetry_space_group_name_H-M   'P 1'
_cell_length_a   14.87916400
_cell_length_b   8.57031800
_cell_length_c   8.60070909
_cell_angle_alpha   90.00000000
_cell_angle_beta   124.02366400
_cell_angle_gamma   90.00000000
_symmetry_Int_Tables_number   1
_chemical_formula_structural   LiV2(PO4)3
_chemical_formula_sum   'Li4 V8 P12 O48'
_cell_volume   908.99793897
_cell_formula_units_Z   4
loop_
 _symmetry_equiv_pos_site_id
 _symmetry_equiv_pos_as_xyz
  1  'x, y, z'
loop_
 _atom_site_type_symbol
 _atom_site_label
 _atom_site_symmetry_multiplicity
 _atom_site_fract_x
 _atom_site_fract_y
 _atom_site_fract_z
 _atom_site_occupancy
  Li  Li0  1  0.30620650  0.66085750  0.94533500  1
  Li  Li1  1  0.30620650  0.33914250  0.44533500  1
  Li  Li2  1  0.80620650  0.16085750  0.94533500  1
  Li  Li3  1  0.80620650  0.83914250  0.44533500  1
  V  V4  1  0.39377450  0.24433550  0.92136500  1
  V  V5  1  0.39377450  0.75566450  0.42136500  1
  V  V6  1  0.10267850  0.25230650  0.07192700  1
  V  V7  1  0.10267850  0.74769350  0.57192700  1
  V  V8  1  0.89377450  0.74433550  0.92136500  1
  V  V9  1  0.89377450  0.25566450  0.42136500  1
  V  V10  1  0.60267850  0.75230650  0.07192700  1
  V  V11  1  0.60267850  0.24769350  0.57192700  1
  P  P12  1  0.13918750  0.38713350  0.74153400  1
  P  P13  1  0.36021650  0.11208450  0.25845000  1
  P  P14  1  0.49901400  0.53649300  0.24475100  1
  P  P15  1  0.49901400  0.46350700  0.74475100  1
  P  P16  1  0.36021650  0.88791550  0.75845000  1
  P  P17  1  0.13918750  0.61286650  0.24153400  1
  P  P18  1  0.63918750  0.88713350  0.74153400  1
  P  P19  1  0.86021650  0.61208450  0.25845000  1
  P  P20  1  0.99901400  0.03649300  0.24475100  1
  P  P21  1  0.99901400  0.96350700  0.74475100  1
  P  P22  1  0.86021650  0.38791550  0.75845000  1
  P  P23  1  0.63918750  0.11286650  0.24153400  1
  O  O24  1  0.08308200  0.14193900  0.24183200  1
  O  O25  1  0.04341050  0.67134450  0.05045600  1
  O  O26  1  0.15893300  0.56556900  0.74630600  1
  O  O27  1  0.11891300  0.64443800  0.39780100  1
  O  O28  1  0.37952250  0.85938650  0.60446500  1
  O  O29  1  0.24239500  0.30612000  0.78592100  1
  O  O30  1  0.37952250  0.14061350  0.10446500  1
  O  O31  1  0.25947750  0.19756350  0.22489300  1
  O  O32  1  0.43529550  0.56036650  0.55971300  1
  O  O33  1  0.25947750  0.80243650  0.72489300  1
  O  O34  1  0.06036700  0.06123500  0.92122300  1
  O  O35  1  0.11891300  0.35556200  0.89780100  1
  O  O36  1  0.34688650  0.93335550  0.26616600  1
  O  O37  1  0.43529550  0.43963350  0.05971300  1
  O  O38  1  0.40870400  0.64036700  0.23139500  1
  O  O39  1  0.06036700  0.93876500  0.42122300  1
  O  O40  1  0.34688650  0.06664450  0.76616600  1
  O  O41  1  0.08308200  0.85806100  0.74183200  1
  O  O42  1  0.24239500  0.69388000  0.28592100  1
  O  O43  1  0.45322150  0.17491350  0.45038000  1
  O  O44  1  0.45322150  0.82508650  0.95038000  1
  O  O45  1  0.15893300  0.43443100  0.24630600  1
  O  O46  1  0.04341050  0.32865550  0.55045600  1
  O  O47  1  0.40870400  0.35963300  0.73139500  1
  O  O48  1  0.58308200  0.64193900  0.24183200  1
  O  O49  1  0.54341050  0.17134450  0.05045600  1
  O  O50  1  0.65893300  0.06556900  0.74630600  1
  O  O51  1  0.61891300  0.14443800  0.39780100  1
  O  O52  1  0.87952250  0.35938650  0.60446500  1
  O  O53  1  0.74239500  0.80612000  0.78592100  1
  O  O54  1  0.87952250  0.64061350  0.10446500  1
  O  O55  1  0.75947750  0.69756350  0.22489300  1
  O  O56  1  0.93529550  0.06036650  0.55971300  1
  O  O57  1  0.75947750  0.30243650  0.72489300  1
  O  O58  1  0.56036700  0.56123500  0.92122300  1
  O  O59  1  0.61891300  0.85556200  0.89780100  1
  O  O60  1  0.84688650  0.43335550  0.26616600  1
  O  O61  1  0.93529550  0.93963350  0.05971300  1
  O  O62  1  0.90870400  0.14036700  0.23139500  1
  O  O63  1  0.56036700  0.43876500  0.42122300  1
  O  O64  1  0.84688650  0.56664450  0.76616600  1
  O  O65  1  0.58308200  0.35806100  0.74183200  1
  O  O66  1  0.74239500  0.19388000  0.28592100  1
  O  O67  1  0.95322150  0.67491350  0.45038000  1
  O  O68  1  0.95322150  0.32508650  0.95038000  1
  O  O69  1  0.65893300  0.93443100  0.24630600  1
  O  O70  1  0.54341050  0.82865550  0.55045600  1
  O  O71  1  0.90870400  0.85963300  0.73139500  1
