# generated using pymatgen
data_H2SO4
_symmetry_space_group_name_H-M   'P 1'
_cell_length_a   8.18231800
_cell_length_b   4.81730400
_cell_length_c   9.08371579
_cell_angle_alpha   90.00000000
_cell_angle_beta   110.65283446
_cell_angle_gamma   90.00000000
_symmetry_Int_Tables_number   1
_chemical_formula_structural   H2SO4
_chemical_formula_sum   'H8 S4 O16'
_cell_volume   335.04001279
_cell_formula_units_Z   4
loop_
 _symmetry_equiv_pos_site_id
 _symmetry_equiv_pos_as_xyz
  1  'x, y, z'
loop_
 _atom_site_type_symbol
 _atom_site_label
 _atom_site_symmetry_multiplicity
 _atom_site_fract_x
 _atom_site_fract_y
 _atom_site_fract_z
 _atom_site_occupancy
  H  H0  1  0.08265000  0.61631200  0.60971200  1
  H  H1  1  0.58265000  0.88368800  0.10971200  1
  H  H2  1  0.75951750  0.48710650  0.83173200  1
  H  H3  1  0.75951750  0.51289350  0.33173200  1
  H  H4  1  0.58265000  0.11631200  0.60971200  1
  H  H5  1  0.08265000  0.38368800  0.10971200  1
  H  H6  1  0.25951750  0.98710650  0.83173200  1
  H  H7  1  0.25951750  0.01289350  0.33173200  1
  S  S8  1  0.98224250  0.88952650  0.74473200  1
  S  S9  1  0.48224250  0.61047350  0.24473200  1
  S  S10  1  0.48224250  0.38952650  0.74473200  1
  S  S11  1  0.98224250  0.11047350  0.24473200  1
  O  O12  1  0.99986050  0.68266250  0.86344600  1
  O  O13  1  0.98221650  0.74569950  0.58821700  1
  O  O14  1  0.48221650  0.75430050  0.08821700  1
  O  O15  1  0.49986050  0.81733750  0.36344600  1
  O  O16  1  0.64615300  0.58587000  0.79532600  1
  O  O17  1  0.83572750  0.07544050  0.69707200  1
  O  O18  1  0.83572750  0.92455950  0.19707200  1
  O  O19  1  0.64615300  0.41413000  0.29532600  1
  O  O20  1  0.49986050  0.18266250  0.86344600  1
  O  O21  1  0.48221650  0.24569950  0.58821700  1
  O  O22  1  0.98221650  0.25430050  0.08821700  1
  O  O23  1  0.99986050  0.31733750  0.36344600  1
  O  O24  1  0.14615300  0.08587000  0.79532600  1
  O  O25  1  0.33572750  0.57544050  0.69707200  1
  O  O26  1  0.33572750  0.42455950  0.19707200  1
  O  O27  1  0.14615300  0.91413000  0.29532600  1
