# generated using pymatgen
data_Fe2P3O13
_symmetry_space_group_name_H-M   'P 1'
_cell_length_a   6.37098100
_cell_length_b   7.75776525
_cell_length_c   11.11374571
_cell_angle_alpha   74.14051325
_cell_angle_beta   86.18778713
_cell_angle_gamma   79.21739984
_symmetry_Int_Tables_number   1
_chemical_formula_structural   Fe2P3O13
_chemical_formula_sum   'Fe4 P6 O26'
_cell_volume   518.98557412
_cell_formula_units_Z   2
loop_
 _symmetry_equiv_pos_site_id
 _symmetry_equiv_pos_as_xyz
  1  'x, y, z'
loop_
 _atom_site_type_symbol
 _atom_site_label
 _atom_site_symmetry_multiplicity
 _atom_site_fract_x
 _atom_site_fract_y
 _atom_site_fract_z
 _atom_site_occupancy
  Fe  Fe0  1  0.75821500  0.72718600  0.40630000  1
  Fe  Fe1  1  0.24178500  0.27281400  0.59370000  1
  Fe  Fe2  1  0.80597200  0.80692800  0.88793600  1
  Fe  Fe3  1  0.19402800  0.19307200  0.11206400  1
  P  P4  1  0.27840600  0.93779600  0.88267000  1
  P  P5  1  0.76372400  0.20525000  0.66046200  1
  P  P6  1  0.88072500  0.52334100  0.69992100  1
  P  P7  1  0.72159400  0.06220400  0.11733000  1
  P  P8  1  0.23627600  0.79475000  0.33953800  1
  P  P9  1  0.11927500  0.47665900  0.30007900  1
  O  O10  1  0.74072200  0.92157600  0.24385900  1
  O  O11  1  0.25601200  0.03291300  0.98966600  1
  O  O12  1  0.11370200  0.47321400  0.65717900  1
  O  O13  1  0.21016800  0.66849900  0.24934200  1
  O  O14  1  0.13269500  0.40226900  0.18655100  1
  O  O15  1  0.55049500  0.28122300  0.59551000  1
  O  O16  1  0.76821000  0.01080600  0.74065400  1
  O  O17  1  0.58232800  0.01067000  0.46917800  1
  O  O18  1  0.74398800  0.96708700  0.01033400  1
  O  O19  1  0.25927800  0.07842400  0.75614100  1
  O  O20  1  0.50707500  0.20021300  0.10810700  1
  O  O21  1  0.26047700  0.35749900  0.40822100  1
  O  O22  1  0.88629800  0.52678600  0.34282100  1
  O  O23  1  0.49292500  0.79978700  0.89189300  1
  O  O24  1  0.86730500  0.59773100  0.81344900  1
  O  O25  1  0.41767200  0.98933000  0.53082200  1
  O  O26  1  0.11369400  0.80787000  0.90160400  1
  O  O27  1  0.44950500  0.71877700  0.40449000  1
  O  O28  1  0.88630600  0.19213000  0.09839600  1
  O  O29  1  0.23179000  0.98919400  0.25934600  1
  O  O30  1  0.23458400  0.34975700  0.93719000  1
  O  O31  1  0.76541600  0.65024300  0.06281000  1
  O  O32  1  0.78983200  0.33150100  0.75065800  1
  O  O33  1  0.95476900  0.21062500  0.56905500  1
  O  O34  1  0.04523100  0.78937500  0.43094500  1
  O  O35  1  0.73952300  0.64250100  0.59177900  1
