# generated using pymatgen
data_Na8Al6Si6O25
_symmetry_space_group_name_H-M   'P 1'
_cell_length_a   12.76639327
_cell_length_b   12.76639327
_cell_length_c   15.57479786
_cell_angle_alpha   90.00000000
_cell_angle_beta   90.00000000
_cell_angle_gamma   120.00000000
_symmetry_Int_Tables_number   1
_chemical_formula_structural   Na8Al6Si6O25
_chemical_formula_sum   'Na24 Al18 Si18 O75'
_cell_volume   2198.31279547
_cell_formula_units_Z   3
loop_
 _symmetry_equiv_pos_site_id
 _symmetry_equiv_pos_as_xyz
  1  'x, y, z'
loop_
 _atom_site_type_symbol
 _atom_site_label
 _atom_site_symmetry_multiplicity
 _atom_site_fract_x
 _atom_site_fract_y
 _atom_site_fract_z
 _atom_site_occupancy
  Na  Na0  1  0.23416033  0.76502167  0.61034667  1
  Na  Na1  1  0.00000000  0.00000000  0.14504900  1
  Na  Na2  1  0.27451933  0.13688567  0.43279467  1
  Na  Na3  1  0.86236633  0.72548067  0.43279467  1
  Na  Na4  1  0.86311433  0.13763367  0.43279467  1
  Na  Na5  1  0.00000000  0.00000000  0.74375600  1
  Na  Na6  1  0.23497833  0.46913867  0.61034667  1
  Na  Na7  1  0.53086133  0.76583967  0.61034667  1
  Na  Na8  1  0.90082700  0.09835500  0.94368000  1
  Na  Na9  1  0.66666667  0.33333333  0.47838233  1
  Na  Na10  1  0.94118600  0.47021900  0.76612800  1
  Na  Na11  1  0.52903300  0.05881400  0.76612800  1
  Na  Na12  1  0.52978100  0.47096700  0.76612800  1
  Na  Na13  1  0.66666667  0.33333333  0.07708933  1
  Na  Na14  1  0.90164500  0.80247200  0.94368000  1
  Na  Na15  1  0.19752800  0.09917300  0.94368000  1
  Na  Na16  1  0.56749367  0.43168833  0.27701333  1
  Na  Na17  1  0.33333333  0.66666667  0.81171567  1
  Na  Na18  1  0.60785267  0.80355233  0.09946133  1
  Na  Na19  1  0.19569967  0.39214733  0.09946133  1
  Na  Na20  1  0.19644767  0.80430033  0.09946133  1
  Na  Na21  1  0.33333333  0.66666667  0.41042267  1
  Na  Na22  1  0.56831167  0.13580533  0.27701333  1
  Na  Na23  1  0.86419467  0.43250633  0.27701333  1
  Al  Al24  1  0.00059067  0.25172233  0.74798033  1
  Al  Al25  1  0.25035000  0.24888900  0.24931000  1
  Al  Al26  1  0.75111100  0.00146100  0.24931000  1
  Al  Al27  1  0.25113167  0.99940933  0.74798033  1
  Al  Al28  1  0.74827767  0.74886833  0.74798033  1
  Al  Al29  1  0.99853900  0.74965000  0.24931000  1
  Al  Al30  1  0.66725733  0.58505567  0.08131367  1
  Al  Al31  1  0.91701667  0.58222233  0.58264333  1
  Al  Al32  1  0.41777767  0.33479433  0.58264333  1
  Al  Al33  1  0.91779833  0.33274267  0.08131367  1
  Al  Al34  1  0.41494433  0.08220167  0.08131367  1
  Al  Al35  1  0.66520567  0.08298333  0.58264333  1
  Al  Al36  1  0.33392400  0.91838900  0.41464700  1
  Al  Al37  1  0.58368333  0.91555567  0.91597667  1
  Al  Al38  1  0.08444433  0.66812767  0.91597667  1
  Al  Al39  1  0.58446500  0.66607600  0.41464700  1
  Al  Al40  1  0.08161100  0.41553500  0.41464700  1
  Al  Al41  1  0.33187233  0.41631667  0.91597667  1
  Si  Si42  1  0.08178000  0.66662900  0.41562000  1
  Si  Si43  1  0.41712000  0.08364800  0.58147500  1
  Si  Si44  1  0.66652800  0.58288000  0.58147500  1
  Si  Si45  1  0.33337100  0.41515100  0.41562000  1
  Si  Si46  1  0.58484900  0.91822000  0.41562000  1
  Si  Si47  1  0.91635200  0.33347200  0.58147500  1
  Si  Si48  1  0.74844667  0.99996233  0.74895333  1
  Si  Si49  1  0.08378667  0.41698133  0.91480833  1
  Si  Si50  1  0.33319467  0.91621333  0.91480833  1
  Si  Si51  1  0.00003767  0.74848433  0.74895333  1
  Si  Si52  1  0.25151567  0.25155333  0.74895333  1
  Si  Si53  1  0.58301867  0.66680533  0.91480833  1
  Si  Si54  1  0.41511333  0.33329567  0.08228667  1
  Si  Si55  1  0.75045333  0.75031467  0.24814167  1
  Si  Si56  1  0.99986133  0.24954667  0.24814167  1
  Si  Si57  1  0.66670433  0.08181767  0.08228667  1
  Si  Si58  1  0.91818233  0.58488667  0.08228667  1
  Si  Si59  1  0.24968533  0.00013867  0.24814167  1
  O  O60  1  0.00152033  0.70654667  0.35587067  1
  O  O61  1  0.29003133  0.00160467  0.34841967  1
  O  O62  1  0.04184233  0.66666867  0.51545567  1
  O  O63  1  0.19570733  0.09283267  0.24097767  1
  O  O64  1  0.33620933  0.96582167  0.52094867  1
  O  O65  1  0.89712533  0.80429267  0.24097767  1
  O  O66  1  0.38944233  0.19065467  0.55137267  1
  O  O67  1  0.71157333  0.70996867  0.34841967  1
  O  O68  1  0.29345333  0.29497367  0.35587067  1
  O  O69  1  0.80121233  0.61055767  0.55137267  1
  O  O70  1  0.13217767  0.85728033  0.71660833  1
  O  O71  1  0.90716733  0.10287467  0.24097767  1
  O  O72  1  0.33333133  0.37517367  0.51545567  1
  O  O73  1  0.62961233  0.66379067  0.52094867  1
  O  O74  1  0.90349933  0.79819367  0.74196967  1
  O  O75  1  0.99839533  0.28842667  0.34841967  1
  O  O76  1  0.20180633  0.10530567  0.74196967  1
  O  O77  1  0.70502633  0.99847967  0.35587067  1
  O  O78  1  0.14271967  0.27489733  0.71660833  1
  O  O79  1  0.62482633  0.95815767  0.51545567  1
  O  O80  1  0.72510267  0.86782233  0.71660833  1
  O  O81  1  0.03417833  0.37038767  0.52094867  1
  O  O82  1  0.89469433  0.09650067  0.74196967  1
  O  O83  1  0.80934533  0.19878767  0.55137267  1
  O  O84  1  0.00000000  0.00000000  0.98508600  1
  O  O85  1  0.66818700  0.03988000  0.68920400  1
  O  O86  1  0.95669800  0.33493800  0.68175300  1
  O  O87  1  0.70850900  0.00000200  0.84878900  1
  O  O88  1  0.86237400  0.42616600  0.57431100  1
  O  O89  1  0.00287600  0.29915500  0.85428200  1
  O  O90  1  0.56379200  0.13762600  0.57431100  1
  O  O91  1  0.05610900  0.52398800  0.88470600  1
  O  O92  1  0.37824000  0.04330200  0.68175300  1
  O  O93  1  0.96012000  0.62830700  0.68920400  1
  O  O94  1  0.46787900  0.94389100  0.88470600  1
  O  O95  1  0.79884433  0.19061367  0.04994167  1
  O  O96  1  0.57383400  0.43620800  0.57431100  1
  O  O97  1  0.99999800  0.70850700  0.84878900  1
  O  O98  1  0.29627900  0.99712400  0.85428200  1
  O  O99  1  0.57016600  0.13152700  0.07530300  1
  O  O100  1  0.66506200  0.62176000  0.68175300  1
  O  O101  1  0.86847300  0.43863900  0.07530300  1
  O  O102  1  0.37169300  0.33181300  0.68920400  1
  O  O103  1  0.80938633  0.60823067  0.04994167  1
  O  O104  1  0.29149300  0.29149100  0.84878900  1
  O  O105  1  0.39176933  0.20115567  0.04994167  1
  O  O106  1  0.70084500  0.70372100  0.85428200  1
  O  O107  1  0.56136100  0.42983400  0.07530300  1
  O  O108  1  0.47601200  0.53212100  0.88470600  1
  O  O109  1  0.66666667  0.33333333  0.31841933  1
  O  O110  1  0.33485367  0.37321333  0.02253733  1
  O  O111  1  0.62336467  0.66827133  0.01508633  1
  O  O112  1  0.37517567  0.33333533  0.18212233  1
  O  O113  1  0.52904067  0.75949933  0.90764433  1
  O  O114  1  0.66954267  0.63248833  0.18761533  1
  O  O115  1  0.23045867  0.47095933  0.90764433  1
  O  O116  1  0.72277567  0.85732133  0.21803933  1
  O  O117  1  0.04490667  0.37663533  0.01508633  1
  O  O118  1  0.62678667  0.96164033  0.02253733  1
  O  O119  1  0.13454567  0.27722433  0.21803933  1
  O  O120  1  0.46551100  0.52394700  0.38327500  1
  O  O121  1  0.24050067  0.76954133  0.90764433  1
  O  O122  1  0.66666467  0.04184033  0.18212233  1
  O  O123  1  0.96294567  0.33045733  0.18761533  1
  O  O124  1  0.23683267  0.46486033  0.40863633  1
  O  O125  1  0.33172867  0.95509333  0.01508633  1
  O  O126  1  0.53513967  0.77197233  0.40863633  1
  O  O127  1  0.03835967  0.66514633  0.02253733  1
  O  O128  1  0.47605300  0.94156400  0.38327500  1
  O  O129  1  0.95815967  0.62482433  0.18212233  1
  O  O130  1  0.05843600  0.53448900  0.38327500  1
  O  O131  1  0.36751167  0.03705433  0.18761533  1
  O  O132  1  0.22802767  0.76316733  0.40863633  1
  O  O133  1  0.14267867  0.86545433  0.21803933  1
  O  O134  1  0.33333333  0.66666667  0.65175267  1
