# generated using pymatgen
data_TiNiO3
_symmetry_space_group_name_H-M   'P 1'
_cell_length_a   5.06260200
_cell_length_b   5.48929790
_cell_length_c   21.01008739
_cell_angle_alpha   94.29600298
_cell_angle_beta   89.87375336
_cell_angle_gamma   117.36196545
_symmetry_Int_Tables_number   1
_chemical_formula_structural   TiNiO3
_chemical_formula_sum   'Ti10 Ni10 O30'
_cell_volume   516.75037337
_cell_formula_units_Z   10
loop_
 _symmetry_equiv_pos_site_id
 _symmetry_equiv_pos_as_xyz
  1  'x, y, z'
loop_
 _atom_site_type_symbol
 _atom_site_label
 _atom_site_symmetry_multiplicity
 _atom_site_fract_x
 _atom_site_fract_y
 _atom_site_fract_z
 _atom_site_occupancy
  Ti  Ti0  1  0.60604400  0.20671000  0.22878600  1
  Ti  Ti1  1  0.00060600  0.00145500  0.42737400  1
  Ti  Ti2  1  0.20700300  0.40362800  0.16789100  1
  Ti  Ti3  1  0.40104700  0.80270700  0.62711700  1
  Ti  Ti4  1  0.60002400  0.19865400  0.37023500  1
  Ti  Ti5  1  0.80286600  0.60844800  0.82889000  1
  Ti  Ti6  1  0.00034100  0.99987900  0.56988400  1
  Ti  Ti7  1  0.40432800  0.80260700  0.76984000  1
  Ti  Ti8  1  0.51337500  0.04295000  0.93549700  1
  Ti  Ti9  1  0.79454500  0.61342700  0.97620400  1
  Ni  Ni10  1  0.21483400  0.42656000  0.03194700  1
  Ni  Ni11  1  0.49015300  0.99494300  0.07444700  1
  Ni  Ni12  1  0.89216700  0.78058800  0.26966400  1
  Ni  Ni13  1  0.92054600  0.83355700  0.13311500  1
  Ni  Ni14  1  0.28998400  0.57982200  0.46902600  1
  Ni  Ni15  1  0.30783500  0.61743000  0.32850800  1
  Ni  Ni16  1  0.69148400  0.38160300  0.66968400  1
  Ni  Ni17  1  0.70907100  0.41897500  0.52907100  1
  Ni  Ni18  1  0.09707200  0.19180300  0.86966300  1
  Ni  Ni19  1  0.10900600  0.22116400  0.72920000  1
  O  O20  1  0.23531400  0.17580800  0.09285800  1
  O  O21  1  0.74846100  0.11032200  0.15447600  1
  O  O22  1  0.77471100  0.25959300  0.00597400  1
  O  O23  1  0.61315000  0.55566200  0.19074900  1
  O  O24  1  0.67557000  0.72151900  0.04724800  1
  O  O25  1  0.62808800  0.97534400  0.28908400  1
  O  O26  1  0.17586000  0.64259700  0.11363900  1
  O  O27  1  0.14509700  0.90399000  0.35435500  1
  O  O28  1  0.19619800  0.05309100  0.21337000  1
  O  O29  1  0.00971500  0.34898300  0.39042200  1
  O  O30  1  0.05270900  0.49151100  0.24609700  1
  O  O31  1  0.02759100  0.77516100  0.48886700  1
  O  O32  1  0.57437200  0.43108300  0.31402300  1
  O  O33  1  0.54482600  0.70434000  0.55402900  1
  O  O34  1  0.59187400  0.84858300  0.41123000  1
  O  O35  1  0.40997100  0.14964500  0.59038900  1
  O  O36  1  0.45216200  0.29206400  0.44637700  1
  O  O37  1  0.42760800  0.57688400  0.68890600  1
  O  O38  1  0.97315600  0.23088300  0.51375100  1
  O  O39  1  0.94852900  0.51227300  0.75537100  1
  O  O40  1  0.99192200  0.64887100  0.61124100  1
  O  O41  1  0.81302500  0.95367700  0.78991800  1
  O  O42  1  0.85243100  0.09280900  0.64625000  1
  O  O43  1  0.83331600  0.37871100  0.88636500  1
  O  O44  1  0.37428100  0.03258800  0.71381400  1
  O  O45  1  0.36981900  0.31558700  0.94858700  1
  O  O46  1  0.39708100  0.45356700  0.81052200  1
  O  O47  1  0.22576400  0.78363200  0.98374200  1
  O  O48  1  0.26970400  0.90357400  0.84926900  1
  O  O49  1  0.76418800  0.84837800  0.91429300  1
