# generated using pymatgen
data_Cs(Bi2Te3)2
_symmetry_space_group_name_H-M   'P 1'
_cell_length_a   52.60958485
_cell_length_b   4.45979200
_cell_length_c   14.63098208
_cell_angle_alpha   90.00000000
_cell_angle_beta   101.15587545
_cell_angle_gamma   90.00000000
_symmetry_Int_Tables_number   1
_chemical_formula_structural   Cs(Bi2Te3)2
_chemical_formula_sum   'Cs8 Bi32 Te48'
_cell_volume   3367.96990222
_cell_formula_units_Z   8
loop_
 _symmetry_equiv_pos_site_id
 _symmetry_equiv_pos_as_xyz
  1  'x, y, z'
loop_
 _atom_site_type_symbol
 _atom_site_label
 _atom_site_symmetry_multiplicity
 _atom_site_fract_x
 _atom_site_fract_y
 _atom_site_fract_z
 _atom_site_occupancy
  Cs  Cs0  1  0.18621600  0.50000000  0.51593000  1
  Cs  Cs1  1  0.05354700  0.00000000  0.51024100  1
  Cs  Cs2  1  0.44514500  0.50000000  0.49180800  1
  Cs  Cs3  1  0.31157100  0.00000000  0.48294300  1
  Cs  Cs4  1  0.68621600  0.00000000  0.51593000  1
  Cs  Cs5  1  0.55354700  0.50000000  0.51024100  1
  Cs  Cs6  1  0.94514500  0.00000000  0.49180800  1
  Cs  Cs7  1  0.81157100  0.50000000  0.48294300  1
  Bi  Bi8  1  0.16217750  0.00000000  0.09182200  1
  Bi  Bi9  1  0.21165050  0.50000000  0.91173300  1
  Bi  Bi10  1  0.40996250  0.00000000  0.06159300  1
  Bi  Bi11  1  0.45875100  0.50000000  0.86197300  1
  Bi  Bi12  1  0.36246500  0.50000000  0.25009900  1
  Bi  Bi13  1  0.08777900  0.50000000  0.93656500  1
  Bi  Bi14  1  0.01366550  0.00000000  0.78887100  1
  Bi  Bi15  1  0.33603250  0.50000000  0.90762000  1
  Bi  Bi16  1  0.13503300  0.00000000  0.74956600  1
  Bi  Bi17  1  0.26339950  0.00000000  0.73998900  1
  Bi  Bi18  1  0.03882250  0.00000000  0.13676000  1
  Bi  Bi19  1  0.48397950  0.50000000  0.20962000  1
  Bi  Bi20  1  0.23427500  0.50000000  0.25967700  1
  Bi  Bi21  1  0.11361100  0.50000000  0.27664700  1
  Bi  Bi22  1  0.38378400  0.00000000  0.72122700  1
  Bi  Bi23  1  0.28648700  0.00000000  0.08861100  1
  Bi  Bi24  1  0.66217750  0.50000000  0.09182200  1
  Bi  Bi25  1  0.71165050  0.00000000  0.91173300  1
  Bi  Bi26  1  0.90996250  0.50000000  0.06159300  1
  Bi  Bi27  1  0.95875100  0.00000000  0.86197300  1
  Bi  Bi28  1  0.86246500  0.00000000  0.25009900  1
  Bi  Bi29  1  0.58777900  0.00000000  0.93656500  1
  Bi  Bi30  1  0.51366550  0.50000000  0.78887100  1
  Bi  Bi31  1  0.83603250  0.00000000  0.90762000  1
  Bi  Bi32  1  0.63503300  0.50000000  0.74956600  1
  Bi  Bi33  1  0.76339950  0.50000000  0.73998900  1
  Bi  Bi34  1  0.53882250  0.50000000  0.13676000  1
  Bi  Bi35  1  0.98397950  0.00000000  0.20962000  1
  Bi  Bi36  1  0.73427500  0.00000000  0.25967700  1
  Bi  Bi37  1  0.61361100  0.00000000  0.27664700  1
  Bi  Bi38  1  0.88378400  0.50000000  0.72122700  1
  Bi  Bi39  1  0.78648700  0.50000000  0.08861100  1
  Te  Te40  1  0.32314900  0.00000000  0.75851600  1
  Te  Te41  1  0.03170100  0.50000000  0.96106000  1
  Te  Te42  1  0.23826100  0.00000000  0.40078400  1
  Te  Te43  1  0.39420750  0.50000000  0.89923300  1
  Te  Te44  1  0.07958450  0.00000000  0.78627000  1
  Te  Te45  1  0.37509200  0.50000000  0.57928700  1
  Te  Te46  1  0.20166200  0.00000000  0.75949000  1
  Te  Te47  1  0.17458150  0.50000000  0.24104900  1
  Te  Te48  1  0.25948150  0.50000000  0.59885800  1
  Te  Te49  1  0.10393800  0.00000000  0.09869600  1
  Te  Te50  1  0.05643100  0.50000000  0.27869500  1
  Te  Te51  1  0.34513050  0.00000000  0.07106500  1
  Te  Te52  1  0.41785200  0.50000000  0.21217200  1
  Te  Te53  1  0.44102000  0.00000000  0.71996500  1
  Te  Te54  1  0.37577000  0.00000000  0.38977900  1
  Te  Te55  1  0.27418600  0.50000000  0.92450600  1
  Te  Te56  1  0.15294600  0.50000000  0.92840400  1
  Te  Te57  1  0.12211800  0.50000000  0.60951500  1
  Te  Te58  1  0.46608900  0.00000000  0.03655500  1
  Te  Te59  1  0.00641150  0.50000000  0.64341700  1
  Te  Te60  1  0.12268350  0.00000000  0.41867900  1
  Te  Te61  1  0.22411400  0.00000000  0.07615500  1
  Te  Te62  1  0.29620050  0.50000000  0.24116600  1
  Te  Te63  1  0.49188100  0.00000000  0.35481900  1
  Te  Te64  1  0.82314900  0.50000000  0.75851600  1
  Te  Te65  1  0.53170100  0.00000000  0.96106000  1
  Te  Te66  1  0.73826100  0.50000000  0.40078400  1
  Te  Te67  1  0.89420750  0.00000000  0.89923300  1
  Te  Te68  1  0.57958450  0.50000000  0.78627000  1
  Te  Te69  1  0.87509200  0.00000000  0.57928700  1
  Te  Te70  1  0.70166200  0.50000000  0.75949000  1
  Te  Te71  1  0.67458150  0.00000000  0.24104900  1
  Te  Te72  1  0.75948150  0.00000000  0.59885800  1
  Te  Te73  1  0.60393800  0.50000000  0.09869600  1
  Te  Te74  1  0.55643100  0.00000000  0.27869500  1
  Te  Te75  1  0.84513050  0.50000000  0.07106500  1
  Te  Te76  1  0.91785200  0.00000000  0.21217200  1
  Te  Te77  1  0.94102000  0.50000000  0.71996500  1
  Te  Te78  1  0.87577000  0.50000000  0.38977900  1
  Te  Te79  1  0.77418600  0.00000000  0.92450600  1
  Te  Te80  1  0.65294600  0.00000000  0.92840400  1
  Te  Te81  1  0.62211800  0.00000000  0.60951500  1
  Te  Te82  1  0.96608900  0.50000000  0.03655500  1
  Te  Te83  1  0.50641150  0.00000000  0.64341700  1
  Te  Te84  1  0.62268350  0.50000000  0.41867900  1
  Te  Te85  1  0.72411400  0.50000000  0.07615500  1
  Te  Te86  1  0.79620050  0.00000000  0.24116600  1
  Te  Te87  1  0.99188100  0.50000000  0.35481900  1
