# generated using pymatgen
data_Na2Mg(CO3)2
_symmetry_space_group_name_H-M   'P 1'
_cell_length_a   4.99829043
_cell_length_b   4.99829043
_cell_length_c   16.62171633
_cell_angle_alpha   90.00000000
_cell_angle_beta   90.00000000
_cell_angle_gamma   120.00000000
_symmetry_Int_Tables_number   1
_chemical_formula_structural   Na2Mg(CO3)2
_chemical_formula_sum   'Na6 Mg3 C6 O18'
_cell_volume   359.62466699
_cell_formula_units_Z   3
loop_
 _symmetry_equiv_pos_site_id
 _symmetry_equiv_pos_as_xyz
  1  'x, y, z'
loop_
 _atom_site_type_symbol
 _atom_site_label
 _atom_site_symmetry_multiplicity
 _atom_site_fract_x
 _atom_site_fract_y
 _atom_site_fract_z
 _atom_site_occupancy
  Na  Na0  1  0.66666667  0.33333333  0.13225833  1
  Na  Na1  1  0.00000000  0.00000000  0.20107500  1
  Na  Na2  1  0.33333333  0.66666667  0.46559167  1
  Na  Na3  1  0.66666667  0.33333333  0.53440833  1
  Na  Na4  1  0.00000000  0.00000000  0.79892500  1
  Na  Na5  1  0.33333333  0.66666667  0.86774167  1
  Mg  Mg6  1  0.00000000  0.00000000  0.00000000  1
  Mg  Mg7  1  0.66666667  0.33333333  0.33333333  1
  Mg  Mg8  1  0.33333333  0.66666667  0.66666667  1
  C  C9  1  0.33333333  0.66666667  0.07570267  1
  C  C10  1  0.33333333  0.66666667  0.25763067  1
  C  C11  1  0.00000000  0.00000000  0.40903600  1
  C  C12  1  0.00000000  0.00000000  0.59096400  1
  C  C13  1  0.66666667  0.33333333  0.74236933  1
  C  C14  1  0.66666667  0.33333333  0.92429733  1
  O  O15  1  0.54700267  0.59079233  0.25634733  1
  O  O16  1  0.04378967  0.45299733  0.25634733  1
  O  O17  1  0.40920767  0.95621033  0.25634733  1
  O  O18  1  0.11966400  0.74254100  0.07698600  1
  O  O19  1  0.25745900  0.37712300  0.07698600  1
  O  O20  1  0.62287700  0.88033600  0.07698600  1
  O  O21  1  0.21366933  0.92412567  0.58968067  1
  O  O22  1  0.71045633  0.78633067  0.58968067  1
  O  O23  1  0.07587433  0.28954367  0.58968067  1
  O  O24  1  0.78633067  0.07587433  0.41031933  1
  O  O25  1  0.92412567  0.71045633  0.41031933  1
  O  O26  1  0.28954367  0.21366933  0.41031933  1
  O  O27  1  0.88033600  0.25745900  0.92301400  1
  O  O28  1  0.37712300  0.11966400  0.92301400  1
  O  O29  1  0.74254100  0.62287700  0.92301400  1
  O  O30  1  0.45299733  0.40920767  0.74365267  1
  O  O31  1  0.59079233  0.04378967  0.74365267  1
  O  O32  1  0.95621033  0.54700267  0.74365267  1
