# generated using pymatgen
data_Rb3H5Pd
_symmetry_space_group_name_H-M   'P 1'
_cell_length_a   7.82870400
_cell_length_b   7.82870400
_cell_length_c   6.10974200
_cell_angle_alpha   90.00000000
_cell_angle_beta   90.00000000
_cell_angle_gamma   90.00000000
_symmetry_Int_Tables_number   1
_chemical_formula_structural   Rb3H5Pd
_chemical_formula_sum   'Rb6 H10 Pd2'
_cell_volume   374.45757215
_cell_formula_units_Z   2
loop_
 _symmetry_equiv_pos_site_id
 _symmetry_equiv_pos_as_xyz
  1  'x, y, z'
loop_
 _atom_site_type_symbol
 _atom_site_label
 _atom_site_symmetry_multiplicity
 _atom_site_fract_x
 _atom_site_fract_y
 _atom_site_fract_z
 _atom_site_occupancy
  Rb  Rb0  1  0.50000000  0.50000000  0.00000000  1
  Rb  Rb1  1  0.00000000  0.00000000  0.00000000  1
  Rb  Rb2  1  0.68375800  0.18375800  0.50000000  1
  Rb  Rb3  1  0.31624200  0.81624200  0.50000000  1
  Rb  Rb4  1  0.81624200  0.68375800  0.50000000  1
  Rb  Rb5  1  0.18375800  0.31624200  0.50000000  1
  H  H6  1  0.50000000  0.50000000  0.50000000  1
  H  H7  1  0.00000000  0.00000000  0.50000000  1
  H  H8  1  0.10899900  0.60899900  0.81170000  1
  H  H9  1  0.89100100  0.39100100  0.81170000  1
  H  H10  1  0.39100100  0.10899900  0.81170000  1
  H  H11  1  0.60899900  0.89100100  0.81170000  1
  H  H12  1  0.89100100  0.39100100  0.18830000  1
  H  H13  1  0.10899900  0.60899900  0.18830000  1
  H  H14  1  0.60899900  0.89100100  0.18830000  1
  H  H15  1  0.39100100  0.10899900  0.18830000  1
  Pd  Pd16  1  0.00000000  0.50000000  0.00000000  1
  Pd  Pd17  1  0.50000000  0.00000000  0.00000000  1
