# generated using pymatgen
data_In(HO)3
_symmetry_space_group_name_H-M   'P 1'
_cell_length_a   6.96447000
_cell_length_b   6.99805377
_cell_length_c   7.00546163
_cell_angle_alpha   108.71913778
_cell_angle_beta   112.38710370
_cell_angle_gamma   106.86944069
_symmetry_Int_Tables_number   1
_chemical_formula_structural   In(HO)3
_chemical_formula_sum   'In4 H12 O12'
_cell_volume   263.76388709
_cell_formula_units_Z   4
loop_
 _symmetry_equiv_pos_site_id
 _symmetry_equiv_pos_as_xyz
  1  'x, y, z'
loop_
 _atom_site_type_symbol
 _atom_site_label
 _atom_site_symmetry_multiplicity
 _atom_site_fract_x
 _atom_site_fract_y
 _atom_site_fract_z
 _atom_site_occupancy
  In  In0  1  0.49961600  0.51552600  0.49787200  1
  In  In1  1  0.01207000  0.99735000  0.50217100  1
  In  In2  1  0.99197800  0.49105600  0.01024300  1
  In  In3  1  0.51334800  0.01208100  0.97485200  1
  H  H4  1  0.83782500  0.53389300  0.37405000  1
  H  H5  1  0.30192900  0.32653400  0.01904100  1
  H  H6  1  0.29768900  0.82562200  0.45440900  1
  H  H7  1  0.72310700  0.03326400  0.67052600  1
  H  H8  1  0.54153900  0.37028100  0.81702600  1
  H  H9  1  0.69378000  0.74303600  0.04520600  1
  H  H10  1  0.63969000  0.16200100  0.45792500  1
  H  H11  1  0.35422300  0.02971200  0.30596400  1
  H  H12  1  0.96059800  0.31619200  0.28515100  1
  H  H13  1  0.20452900  0.41715700  0.62292300  1
  H  H14  1  0.23073200  0.60292300  0.83169100  1
  H  H15  1  0.98786500  0.67628500  0.67065400  1
  O  O16  1  0.83394700  0.34073000  0.17839100  1
  O  O17  1  0.51200500  0.82987800  0.66432500  1
  O  O18  1  0.84912100  0.65809700  0.51400900  1
  O  O19  1  0.29653900  0.44793200  0.14725700  1
  O  O20  1  0.16706300  0.82975000  0.32349200  1
  O  O21  1  0.32265300  0.16253600  0.83227500  1
  O  O22  1  0.70374400  0.87409400  0.16738500  1
  O  O23  1  0.83414900  0.16081400  0.66398700  1
  O  O24  1  0.66527500  0.50113000  0.82976200  1
  O  O25  1  0.16875700  0.30707000  0.47255600  1
  O  O26  1  0.49468800  0.15710200  0.32963400  1
  O  O27  1  0.16344300  0.70085300  0.87322200  1
