# generated using pymatgen
data_Na2TiFe(PO4)3
_symmetry_space_group_name_H-M   'P 1'
_cell_length_a   15.15633800
_cell_length_b   8.75596400
_cell_length_c   8.86927442
_cell_angle_alpha   90.00000000
_cell_angle_beta   124.53397685
_cell_angle_gamma   90.00000000
_symmetry_Int_Tables_number   1
_chemical_formula_structural   Na2TiFe(PO4)3
_chemical_formula_sum   'Na8 Ti4 Fe4 P12 O48'
_cell_volume   969.62307458
_cell_formula_units_Z   4
loop_
 _symmetry_equiv_pos_site_id
 _symmetry_equiv_pos_as_xyz
  1  'x, y, z'
loop_
 _atom_site_type_symbol
 _atom_site_label
 _atom_site_symmetry_multiplicity
 _atom_site_fract_x
 _atom_site_fract_y
 _atom_site_fract_z
 _atom_site_occupancy
  Na  Na0  1  0.74604300  0.74637200  0.25139100  1
  Na  Na1  1  0.25395700  0.74637200  0.74860900  1
  Na  Na2  1  0.31501450  0.06663850  0.99996300  1
  Na  Na3  1  0.68498550  0.06663850  0.00003700  1
  Na  Na4  1  0.24604300  0.24637200  0.25139100  1
  Na  Na5  1  0.75395700  0.24637200  0.74860900  1
  Na  Na6  1  0.81501450  0.56663850  0.99996300  1
  Na  Na7  1  0.18498550  0.56663850  0.00003700  1
  Ti  Ti8  1  0.39353750  0.25126350  0.68116800  1
  Ti  Ti9  1  0.60646250  0.25126350  0.31883200  1
  Ti  Ti10  1  0.89353750  0.75126350  0.68116800  1
  Ti  Ti11  1  0.10646250  0.75126350  0.31883200  1
  Fe  Fe12  1  0.40319550  0.74719750  0.19819000  1
  Fe  Fe13  1  0.59680450  0.74719750  0.80181000  1
  Fe  Fe14  1  0.90319550  0.24719750  0.19819000  1
  Fe  Fe15  1  0.09680450  0.24719750  0.80181000  1
  P  P16  1  0.85264500  0.10349400  0.49680300  1
  P  P17  1  0.14735500  0.10349400  0.50319700  1
  P  P18  1  0.50000000  0.04220300  0.50000000  1
  P  P19  1  0.50000000  0.96027700  0.00000000  1
  P  P20  1  0.85714350  0.89678850  0.00014900  1
  P  P21  1  0.14285650  0.89678850  0.99985100  1
  P  P22  1  0.35264500  0.60349400  0.49680300  1
  P  P23  1  0.64735500  0.60349400  0.50319700  1
  P  P24  1  0.00000000  0.54220300  0.50000000  1
  P  P25  1  0.00000000  0.46027700  0.00000000  1
  P  P26  1  0.35714350  0.39678850  0.00014900  1
  P  P27  1  0.64285650  0.39678850  0.99985100  1
  O  O28  1  0.14464150  0.85555850  0.17128200  1
  O  O29  1  0.56699200  0.06549200  0.17024300  1
  O  O30  1  0.84869650  0.92758650  0.51588800  1
  O  O31  1  0.46017500  0.32729500  0.16970700  1
  O  O32  1  0.45325000  0.67171800  0.66768600  1
  O  O33  1  0.75488750  0.17587750  0.48337600  1
  O  O34  1  0.24511250  0.17587750  0.51662400  1
  O  O35  1  0.15130350  0.92758650  0.48411200  1
  O  O36  1  0.57723000  0.14610800  0.48322500  1
  O  O37  1  0.43300800  0.06549200  0.82975700  1
  O  O38  1  0.58217400  0.86388400  0.99163700  1
  O  O39  1  0.85535850  0.85555850  0.82871800  1
  O  O40  1  0.15319250  0.13213750  0.68037100  1
  O  O41  1  0.42277000  0.14610800  0.51677500  1
  O  O42  1  0.57083700  0.94642400  0.67562300  1
  O  O43  1  0.41782600  0.86388400  0.00836300  1
  O  O44  1  0.84764550  0.07131950  0.00753100  1
  O  O45  1  0.76230300  0.82030600  0.99360100  1
  O  O46  1  0.23769700  0.82030600  0.00639900  1
  O  O47  1  0.53982500  0.32729500  0.83029300  1
  O  O48  1  0.54675000  0.67171800  0.33231400  1
  O  O49  1  0.15235450  0.07131950  0.99246900  1
  O  O50  1  0.42916300  0.94642400  0.32437700  1
  O  O51  1  0.84680750  0.13213750  0.31962900  1
  O  O52  1  0.64464150  0.35555850  0.17128200  1
  O  O53  1  0.06699200  0.56549200  0.17024300  1
  O  O54  1  0.34869650  0.42758650  0.51588800  1
  O  O55  1  0.96017500  0.82729500  0.16970700  1
  O  O56  1  0.95325000  0.17171800  0.66768600  1
  O  O57  1  0.25488750  0.67587750  0.48337600  1
  O  O58  1  0.74511250  0.67587750  0.51662400  1
  O  O59  1  0.65130350  0.42758650  0.48411200  1
  O  O60  1  0.07723000  0.64610800  0.48322500  1
  O  O61  1  0.93300800  0.56549200  0.82975700  1
  O  O62  1  0.08217400  0.36388400  0.99163700  1
  O  O63  1  0.35535850  0.35555850  0.82871800  1
  O  O64  1  0.65319250  0.63213750  0.68037100  1
  O  O65  1  0.92277000  0.64610800  0.51677500  1
  O  O66  1  0.07083700  0.44642400  0.67562300  1
  O  O67  1  0.91782600  0.36388400  0.00836300  1
  O  O68  1  0.34764550  0.57131950  0.00753100  1
  O  O69  1  0.26230300  0.32030600  0.99360100  1
  O  O70  1  0.73769700  0.32030600  0.00639900  1
  O  O71  1  0.03982500  0.82729500  0.83029300  1
  O  O72  1  0.04675000  0.17171800  0.33231400  1
  O  O73  1  0.65235450  0.57131950  0.99246900  1
  O  O74  1  0.92916300  0.44642400  0.32437700  1
  O  O75  1  0.34680750  0.63213750  0.31962900  1
