# generated using pymatgen
data_KP(HO2)2
_symmetry_space_group_name_H-M   'P 1'
_cell_length_a   7.54348000
_cell_length_b   7.36768900
_cell_length_c   10.30922570
_cell_angle_alpha   90.00000000
_cell_angle_beta   133.03643372
_cell_angle_gamma   90.00000000
_symmetry_Int_Tables_number   1
_chemical_formula_structural   KP(HO2)2
_chemical_formula_sum   'K4 P4 H8 O16'
_cell_volume   418.79245615
_cell_formula_units_Z   4
loop_
 _symmetry_equiv_pos_site_id
 _symmetry_equiv_pos_as_xyz
  1  'x, y, z'
loop_
 _atom_site_type_symbol
 _atom_site_label
 _atom_site_symmetry_multiplicity
 _atom_site_fract_x
 _atom_site_fract_y
 _atom_site_fract_z
 _atom_site_occupancy
  K  K0  1  0.50000000  0.03273600  0.75000000  1
  K  K1  1  0.00000000  0.33809200  0.75000000  1
  K  K2  1  0.00000000  0.66190800  0.25000000  1
  K  K3  1  0.50000000  0.96726400  0.25000000  1
  P  P4  1  0.50000000  0.57422300  0.75000000  1
  P  P5  1  0.00000000  0.89290600  0.75000000  1
  P  P6  1  0.00000000  0.10709400  0.25000000  1
  P  P7  1  0.50000000  0.42577700  0.25000000  1
  H  H8  1  0.76588700  0.37192000  0.94521600  1
  H  H9  1  0.33422300  0.72271000  0.89504900  1
  H  H10  1  0.66577700  0.72271000  0.60495100  1
  H  H11  1  0.23411300  0.37192000  0.55478400  1
  H  H12  1  0.76588700  0.62808000  0.44521600  1
  H  H13  1  0.33422300  0.27729000  0.39504900  1
  H  H14  1  0.66577700  0.27729000  0.10495100  1
  H  H15  1  0.23411300  0.62808000  0.05478400  1
  O  O16  1  0.52941600  0.67994500  0.88973900  1
  O  O17  1  0.72869600  0.44083600  0.84475400  1
  O  O18  1  0.21126200  0.75211400  0.90620900  1
  O  O19  1  0.90421000  0.99617500  0.81610400  1
  O  O20  1  0.27130400  0.44083600  0.65524600  1
  O  O21  1  0.47058400  0.67994500  0.61026100  1
  O  O22  1  0.09579000  0.99617500  0.68389600  1
  O  O23  1  0.78873800  0.75211400  0.59379100  1
  O  O24  1  0.21126200  0.24788600  0.40620900  1
  O  O25  1  0.90421000  0.00382500  0.31610400  1
  O  O26  1  0.52941600  0.32005500  0.38973900  1
  O  O27  1  0.72869600  0.55916400  0.34475400  1
  O  O28  1  0.09579000  0.00382500  0.18389600  1
  O  O29  1  0.78873800  0.24788600  0.09379100  1
  O  O30  1  0.27130400  0.55916400  0.15524600  1
  O  O31  1  0.47058400  0.32005500  0.11026100  1
