# generated using pymatgen
data_ZnH14C2(N2Cl)4
_symmetry_space_group_name_H-M   'P 1'
_cell_length_a   7.79524300
_cell_length_b   24.87536000
_cell_length_c   8.02247293
_cell_angle_alpha   90.00000000
_cell_angle_beta   101.30745333
_cell_angle_gamma   90.00000000
_symmetry_Int_Tables_number   1
_chemical_formula_structural   ZnH14C2(N2Cl)4
_chemical_formula_sum   'Zn4 H56 C8 N32 Cl16'
_cell_volume   1525.43736963
_cell_formula_units_Z   4
loop_
 _symmetry_equiv_pos_site_id
 _symmetry_equiv_pos_as_xyz
  1  'x, y, z'
loop_
 _atom_site_type_symbol
 _atom_site_label
 _atom_site_symmetry_multiplicity
 _atom_site_fract_x
 _atom_site_fract_y
 _atom_site_fract_z
 _atom_site_occupancy
  Zn  Zn0  1  0.87044900  0.36779700  0.10519300  1
  Zn  Zn1  1  0.12955100  0.63220300  0.89480700  1
  Zn  Zn2  1  0.87044900  0.13220300  0.60519300  1
  Zn  Zn3  1  0.12955100  0.86779700  0.39480700  1
  H  H4  1  0.64367100  0.63563200  0.50670800  1
  H  H5  1  0.64879400  0.48053600  0.22889800  1
  H  H6  1  0.76937400  0.95276900  0.91775300  1
  H  H7  1  0.35632900  0.36436800  0.49329200  1
  H  H8  1  0.30308200  0.83655900  0.07867400  1
  H  H9  1  0.75894500  0.33627000  0.63007700  1
  H  H10  1  0.18198600  0.23187400  0.45225600  1
  H  H11  1  0.63923700  0.25222700  0.56976000  1
  H  H12  1  0.70304600  0.57987200  0.23645700  1
  H  H13  1  0.24105500  0.66373000  0.36992300  1
  H  H14  1  0.81969100  0.45459200  0.72488900  1
  H  H15  1  0.35632900  0.13563200  0.99329200  1
  H  H16  1  0.36076300  0.74777300  0.43024000  1
  H  H17  1  0.39509900  0.43193800  0.13504100  1
  H  H18  1  0.37380700  0.57908300  0.35301700  1
  H  H19  1  0.76937400  0.54723100  0.41775300  1
  H  H20  1  0.60490100  0.93193800  0.36495900  1
  H  H21  1  0.30308200  0.66344100  0.57867400  1
  H  H22  1  0.18198600  0.26812600  0.95225600  1
  H  H23  1  0.63923700  0.24777300  0.06976000  1
  H  H24  1  0.70304600  0.92012800  0.73645700  1
  H  H25  1  0.38647000  0.20067000  0.49509200  1
  H  H26  1  0.64367100  0.86436800  0.00670800  1
  H  H27  1  0.35120600  0.98053600  0.27110200  1
  H  H28  1  0.61353000  0.70067000  0.00490800  1
  H  H29  1  0.80147400  0.54663200  0.81063300  1
  H  H30  1  0.36076300  0.75222700  0.93024000  1
  H  H31  1  0.24105500  0.83627000  0.86992300  1
  H  H32  1  0.39509900  0.06806200  0.63504100  1
  H  H33  1  0.81801400  0.76812600  0.54774400  1
  H  H34  1  0.37380700  0.92091700  0.85301700  1
  H  H35  1  0.80147400  0.95336800  0.31063300  1
  H  H36  1  0.35120600  0.51946400  0.77110200  1
  H  H37  1  0.23062600  0.04723100  0.08224700  1
  H  H38  1  0.60490100  0.56806200  0.86495900  1
  H  H39  1  0.83431900  0.67430700  0.58221800  1
  H  H40  1  0.16568100  0.32569300  0.41778200  1
  H  H41  1  0.18030900  0.95459200  0.77511100  1
  H  H42  1  0.61353000  0.79933000  0.50490800  1
  H  H43  1  0.75894500  0.16373000  0.13007700  1
  H  H44  1  0.81801400  0.73187400  0.04774400  1
  H  H45  1  0.29695400  0.42012800  0.76354300  1
  H  H46  1  0.69691800  0.16344100  0.92132600  1
  H  H47  1  0.62619300  0.07908300  0.14698300  1
  H  H48  1  0.19852600  0.04663200  0.68936700  1
  H  H49  1  0.62619300  0.42091700  0.64698300  1
  H  H50  1  0.81969100  0.04540800  0.22488900  1
  H  H51  1  0.16568100  0.17430700  0.91778200  1
  H  H52  1  0.69691800  0.33655900  0.42132600  1
  H  H53  1  0.38647000  0.29933000  0.99509200  1
  H  H54  1  0.18030900  0.54540800  0.27511100  1
  H  H55  1  0.23062600  0.45276900  0.58224700  1
  H  H56  1  0.19852600  0.45336800  0.18936700  1
  H  H57  1  0.29695400  0.07987200  0.26354300  1
  H  H58  1  0.64879400  0.01946400  0.72889800  1
  H  H59  1  0.83431900  0.82569300  0.08221800  1
  C  C60  1  0.40324700  0.50588900  0.25062100  1
  C  C61  1  0.59675300  0.49411100  0.74937900  1
  C  C62  1  0.40324700  0.99411100  0.75062100  1
  C  C63  1  0.60882300  0.71656600  0.50290600  1
  C  C64  1  0.59675300  0.00588900  0.24937900  1
  C  C65  1  0.39117700  0.21656600  0.99709400  1
  C  C66  1  0.60882300  0.78343400  0.00290600  1
  C  C67  1  0.39117700  0.28343400  0.49709400  1
  N  N68  1  0.57591700  0.51197700  0.25949900  1
  N  N69  1  0.67567500  0.53842100  0.82127700  1
  N  N70  1  0.66121400  0.55860600  0.33056600  1
  N  N71  1  0.65130100  0.16413900  0.03318200  1
  N  N72  1  0.68774200  0.45624300  0.68613600  1
  N  N73  1  0.56610000  0.21356100  0.04238900  1
  N  N74  1  0.29669900  0.32823800  0.46437800  1
  N  N75  1  0.42408300  0.01197700  0.24050100  1
  N  N76  1  0.33878600  0.44139400  0.66943400  1
  N  N77  1  0.65130100  0.33586100  0.53318200  1
  N  N78  1  0.56610000  0.28643900  0.54238900  1
  N  N79  1  0.31395300  0.26484400  0.98575600  1
  N  N80  1  0.31395300  0.23515600  0.48575600  1
  N  N81  1  0.70330100  0.67176200  0.53562200  1
  N  N82  1  0.66121400  0.94139400  0.83056600  1
  N  N83  1  0.57591700  0.98802300  0.75949900  1
  N  N84  1  0.43390000  0.71356100  0.45761100  1
  N  N85  1  0.31225800  0.54375700  0.31386400  1
  N  N86  1  0.29669900  0.17176200  0.96437800  1
  N  N87  1  0.31225800  0.95624300  0.81386400  1
  N  N88  1  0.43390000  0.78643900  0.95761100  1
  N  N89  1  0.32432500  0.46157900  0.17872300  1
  N  N90  1  0.42408300  0.48802300  0.74050100  1
  N  N91  1  0.68774200  0.04375700  0.18613600  1
  N  N92  1  0.67567500  0.96157900  0.32127700  1
  N  N93  1  0.34869900  0.66413900  0.46681800  1
  N  N94  1  0.32432500  0.03842100  0.67872300  1
  N  N95  1  0.33878600  0.05860600  0.16943400  1
  N  N96  1  0.34869900  0.83586100  0.96681800  1
  N  N97  1  0.68604700  0.76484400  0.51424400  1
  N  N98  1  0.70330100  0.82823800  0.03562200  1
  N  N99  1  0.68604700  0.73515600  0.01424400  1
  Cl  Cl100  1  0.05258800  0.93733800  0.20202000  1
  Cl  Cl101  1  0.98639300  0.62601600  0.11479700  1
  Cl  Cl102  1  0.56886000  0.37259100  0.02498900  1
  Cl  Cl103  1  0.91208800  0.21315700  0.74409300  1
  Cl  Cl104  1  0.08791200  0.78684300  0.25590700  1
  Cl  Cl105  1  0.98639300  0.87398400  0.61479700  1
  Cl  Cl106  1  0.01360700  0.12601600  0.38520300  1
  Cl  Cl107  1  0.01360700  0.37398400  0.88520300  1
  Cl  Cl108  1  0.08791200  0.71315700  0.75590700  1
  Cl  Cl109  1  0.43114000  0.62740900  0.97501100  1
  Cl  Cl110  1  0.05258800  0.56266200  0.70202000  1
  Cl  Cl111  1  0.94741200  0.43733800  0.29798000  1
  Cl  Cl112  1  0.43114000  0.87259100  0.47501100  1
  Cl  Cl113  1  0.56886000  0.12740900  0.52498900  1
  Cl  Cl114  1  0.91208800  0.28684300  0.24409300  1
  Cl  Cl115  1  0.94741200  0.06266200  0.79798000  1
