# generated using pymatgen
data_Li3InCl6
_symmetry_space_group_name_H-M   'P 1'
_cell_length_a   6.58602000
_cell_length_b   11.33589200
_cell_length_c   35.89314868
_cell_angle_alpha   90.00000000
_cell_angle_beta   90.73392915
_cell_angle_gamma   90.00000000
_symmetry_Int_Tables_number   1
_chemical_formula_structural   Li3InCl6
_chemical_formula_sum   'Li36 In12 Cl72'
_cell_volume   2679.50561653
_cell_formula_units_Z   12
loop_
 _symmetry_equiv_pos_site_id
 _symmetry_equiv_pos_as_xyz
  1  'x, y, z'
loop_
 _atom_site_type_symbol
 _atom_site_label
 _atom_site_symmetry_multiplicity
 _atom_site_fract_x
 _atom_site_fract_y
 _atom_site_fract_z
 _atom_site_occupancy
  Li  Li0  1  0.83246450  0.16696550  0.08351500  1
  Li  Li1  1  0.81956950  0.83799750  0.08363200  1
  Li  Li2  1  0.35118000  0.99463500  0.08311200  1
  Li  Li3  1  0.50042650  0.84364150  0.24999100  1
  Li  Li4  1  0.49898550  0.15721250  0.24996900  1
  Li  Li5  1  0.00170950  0.99974350  0.24995000  1
  Li  Li6  1  0.16667250  0.84257150  0.41666300  1
  Li  Li7  1  0.16667900  0.15745800  0.41666100  1
  Li  Li8  1  0.66664100  0.99999600  0.41666400  1
  Li  Li9  1  0.83332750  0.84257150  0.58333700  1
  Li  Li10  1  0.83332100  0.15745800  0.58333900  1
  Li  Li11  1  0.33335900  0.99999600  0.58333600  1
  Li  Li12  1  0.49957350  0.84364150  0.75000900  1
  Li  Li13  1  0.99829050  0.99974350  0.75005000  1
  Li  Li14  1  0.50101450  0.15721250  0.75003100  1
  Li  Li15  1  0.64882000  0.99463500  0.91688800  1
  Li  Li16  1  0.18043050  0.83799750  0.91636800  1
  Li  Li17  1  0.16753550  0.16696550  0.91648500  1
  Li  Li18  1  0.33246450  0.66696550  0.08351500  1
  Li  Li19  1  0.31956950  0.33799750  0.08363200  1
  Li  Li20  1  0.85118000  0.49463500  0.08311200  1
  Li  Li21  1  0.00042650  0.34364150  0.24999100  1
  Li  Li22  1  0.99898550  0.65721250  0.24996900  1
  Li  Li23  1  0.50170950  0.49974350  0.24995000  1
  Li  Li24  1  0.66667250  0.34257150  0.41666300  1
  Li  Li25  1  0.66667900  0.65745800  0.41666100  1
  Li  Li26  1  0.16664100  0.49999600  0.41666400  1
  Li  Li27  1  0.33332750  0.34257150  0.58333700  1
  Li  Li28  1  0.33332100  0.65745800  0.58333900  1
  Li  Li29  1  0.83335900  0.49999600  0.58333600  1
  Li  Li30  1  0.99957350  0.34364150  0.75000900  1
  Li  Li31  1  0.49829050  0.49974350  0.75005000  1
  Li  Li32  1  0.00101450  0.65721250  0.75003100  1
  Li  Li33  1  0.14882000  0.49463500  0.91688800  1
  Li  Li34  1  0.68043050  0.33799750  0.91636800  1
  Li  Li35  1  0.66753550  0.66696550  0.91648500  1
  In  In36  1  0.50000000  0.83119400  0.00000000  1
  In  In37  1  0.66882850  0.00075450  0.16669300  1
  In  In38  1  0.33321000  0.00003000  0.33332700  1
  In  In39  1  0.50000000  0.50006600  0.50000000  1
  In  In40  1  0.66679000  0.00003000  0.66667300  1
  In  In41  1  0.33117150  0.00075450  0.83330700  1
  In  In42  1  0.00000000  0.33119400  0.00000000  1
  In  In43  1  0.16882850  0.50075450  0.16669300  1
  In  In44  1  0.83321000  0.50003000  0.33332700  1
  In  In45  1  0.00000000  0.00006600  0.50000000  1
  In  In46  1  0.16679000  0.50003000  0.66667300  1
  In  In47  1  0.83117150  0.50075450  0.83330700  1
  Cl  Cl48  1  0.65729300  0.98852700  0.04113400  1
  Cl  Cl49  1  0.19490650  0.83265750  0.04453500  1
  Cl  Cl50  1  0.65393750  0.67934550  0.04437000  1
  Cl  Cl51  1  0.51391100  0.15416900  0.12178100  1
  Cl  Cl52  1  0.51327850  0.84296650  0.12562700  1
  Cl  Cl53  1  0.97220300  0.00017700  0.12277200  1
  Cl  Cl54  1  0.35653400  0.00135200  0.20751500  1
  Cl  Cl55  1  0.81957500  0.15409100  0.21113100  1
  Cl  Cl56  1  0.82105900  0.84655200  0.21171500  1
  Cl  Cl57  1  0.18238950  0.84522550  0.28838400  1
  Cl  Cl58  1  0.18136350  0.15464450  0.28841600  1
  Cl  Cl59  1  0.64368100  0.00020500  0.29298600  1
  Cl  Cl60  1  0.02354000  0.99998300  0.37364600  1
  Cl  Cl61  1  0.48456100  0.15434200  0.37828400  1
  Cl  Cl62  1  0.48458050  0.84570350  0.37828700  1
  Cl  Cl63  1  0.34869450  0.65441050  0.45501600  1
  Cl  Cl64  1  0.34873050  0.34565250  0.45502600  1
  Cl  Cl65  1  0.30994750  0.00001250  0.45965000  1
  Cl  Cl66  1  0.69005250  0.00001250  0.54035000  1
  Cl  Cl67  1  0.65130550  0.65441050  0.54498400  1
  Cl  Cl68  1  0.65126950  0.34565250  0.54497400  1
  Cl  Cl69  1  0.51543900  0.15434200  0.62171600  1
  Cl  Cl70  1  0.51541950  0.84570350  0.62171300  1
  Cl  Cl71  1  0.97646000  0.99998300  0.62635400  1
  Cl  Cl72  1  0.35631900  0.00020500  0.70701400  1
  Cl  Cl73  1  0.81863650  0.15464450  0.71158400  1
  Cl  Cl74  1  0.81761050  0.84522550  0.71161600  1
  Cl  Cl75  1  0.18042500  0.15409100  0.78886900  1
  Cl  Cl76  1  0.17894100  0.84655200  0.78828500  1
  Cl  Cl77  1  0.64346600  0.00135200  0.79248500  1
  Cl  Cl78  1  0.02779700  0.00017700  0.87722800  1
  Cl  Cl79  1  0.48608900  0.15416900  0.87821900  1
  Cl  Cl80  1  0.48672150  0.84296650  0.87437300  1
  Cl  Cl81  1  0.80509350  0.83265750  0.95546500  1
  Cl  Cl82  1  0.34606250  0.67934550  0.95563000  1
  Cl  Cl83  1  0.34270700  0.98852700  0.95886600  1
  Cl  Cl84  1  0.15729300  0.48852700  0.04113400  1
  Cl  Cl85  1  0.69490650  0.33265750  0.04453500  1
  Cl  Cl86  1  0.15393750  0.17934550  0.04437000  1
  Cl  Cl87  1  0.01391100  0.65416900  0.12178100  1
  Cl  Cl88  1  0.01327850  0.34296650  0.12562700  1
  Cl  Cl89  1  0.47220300  0.50017700  0.12277200  1
  Cl  Cl90  1  0.85653400  0.50135200  0.20751500  1
  Cl  Cl91  1  0.31957500  0.65409100  0.21113100  1
  Cl  Cl92  1  0.32105900  0.34655200  0.21171500  1
  Cl  Cl93  1  0.68238950  0.34522550  0.28838400  1
  Cl  Cl94  1  0.68136350  0.65464450  0.28841600  1
  Cl  Cl95  1  0.14368100  0.50020500  0.29298600  1
  Cl  Cl96  1  0.52354000  0.49998300  0.37364600  1
  Cl  Cl97  1  0.98456100  0.65434200  0.37828400  1
  Cl  Cl98  1  0.98458050  0.34570350  0.37828700  1
  Cl  Cl99  1  0.84869450  0.15441050  0.45501600  1
  Cl  Cl100  1  0.84873050  0.84565250  0.45502600  1
  Cl  Cl101  1  0.80994750  0.50001250  0.45965000  1
  Cl  Cl102  1  0.19005250  0.50001250  0.54035000  1
  Cl  Cl103  1  0.15130550  0.15441050  0.54498400  1
  Cl  Cl104  1  0.15126950  0.84565250  0.54497400  1
  Cl  Cl105  1  0.01543900  0.65434200  0.62171600  1
  Cl  Cl106  1  0.01541950  0.34570350  0.62171300  1
  Cl  Cl107  1  0.47646000  0.49998300  0.62635400  1
  Cl  Cl108  1  0.85631900  0.50020500  0.70701400  1
  Cl  Cl109  1  0.31863650  0.65464450  0.71158400  1
  Cl  Cl110  1  0.31761050  0.34522550  0.71161600  1
  Cl  Cl111  1  0.68042500  0.65409100  0.78886900  1
  Cl  Cl112  1  0.67894100  0.34655200  0.78828500  1
  Cl  Cl113  1  0.14346600  0.50135200  0.79248500  1
  Cl  Cl114  1  0.52779700  0.50017700  0.87722800  1
  Cl  Cl115  1  0.98608900  0.65416900  0.87821900  1
  Cl  Cl116  1  0.98672150  0.34296650  0.87437300  1
  Cl  Cl117  1  0.30509350  0.33265750  0.95546500  1
  Cl  Cl118  1  0.84606250  0.17934550  0.95563000  1
  Cl  Cl119  1  0.84270700  0.48852700  0.95886600  1
