# generated using pymatgen
data_Na5Lu(SiO3)4
_symmetry_space_group_name_H-M   'P 1'
_cell_length_a   22.17582033
_cell_length_b   22.17582033
_cell_length_c   12.70124163
_cell_angle_alpha   90.00000000
_cell_angle_beta   90.00000000
_cell_angle_gamma   120.00000000
_symmetry_Int_Tables_number   1
_chemical_formula_structural   Na5Lu(SiO3)4
_chemical_formula_sum   'Na90 Lu18 Si72 O216'
_cell_volume   5409.23934676
_cell_formula_units_Z   18
loop_
 _symmetry_equiv_pos_site_id
 _symmetry_equiv_pos_as_xyz
  1  'x, y, z'
loop_
 _atom_site_type_symbol
 _atom_site_label
 _atom_site_symmetry_multiplicity
 _atom_site_fract_x
 _atom_site_fract_y
 _atom_site_fract_z
 _atom_site_occupancy
  Na  Na0  1  0.80918133  0.13942267  0.79738767  1
  Na  Na1  1  0.14975133  0.32921667  0.67996367  1
  Na  Na2  1  0.00411667  0.48720133  0.34663033  1
  Na  Na3  1  0.00000000  0.00000000  0.25938100  1
  Na  Na4  1  0.73305333  0.26877167  0.93546967  1
  Na  Na5  1  0.80608933  0.14251467  0.53594567  1
  Na  Na6  1  0.00000000  0.27954500  0.00000000  1
  Na  Na7  1  0.15386800  0.33745000  0.98670300  1
  Na  Na8  1  0.92694267  0.06765033  0.88768533  1
  Na  Na9  1  0.20238500  0.60028000  0.26880300  1
  Na  Na10  1  0.73431700  0.26027600  0.44564800  1
  Na  Na11  1  0.99588333  0.48308467  0.65336967  1
  Na  Na12  1  0.40639067  0.80737433  0.77898133  1
  Na  Na13  1  0.85929233  0.93234967  0.11231467  1
  Na  Na14  1  0.26694667  0.53571833  0.06453033  1
  Na  Na15  1  0.06456167  0.13094833  0.60213633  1
  Na  Na16  1  0.85024867  0.17946533  0.32003633  1
  Na  Na17  1  0.59901633  0.19262567  0.22101867  1
  Na  Na18  1  0.79761500  0.39789500  0.73119700  1
  Na  Na19  1  0.52724400  0.00309200  0.13072100  1
  Na  Na20  1  0.66357467  0.85748533  0.46405433  1
  Na  Na21  1  0.66975867  0.86057733  0.20261233  1
  Na  Na22  1  0.94621167  0.33333333  0.33333333  1
  Na  Na23  1  0.05378833  0.38712167  0.66666667  1
  Na  Na24  1  0.52415200  0.99690800  0.86927900  1
  Na  Na25  1  0.84613200  0.18358200  0.01329700  1
  Na  Na26  1  0.93543833  0.06638667  0.39786367  1
  Na  Na27  1  0.00000000  0.00000000  0.00000000  1
  Na  Na28  1  0.00000000  0.00000000  0.74061900  1
  Na  Na29  1  0.47404100  0.73972400  0.55435200  1
  Na  Na30  1  0.47584800  0.47275600  0.13072100  1
  Na  Na31  1  0.81641800  0.66255000  0.01329700  1
  Na  Na32  1  0.67078333  0.82053467  0.67996367  1
  Na  Na33  1  0.66666667  0.33333333  0.59271433  1
  Na  Na34  1  0.39972000  0.60210500  0.26880300  1
  Na  Na35  1  0.47275600  0.47584800  0.86927900  1
  Na  Na36  1  0.66666667  0.61287833  0.33333333  1
  Na  Na37  1  0.82053467  0.67078333  0.32003633  1
  Na  Na38  1  0.59360933  0.40098367  0.22101867  1
  Na  Na39  1  0.86905167  0.93361333  0.60213633  1
  Na  Na40  1  0.40098367  0.59360933  0.77898133  1
  Na  Na41  1  0.66255000  0.81641800  0.98670300  1
  Na  Na42  1  0.07305733  0.14070767  0.11231467  1
  Na  Na43  1  0.52595900  0.26568300  0.44564800  1
  Na  Na44  1  0.93361333  0.86905167  0.39786367  1
  Na  Na45  1  0.73122833  0.46428167  0.93546967  1
  Na  Na46  1  0.51691533  0.51279867  0.65336967  1
  Na  Na47  1  0.26568300  0.52595900  0.55435200  1
  Na  Na48  1  0.46428167  0.73122833  0.06453033  1
  Na  Na49  1  0.19391067  0.33642533  0.46405433  1
  Na  Na50  1  0.33024133  0.19081867  0.79738767  1
  Na  Na51  1  0.33642533  0.19391067  0.53594567  1
  Na  Na52  1  0.61287833  0.66666667  0.66666667  1
  Na  Na53  1  0.72045500  0.72045500  0.00000000  1
  Na  Na54  1  0.19081867  0.33024133  0.20261233  1
  Na  Na55  1  0.51279867  0.51691533  0.34663033  1
  Na  Na56  1  0.60210500  0.39972000  0.73119700  1
  Na  Na57  1  0.66666667  0.33333333  0.33333333  1
  Na  Na58  1  0.66666667  0.33333333  0.07395233  1
  Na  Na59  1  0.14070767  0.07305733  0.88768533  1
  Na  Na60  1  0.14251467  0.80608933  0.46405433  1
  Na  Na61  1  0.48308467  0.99588333  0.34663033  1
  Na  Na62  1  0.33745000  0.15386800  0.01329700  1
  Na  Na63  1  0.33333333  0.66666667  0.92604767  1
  Na  Na64  1  0.06638667  0.93543833  0.60213633  1
  Na  Na65  1  0.13942267  0.80918133  0.20261233  1
  Na  Na66  1  0.33333333  0.94621167  0.66666667  1
  Na  Na67  1  0.48720133  0.00411667  0.65336967  1
  Na  Na68  1  0.26027600  0.73431700  0.55435200  1
  Na  Na69  1  0.53571833  0.26694667  0.93546967  1
  Na  Na70  1  0.06765033  0.92694267  0.11231467  1
  Na  Na71  1  0.32921667  0.14975133  0.32003633  1
  Na  Na72  1  0.73972400  0.47404100  0.44564800  1
  Na  Na73  1  0.19262567  0.59901633  0.77898133  1
  Na  Na74  1  0.60028000  0.20238500  0.73119700  1
  Na  Na75  1  0.39789500  0.79761500  0.26880300  1
  Na  Na76  1  0.18358200  0.84613200  0.98670300  1
  Na  Na77  1  0.93234967  0.85929233  0.88768533  1
  Na  Na78  1  0.13094833  0.06456167  0.39786367  1
  Na  Na79  1  0.86057733  0.66975867  0.79738767  1
  Na  Na80  1  0.99690800  0.52415200  0.13072100  1
  Na  Na81  1  0.00309200  0.52724400  0.86927900  1
  Na  Na82  1  0.27954500  0.00000000  0.00000000  1
  Na  Na83  1  0.38712167  0.05378833  0.33333333  1
  Na  Na84  1  0.85748533  0.66357467  0.53594567  1
  Na  Na85  1  0.17946533  0.85024867  0.67996367  1
  Na  Na86  1  0.26877167  0.73305333  0.06453033  1
  Na  Na87  1  0.33333333  0.66666667  0.66666667  1
  Na  Na88  1  0.33333333  0.66666667  0.40728567  1
  Na  Na89  1  0.80737433  0.40639067  0.22101867  1
  Lu  Lu90  1  0.66666667  0.08170733  0.33333333  1
  Lu  Lu91  1  0.08537133  0.41870467  0.16666667  1
  Lu  Lu92  1  0.91462867  0.33333333  0.83333333  1
  Lu  Lu93  1  0.00000000  0.24796200  0.50000000  1
  Lu  Lu94  1  0.74837400  0.00000000  0.00000000  1
  Lu  Lu95  1  0.58495933  0.91829267  0.66666667  1
  Lu  Lu96  1  0.33333333  0.41504067  0.66666667  1
  Lu  Lu97  1  0.75203800  0.75203800  0.50000000  1
  Lu  Lu98  1  0.58129533  0.66666667  0.16666667  1
  Lu  Lu99  1  0.66666667  0.58129533  0.83333333  1
  Lu  Lu100  1  0.41504067  0.33333333  0.33333333  1
  Lu  Lu101  1  0.25162600  0.25162600  0.00000000  1
  Lu  Lu102  1  0.00000000  0.74837400  0.00000000  1
  Lu  Lu103  1  0.41870467  0.08537133  0.83333333  1
  Lu  Lu104  1  0.24796200  0.00000000  0.50000000  1
  Lu  Lu105  1  0.33333333  0.91462867  0.16666667  1
  Lu  Lu106  1  0.08170733  0.66666667  0.66666667  1
  Lu  Lu107  1  0.91829267  0.58495933  0.33333333  1
  Si  Si108  1  0.51838733  0.76234867  0.29314367  1
  Si  Si109  1  0.57028733  0.88373467  0.94169867  1
  Si  Si110  1  0.68655267  0.11626533  0.05830133  1
  Si  Si111  1  0.24090967  0.48569633  0.79614633  1
  Si  Si112  1  0.57729467  0.14827933  0.95981033  1
  Si  Si113  1  0.55040133  0.90362067  0.39163467  1
  Si  Si114  1  0.90431800  0.08937200  0.62647700  1
  Si  Si115  1  0.98212167  0.21875533  0.77237933  1
  Si  Si116  1  0.64678067  0.09637933  0.60836533  1
  Si  Si117  1  0.08854667  0.18097033  0.87052033  1
  Si  Si118  1  0.84763700  0.42188000  0.46281300  1
  Si  Si119  1  0.15236300  0.57424300  0.53718700  1
  Si  Si120  1  0.78293200  0.01988600  0.27503200  1
  Si  Si121  1  0.88542200  0.31545500  0.56095400  1
  Si  Si122  1  0.11457800  0.43003300  0.43904600  1
  Si  Si123  1  0.75909033  0.24478667  0.20385367  1
  Si  Si124  1  0.91145333  0.09242367  0.12947967  1
  Si  Si125  1  0.90330033  0.35121167  0.10571267  1
  Si  Si126  1  0.01787833  0.23663367  0.22762067  1
  Si  Si127  1  0.09669967  0.44791133  0.89428733  1
  Si  Si128  1  0.81494600  0.91062800  0.37352300  1
  Si  Si129  1  0.42901533  0.85172067  0.04018967  1
  Si  Si130  1  0.75603867  0.23765133  0.70685633  1
  Si  Si131  1  0.76304600  0.98011400  0.72496800  1
  Si  Si132  1  0.18505400  0.09568200  0.62647700  1
  Si  Si133  1  0.23695400  0.21706800  0.27503200  1
  Si  Si134  1  0.35321933  0.44959867  0.39163467  1
  Si  Si135  1  0.90757633  0.81902967  0.12947967  1
  Si  Si136  1  0.24396133  0.48161267  0.29314367  1
  Si  Si137  1  0.21706800  0.23695400  0.72496800  1
  Si  Si138  1  0.57098467  0.42270533  0.95981033  1
  Si  Si139  1  0.64878833  0.55208867  0.10571267  1
  Si  Si140  1  0.31344733  0.42971267  0.94169867  1
  Si  Si141  1  0.75521333  0.51430367  0.20385367  1
  Si  Si142  1  0.51430367  0.75521333  0.79614633  1
  Si  Si143  1  0.81902967  0.90757633  0.87052033  1
  Si  Si144  1  0.44959867  0.35321933  0.60836533  1
  Si  Si145  1  0.55208867  0.64878833  0.89428733  1
  Si  Si146  1  0.78124467  0.76336633  0.77237933  1
  Si  Si147  1  0.42575700  0.57812000  0.53718700  1
  Si  Si148  1  0.57812000  0.42575700  0.46281300  1
  Si  Si149  1  0.56996700  0.68454500  0.43904600  1
  Si  Si150  1  0.68454500  0.56996700  0.56095400  1
  Si  Si151  1  0.76336633  0.78124467  0.22762067  1
  Si  Si152  1  0.48161267  0.24396133  0.70685633  1
  Si  Si153  1  0.09568200  0.18505400  0.37352300  1
  Si  Si154  1  0.42270533  0.57098467  0.04018967  1
  Si  Si155  1  0.42971267  0.31344733  0.05830133  1
  Si  Si156  1  0.85172067  0.42901533  0.95981033  1
  Si  Si157  1  0.90362067  0.55040133  0.60836533  1
  Si  Si158  1  0.01988600  0.78293200  0.72496800  1
  Si  Si159  1  0.57424300  0.15236300  0.46281300  1
  Si  Si160  1  0.91062800  0.81494600  0.62647700  1
  Si  Si161  1  0.88373467  0.57028733  0.05830133  1
  Si  Si162  1  0.23765133  0.75603867  0.29314367  1
  Si  Si163  1  0.31545500  0.88542200  0.43904600  1
  Si  Si164  1  0.98011400  0.76304600  0.27503200  1
  Si  Si165  1  0.42188000  0.84763700  0.53718700  1
  Si  Si166  1  0.18097033  0.08854667  0.12947967  1
  Si  Si167  1  0.48569633  0.24090967  0.20385367  1
  Si  Si168  1  0.11626533  0.68655267  0.94169867  1
  Si  Si169  1  0.21875533  0.98212167  0.22762067  1
  Si  Si170  1  0.44791133  0.09669967  0.10571267  1
  Si  Si171  1  0.09242367  0.91145333  0.87052033  1
  Si  Si172  1  0.24478667  0.75909033  0.79614633  1
  Si  Si173  1  0.23663367  0.01787833  0.77237933  1
  Si  Si174  1  0.35121167  0.90330033  0.89428733  1
  Si  Si175  1  0.43003300  0.11457800  0.56095400  1
  Si  Si176  1  0.14827933  0.57729467  0.04018967  1
  Si  Si177  1  0.76234867  0.51838733  0.70685633  1
  Si  Si178  1  0.08937200  0.90431800  0.37352300  1
  Si  Si179  1  0.09637933  0.64678067  0.39163467  1
  O  O180  1  0.23603633  0.61433667  0.54339667  1
  O  O181  1  0.58565200  0.11433600  0.36123200  1
  O  O182  1  0.07645133  0.21350067  0.26109167  1
  O  O183  1  0.90465733  0.30708467  0.00471767  1
  O  O184  1  0.96491267  0.17990533  0.13720833  1
  O  O185  1  0.76396367  0.37830033  0.45660333  1
  O  O186  1  0.04496700  0.09729700  0.87673000  1
  O  O187  1  0.86738033  0.07401967  0.24374267  1
  O  O188  1  0.64440933  0.90909767  0.99800367  1
  O  O189  1  0.75756900  0.06864500  0.33133700  1
  O  O190  1  0.59802167  0.02225733  0.66467033  1
  O  O191  1  0.19268133  0.44145067  0.19336067  1
  O  O192  1  0.64324733  0.07496267  0.16166867  1
  O  O193  1  0.15342800  0.45167400  0.80387500  1
  O  O194  1  0.79336067  0.92598033  0.75625733  1
  O  O195  1  0.91501300  0.27246500  0.49691200  1
  O  O196  1  0.61661367  0.23121333  0.95418533  1
  O  O197  1  0.19628400  0.45316600  0.40557500  1
  O  O198  1  0.80731867  0.24876933  0.80663933  1
  O  O199  1  0.08456400  0.22521600  0.47330600  1
  O  O200  1  0.55233067  0.80464933  0.69456533  1
  O  O201  1  0.51485900  0.88369500  0.03156700  1
  O  O202  1  0.11834067  0.48676133  0.52945833  1
  O  O203  1  0.88165933  0.36842067  0.47054167  1
  O  O204  1  0.02411867  0.41832033  0.83024533  1
  O  O205  1  0.08498700  0.35745200  0.50308800  1
  O  O206  1  0.70216933  0.15180767  0.69823367  1
  O  O207  1  0.43545333  0.71873367  0.28751867  1
  O  O208  1  0.91543600  0.14065200  0.52669400  1
  O  O209  1  0.84657200  0.29824600  0.19612500  1
  O  O210  1  0.97588133  0.39420167  0.16975467  1
  O  O211  1  0.74068633  0.20071367  0.08959067  1
  O  O212  1  0.73531167  0.09090233  0.00199633  1
  O  O213  1  0.68892400  0.93135500  0.66866300  1
  O  O214  1  0.89788000  0.94994700  0.37914800  1
  O  O215  1  0.89188267  0.41789733  0.86002733  1
  O  O216  1  0.57576433  0.97774267  0.33532967  1
  O  O217  1  0.93090600  0.35958200  0.66194900  1
  O  O218  1  0.56828467  0.92503733  0.83833133  1
  O  O219  1  0.06909400  0.42867600  0.33805100  1
  O  O220  1  0.06086833  0.30921467  0.16357867  1
  O  O221  1  0.78100267  0.91898533  0.97210133  1
  O  O222  1  0.93913167  0.24834633  0.83642133  1
  O  O223  1  0.71671967  0.28126633  0.71248133  1
  O  O224  1  0.88016733  0.40978467  0.07224167  1
  O  O225  1  0.46595300  0.87330600  0.42292400  1
  O  O226  1  0.95503300  0.05233000  0.12327000  1
  O  O227  1  0.97375133  0.23799067  0.32861567  1
  O  O228  1  0.76504867  0.02341933  0.82833533  1
  O  O229  1  0.92354867  0.13704933  0.73890833  1
  O  O230  1  0.02624867  0.26423933  0.67138433  1
  O  O231  1  0.47131600  0.88566400  0.63876800  1
  O  O232  1  0.53997267  0.79928633  0.91040933  1
  O  O233  1  0.09534267  0.40242733  0.99528233  1
  O  O234  1  0.59264700  0.12669400  0.57707600  1
  O  O235  1  0.94793300  0.05005300  0.62085200  1
  O  O236  1  0.03508733  0.21499267  0.86279167  1
  O  O237  1  0.38540033  0.76878667  0.04581467  1
  O  O238  1  0.11983267  0.52961733  0.92775833  1
  O  O239  1  0.59170400  0.90161800  0.49500200  1
  O  O240  1  0.74768133  0.19535067  0.30543467  1
  O  O241  1  0.10811733  0.52601467  0.13997267  1
  O  O242  1  0.28100333  0.56936967  0.78993667  1
  O  O243  1  0.69008600  0.09838200  0.50499800  1
  O  O244  1  0.80371600  0.25688200  0.59442500  1
  O  O245  1  0.63116400  0.11630500  0.96843300  1
  O  O246  1  0.78297167  0.96449733  0.36490033  1
  O  O247  1  0.74162933  0.97658067  0.17166467  1
  O  O248  1  0.81847433  0.03550267  0.63509967  1
  O  O249  1  0.55036167  0.84819233  0.30176633  1
  O  O250  1  0.86201733  0.08101467  0.02789867  1
  O  O251  1  0.71899667  0.28836633  0.21006333  1
  O  O252  1  0.90270300  0.94767000  0.87673000  1
  O  O253  1  0.25231867  0.44766933  0.69456533  1
  O  O254  1  0.74311800  0.54683400  0.59442500  1
  O  O255  1  0.57132400  0.64041800  0.33805100  1
  O  O256  1  0.63157933  0.51323867  0.47054167  1
  O  O257  1  0.43063033  0.71163367  0.78993667  1
  O  O258  1  0.71163367  0.43063033  0.21006333  1
  O  O259  1  0.53404700  0.40735300  0.57707600  1
  O  O260  1  0.31107600  0.24243100  0.33133700  1
  O  O261  1  0.42423567  0.40197833  0.66467033  1
  O  O262  1  0.26468833  0.35559067  0.99800367  1
  O  O263  1  0.85934800  0.77478400  0.52669400  1
  O  O264  1  0.30991400  0.40829600  0.49500200  1
  O  O265  1  0.82009467  0.78500733  0.13720833  1
  O  O266  1  0.46002733  0.25931367  0.08959067  1
  O  O267  1  0.58167967  0.60579833  0.83024533  1
  O  O268  1  0.28328033  0.56454667  0.28751867  1
  O  O269  1  0.86295067  0.78649933  0.73890833  1
  O  O270  1  0.47398533  0.58210267  0.13997267  1
  O  O271  1  0.75123067  0.55854933  0.80663933  1
  O  O272  1  0.21899733  0.13798267  0.02789867  1
  O  O273  1  0.18152567  0.21702833  0.36490033  1
  O  O274  1  0.78500733  0.82009467  0.86279167  1
  O  O275  1  0.54832600  0.70175400  0.80387500  1
  O  O276  1  0.69078533  0.75165367  0.16357867  1
  O  O277  1  0.75165367  0.69078533  0.83642133  1
  O  O278  1  0.36883600  0.48514100  0.03156700  1
  O  O279  1  0.10212000  0.05206700  0.62085200  1
  O  O280  1  0.58210267  0.47398533  0.86002733  1
  O  O281  1  0.51323867  0.63157933  0.52945833  1
  O  O282  1  0.64254800  0.72753500  0.50308800  1
  O  O283  1  0.40735300  0.53404700  0.42292400  1
  O  O284  1  0.40197833  0.42423567  0.33532967  1
  O  O285  1  0.35559067  0.26468833  0.00199633  1
  O  O286  1  0.56454667  0.28328033  0.71248133  1
  O  O287  1  0.55854933  0.75123067  0.19336067  1
  O  O288  1  0.24243100  0.31107600  0.66866300  1
  O  O289  1  0.59757267  0.69291533  0.99528233  1
  O  O290  1  0.23495133  0.25837067  0.17166467  1
  O  O291  1  0.73576067  0.76200933  0.67138433  1
  O  O292  1  0.72753500  0.64254800  0.49691200  1
  O  O293  1  0.44766933  0.25231867  0.30543467  1
  O  O294  1  0.60579833  0.58167967  0.16975467  1
  O  O295  1  0.38338633  0.61459967  0.04581467  1
  O  O296  1  0.54683400  0.74311800  0.40557500  1
  O  O297  1  0.13261967  0.20663933  0.75625733  1
  O  O298  1  0.62169967  0.38566333  0.45660333  1
  O  O299  1  0.64041800  0.57132400  0.66194900  1
  O  O300  1  0.43171533  0.35675267  0.16166867  1
  O  O301  1  0.59021533  0.47038267  0.07224167  1
  O  O302  1  0.69291533  0.59757267  0.00471767  1
  O  O303  1  0.13798267  0.21899733  0.97210133  1
  O  O304  1  0.20663933  0.13261967  0.24374267  1
  O  O305  1  0.76200933  0.73576067  0.32861567  1
  O  O306  1  0.25931367  0.46002733  0.91040933  1
  O  O307  1  0.61459967  0.38338633  0.95418533  1
  O  O308  1  0.70175400  0.54832600  0.19612500  1
  O  O309  1  0.05206700  0.10212000  0.37914800  1
  O  O310  1  0.78649933  0.86295067  0.26109167  1
  O  O311  1  0.25837067  0.23495133  0.82833533  1
  O  O312  1  0.41434800  0.52868400  0.63876800  1
  O  O313  1  0.77478400  0.85934800  0.47330600  1
  O  O314  1  0.94767000  0.90270300  0.12327000  1
  O  O315  1  0.35675267  0.43171533  0.83833133  1
  O  O316  1  0.47038267  0.59021533  0.92775833  1
  O  O317  1  0.29783067  0.44963833  0.30176633  1
  O  O318  1  0.44963833  0.29783067  0.69823367  1
  O  O319  1  0.40829600  0.30991400  0.50499800  1
  O  O320  1  0.48514100  0.36883600  0.96843300  1
  O  O321  1  0.21702833  0.18152567  0.63509967  1
  O  O322  1  0.52868400  0.41434800  0.36123200  1
  O  O323  1  0.38566333  0.62169967  0.54339667  1
  O  O324  1  0.56936967  0.28100333  0.21006333  1
  O  O325  1  0.91898533  0.78100267  0.02789867  1
  O  O326  1  0.40978467  0.88016733  0.92775833  1
  O  O327  1  0.23799067  0.97375133  0.67138433  1
  O  O328  1  0.29824600  0.84657200  0.80387500  1
  O  O329  1  0.09729700  0.04496700  0.12327000  1
  O  O330  1  0.37830033  0.76396367  0.54339667  1
  O  O331  1  0.20071367  0.74068633  0.91040933  1
  O  O332  1  0.97774267  0.57576433  0.66467033  1
  O  O333  1  0.09090233  0.73531167  0.99800367  1
  O  O334  1  0.93135500  0.68892400  0.33133700  1
  O  O335  1  0.52601467  0.10811733  0.86002733  1
  O  O336  1  0.97658067  0.74162933  0.82833533  1
  O  O337  1  0.48676133  0.11834067  0.47054167  1
  O  O338  1  0.12669400  0.59264700  0.42292400  1
  O  O339  1  0.24834633  0.93913167  0.16357867  1
  O  O340  1  0.94994700  0.89788000  0.62085200  1
  O  O341  1  0.52961733  0.11983267  0.07224167  1
  O  O342  1  0.14065200  0.91543600  0.47330600  1
  O  O343  1  0.41789733  0.89188267  0.13997267  1
  O  O344  1  0.88566400  0.47131600  0.36123200  1
  O  O345  1  0.84819233  0.55036167  0.69823367  1
  O  O346  1  0.45167400  0.15342800  0.19612500  1
  O  O347  1  0.21499267  0.03508733  0.13720833  1
  O  O348  1  0.35745200  0.08498700  0.49691200  1
  O  O349  1  0.41832033  0.02411867  0.16975467  1
  O  O350  1  0.03550267  0.81847433  0.36490033  1
  O  O351  1  0.76878667  0.38540033  0.95418533  1
  O  O352  1  0.24876933  0.80731867  0.19336067  1
  O  O353  1  0.17990533  0.96491267  0.86279167  1
  O  O354  1  0.30921467  0.06086833  0.83642133  1
  O  O355  1  0.07401967  0.86738033  0.75625733  1
  O  O356  1  0.06864500  0.75756900  0.66866300  1
  O  O357  1  0.02225733  0.59802167  0.33532967  1
  O  O358  1  0.23121333  0.61661367  0.04581467  1
  O  O359  1  0.22521600  0.08456400  0.52669400  1
  O  O360  1  0.90909767  0.64440933  0.00199633  1
  O  O361  1  0.26423933  0.02624867  0.32861567  1
  O  O362  1  0.90161800  0.59170400  0.50499800  1
  O  O363  1  0.40242733  0.09534267  0.00471767  1
  O  O364  1  0.39420167  0.97588133  0.83024533  1
  O  O365  1  0.11433600  0.58565200  0.63876800  1
  O  O366  1  0.27246500  0.91501300  0.50308800  1
  O  O367  1  0.05005300  0.94793300  0.37914800  1
  O  O368  1  0.21350067  0.07645133  0.73890833  1
  O  O369  1  0.79928633  0.53997267  0.08959067  1
  O  O370  1  0.28836633  0.71899667  0.78993667  1
  O  O371  1  0.30708467  0.90465733  0.99528233  1
  O  O372  1  0.09838200  0.69008600  0.49500200  1
  O  O373  1  0.25688200  0.80371600  0.40557500  1
  O  O374  1  0.35958200  0.93090600  0.33805100  1
  O  O375  1  0.80464933  0.55233067  0.30543467  1
  O  O376  1  0.87330600  0.46595300  0.57707600  1
  O  O377  1  0.42867600  0.06909400  0.66194900  1
  O  O378  1  0.92598033  0.79336067  0.24374267  1
  O  O379  1  0.28126633  0.71671967  0.28751867  1
  O  O380  1  0.36842067  0.88165933  0.52945833  1
  O  O381  1  0.71873367  0.43545333  0.71248133  1
  O  O382  1  0.45316600  0.19628400  0.59442500  1
  O  O383  1  0.92503733  0.56828467  0.16166867  1
  O  O384  1  0.08101467  0.86201733  0.97210133  1
  O  O385  1  0.44145067  0.19268133  0.80663933  1
  O  O386  1  0.61433667  0.23603633  0.45660333  1
  O  O387  1  0.02341933  0.76504867  0.17166467  1
  O  O388  1  0.13704933  0.92354867  0.26109167  1
  O  O389  1  0.96449733  0.78297167  0.63509967  1
  O  O390  1  0.11630500  0.63116400  0.03156700  1
  O  O391  1  0.07496267  0.64324733  0.83833133  1
  O  O392  1  0.15180767  0.70216933  0.30176633  1
  O  O393  1  0.88369500  0.51485900  0.96843300  1
  O  O394  1  0.19535067  0.74768133  0.69456533  1
  O  O395  1  0.05233000  0.95503300  0.87673000  1
