# generated using pymatgen
data_BaCO3
_symmetry_space_group_name_H-M   'P 1'
_cell_length_a   4.48615500
_cell_length_b   5.46667700
_cell_length_c   7.06090800
_cell_angle_alpha   90.00000000
_cell_angle_beta   90.00000000
_cell_angle_gamma   90.00000000
_symmetry_Int_Tables_number   1
_chemical_formula_structural   BaCO3
_chemical_formula_sum   'Ba2 C2 O6'
_cell_volume   173.16425224
_cell_formula_units_Z   2
loop_
 _symmetry_equiv_pos_site_id
 _symmetry_equiv_pos_as_xyz
  1  'x, y, z'
loop_
 _atom_site_type_symbol
 _atom_site_label
 _atom_site_symmetry_multiplicity
 _atom_site_fract_x
 _atom_site_fract_y
 _atom_site_fract_z
 _atom_site_occupancy
  Ba  Ba0  1  0.50000000  0.98919900  0.50000000  1
  Ba  Ba1  1  0.00000000  0.48919900  0.00000000  1
  C  C2  1  0.50000000  0.99993800  0.00000000  1
  C  C3  1  0.00000000  0.49993800  0.50000000  1
  O  O4  1  0.50000000  0.76208800  0.00000000  1
  O  O5  1  0.86470100  0.62877200  0.36625500  1
  O  O6  1  0.00000000  0.26208800  0.50000000  1
  O  O7  1  0.63529900  0.12877200  0.86625500  1
  O  O8  1  0.13529900  0.62877200  0.63374500  1
  O  O9  1  0.36470100  0.12877200  0.13374500  1
