# generated using pymatgen
data_BaNd2ZnO5
_symmetry_space_group_name_H-M   'P 1'
_cell_length_a   6.82223200
_cell_length_b   6.82223200
_cell_length_c   11.70687600
_cell_angle_alpha   90.00000000
_cell_angle_beta   90.00000000
_cell_angle_gamma   90.00000000
_symmetry_Int_Tables_number   1
_chemical_formula_structural   BaNd2ZnO5
_chemical_formula_sum   'Ba4 Nd8 Zn4 O20'
_cell_volume   544.87136734
_cell_formula_units_Z   4
loop_
 _symmetry_equiv_pos_site_id
 _symmetry_equiv_pos_as_xyz
  1  'x, y, z'
loop_
 _atom_site_type_symbol
 _atom_site_label
 _atom_site_symmetry_multiplicity
 _atom_site_fract_x
 _atom_site_fract_y
 _atom_site_fract_z
 _atom_site_occupancy
  Ba  Ba0  1  0.00000000  0.00000000  0.25000000  1
  Ba  Ba1  1  0.50000000  0.50000000  0.25000000  1
  Ba  Ba2  1  0.50000000  0.50000000  0.75000000  1
  Ba  Ba3  1  0.00000000  0.00000000  0.75000000  1
  Nd  Nd4  1  0.17407000  0.32593000  0.00000000  1
  Nd  Nd5  1  0.67407000  0.17407000  0.00000000  1
  Nd  Nd6  1  0.32593000  0.82593000  0.00000000  1
  Nd  Nd7  1  0.82593000  0.67407000  0.00000000  1
  Nd  Nd8  1  0.67407000  0.82593000  0.50000000  1
  Nd  Nd9  1  0.17407000  0.67407000  0.50000000  1
  Nd  Nd10  1  0.82593000  0.32593000  0.50000000  1
  Nd  Nd11  1  0.32593000  0.17407000  0.50000000  1
  Zn  Zn12  1  0.00000000  0.50000000  0.25000000  1
  Zn  Zn13  1  0.50000000  0.00000000  0.25000000  1
  Zn  Zn14  1  0.50000000  0.00000000  0.75000000  1
  Zn  Zn15  1  0.00000000  0.50000000  0.75000000  1
  O  O16  1  0.14455950  0.64455950  0.13035150  1
  O  O17  1  0.64455950  0.14455950  0.36964850  1
  O  O18  1  0.35544050  0.85544050  0.36964850  1
  O  O19  1  0.14455950  0.35544050  0.36964850  1
  O  O20  1  0.85544050  0.64455950  0.36964850  1
  O  O21  1  0.35544050  0.14455950  0.13035150  1
  O  O22  1  0.64455950  0.85544050  0.13035150  1
  O  O23  1  0.85544050  0.35544050  0.13035150  1
  O  O24  1  0.50000000  0.50000000  0.00000000  1
  O  O25  1  0.00000000  0.00000000  0.00000000  1
  O  O26  1  0.64455950  0.14455950  0.63035150  1
  O  O27  1  0.14455950  0.64455950  0.86964850  1
  O  O28  1  0.85544050  0.35544050  0.86964850  1
  O  O29  1  0.64455950  0.85544050  0.86964850  1
  O  O30  1  0.35544050  0.14455950  0.86964850  1
  O  O31  1  0.85544050  0.64455950  0.63035150  1
  O  O32  1  0.14455950  0.35544050  0.63035150  1
  O  O33  1  0.35544050  0.85544050  0.63035150  1
  O  O34  1  0.00000000  0.00000000  0.50000000  1
  O  O35  1  0.50000000  0.50000000  0.50000000  1
