# generated using pymatgen
data_Yb(SbTe2)2
_symmetry_space_group_name_H-M   'P 1'
_cell_length_a   9.87907400
_cell_length_b   9.87907400
_cell_length_c   9.66696200
_cell_angle_alpha   90.00000000
_cell_angle_beta   90.00000000
_cell_angle_gamma   90.00000000
_symmetry_Int_Tables_number   1
_chemical_formula_structural   Yb(SbTe2)2
_chemical_formula_sum   'Yb4 Sb8 Te16'
_cell_volume   943.45781999
_cell_formula_units_Z   4
loop_
 _symmetry_equiv_pos_site_id
 _symmetry_equiv_pos_as_xyz
  1  'x, y, z'
loop_
 _atom_site_type_symbol
 _atom_site_label
 _atom_site_symmetry_multiplicity
 _atom_site_fract_x
 _atom_site_fract_y
 _atom_site_fract_z
 _atom_site_occupancy
  Yb  Yb0  1  0.50000000  0.50000000  0.50000000  1
  Yb  Yb1  1  0.50000000  0.00000000  0.25000000  1
  Yb  Yb2  1  0.00000000  0.00000000  0.00000000  1
  Yb  Yb3  1  0.00000000  0.50000000  0.75000000  1
  Sb  Sb4  1  0.49079100  0.25000000  0.87500000  1
  Sb  Sb5  1  0.00920900  0.25000000  0.37500000  1
  Sb  Sb6  1  0.75000000  0.49079100  0.12500000  1
  Sb  Sb7  1  0.75000000  0.00920900  0.62500000  1
  Sb  Sb8  1  0.99079100  0.75000000  0.37500000  1
  Sb  Sb9  1  0.50920900  0.75000000  0.87500000  1
  Sb  Sb10  1  0.25000000  0.99079100  0.62500000  1
  Sb  Sb11  1  0.25000000  0.50920900  0.12500000  1
  Te  Te12  1  0.02988600  0.18884200  0.68700700  1
  Te  Te13  1  0.81115800  0.47011400  0.43700700  1
  Te  Te14  1  0.02988600  0.31115800  0.06299300  1
  Te  Te15  1  0.68884200  0.02988600  0.93700700  1
  Te  Te16  1  0.18884200  0.97011400  0.31299300  1
  Te  Te17  1  0.97011400  0.81115800  0.68700700  1
  Te  Te18  1  0.81115800  0.02988600  0.31299300  1
  Te  Te19  1  0.47011400  0.18884200  0.56299300  1
  Te  Te20  1  0.52988600  0.68884200  0.18700700  1
  Te  Te21  1  0.31115800  0.97011400  0.93700700  1
  Te  Te22  1  0.52988600  0.81115800  0.56299300  1
  Te  Te23  1  0.18884200  0.52988600  0.43700700  1
  Te  Te24  1  0.68884200  0.47011400  0.81299300  1
  Te  Te25  1  0.47011400  0.31115800  0.18700700  1
  Te  Te26  1  0.31115800  0.52988600  0.81299300  1
  Te  Te27  1  0.97011400  0.68884200  0.06299300  1
