# generated using pymatgen
data_Sr(GaTe2)2
_symmetry_space_group_name_H-M   'P 1'
_cell_length_a   6.80549200
_cell_length_b   11.83635800
_cell_length_c   11.90829900
_cell_angle_alpha   90.00000000
_cell_angle_beta   90.00000000
_cell_angle_gamma   90.00000000
_symmetry_Int_Tables_number   1
_chemical_formula_structural   Sr(GaTe2)2
_chemical_formula_sum   'Sr4 Ga8 Te16'
_cell_volume   959.24015521
_cell_formula_units_Z   4
loop_
 _symmetry_equiv_pos_site_id
 _symmetry_equiv_pos_as_xyz
  1  'x, y, z'
loop_
 _atom_site_type_symbol
 _atom_site_label
 _atom_site_symmetry_multiplicity
 _atom_site_fract_x
 _atom_site_fract_y
 _atom_site_fract_z
 _atom_site_occupancy
  Sr  Sr0  1  0.50000000  0.00000000  0.75000000  1
  Sr  Sr1  1  0.50000000  0.00000000  0.25000000  1
  Sr  Sr2  1  0.00000000  0.50000000  0.75000000  1
  Sr  Sr3  1  0.00000000  0.50000000  0.25000000  1
  Ga  Ga4  1  0.50147650  0.25986250  0.00000000  1
  Ga  Ga5  1  0.99852350  0.24013750  0.00000000  1
  Ga  Ga6  1  0.49852350  0.25986250  0.50000000  1
  Ga  Ga7  1  0.00147650  0.24013750  0.50000000  1
  Ga  Ga8  1  0.00147650  0.75986250  0.00000000  1
  Ga  Ga9  1  0.49852350  0.74013750  0.00000000  1
  Ga  Ga10  1  0.99852350  0.75986250  0.50000000  1
  Ga  Ga11  1  0.50147650  0.74013750  0.50000000  1
  Te  Te12  1  0.73305700  0.07663300  0.50000000  1
  Te  Te13  1  0.76694300  0.42336700  0.50000000  1
  Te  Te14  1  0.23305700  0.42336700  0.00000000  1
  Te  Te15  1  0.26694300  0.07663300  0.00000000  1
  Te  Te16  1  0.75000000  0.25000000  0.17366600  1
  Te  Te17  1  0.25000000  0.25000000  0.32633400  1
  Te  Te18  1  0.75000000  0.25000000  0.82633400  1
  Te  Te19  1  0.25000000  0.25000000  0.67366600  1
  Te  Te20  1  0.23305700  0.57663300  0.50000000  1
  Te  Te21  1  0.26694300  0.92336700  0.50000000  1
  Te  Te22  1  0.73305700  0.92336700  0.00000000  1
  Te  Te23  1  0.76694300  0.57663300  0.00000000  1
  Te  Te24  1  0.25000000  0.75000000  0.17366600  1
  Te  Te25  1  0.75000000  0.75000000  0.32633400  1
  Te  Te26  1  0.25000000  0.75000000  0.82633400  1
  Te  Te27  1  0.75000000  0.75000000  0.67366600  1
