# generated using pymatgen
data_Bi15AsO25
_symmetry_space_group_name_H-M   'P 1'
_cell_length_a   14.70198173
_cell_length_b   14.70198173
_cell_length_c   45.02437512
_cell_angle_alpha   90.00000000
_cell_angle_beta   90.00000000
_cell_angle_gamma   120.00000000
_symmetry_Int_Tables_number   1
_chemical_formula_structural   Bi15AsO25
_chemical_formula_sum   'Bi180 As12 O300'
_cell_volume   8428.10782826
_cell_formula_units_Z   12
loop_
 _symmetry_equiv_pos_site_id
 _symmetry_equiv_pos_as_xyz
  1  'x, y, z'
loop_
 _atom_site_type_symbol
 _atom_site_label
 _atom_site_symmetry_multiplicity
 _atom_site_fract_x
 _atom_site_fract_y
 _atom_site_fract_z
 _atom_site_occupancy
  Bi  Bi0  1  0.01713167  0.83354433  0.26542133  1
  Bi  Bi1  1  0.88196033  0.59516767  0.31648567  1
  Bi  Bi2  1  0.15587833  0.01037367  0.32978867  1
  Bi  Bi3  1  0.39237367  0.44266433  0.05090233  1
  Bi  Bi4  1  0.14561233  0.16144167  0.06304367  1
  Bi  Bi5  1  0.60484233  0.69916667  0.08711067  1
  Bi  Bi6  1  0.37913400  0.26996600  0.11591000  1
  Bi  Bi7  1  0.35268467  0.50320733  0.12966533  1
  Bi  Bi8  1  0.85105700  0.84846200  0.13121900  1
  Bi  Bi9  1  0.63643367  0.56640133  0.15559033  1
  Bi  Bi10  1  0.21620200  0.28082800  0.18497500  1
  Bi  Bi11  1  0.48346300  0.30912600  0.19820300  1
  Bi  Bi12  1  0.48542033  0.66989067  0.19656767  1
  Bi  Bi13  1  0.76244267  0.72705933  0.22318433  1
  Bi  Bi14  1  0.39667233  0.44994067  0.24979467  1
  Bi  Bi15  1  0.16645567  0.18358733  0.26542133  1
  Bi  Bi16  1  0.65301633  0.47612167  0.26949867  1
  Bi  Bi17  1  0.59904867  0.70202033  0.28921333  1
  Bi  Bi18  1  0.40483233  0.28679267  0.31648567  1
  Bi  Bi19  1  0.34926367  0.50296833  0.33000833  1
  Bi  Bi20  1  0.85449533  0.84412167  0.32978867  1
  Bi  Bi21  1  0.95913500  0.21848600  0.01797900  1
  Bi  Bi22  1  0.55733567  0.94970933  0.05090233  1
  Bi  Bi23  1  0.83855833  0.98417067  0.06304367  1
  Bi  Bi24  1  0.81978867  0.33582333  0.06245733  1
  Bi  Bi25  1  0.09432433  0.39515767  0.08711067  1
  Bi  Bi26  1  0.73003400  0.10916800  0.11591000  1
  Bi  Bi27  1  0.49679267  0.84947733  0.12966533  1
  Bi  Bi28  1  0.99740500  0.14894300  0.13121900  1
  Bi  Bi29  1  0.92996767  0.36356633  0.15559033  1
  Bi  Bi30  1  0.71917200  0.93537400  0.18497500  1
  Bi  Bi31  1  0.69087400  0.17433700  0.19820300  1
  Bi  Bi32  1  0.18447033  0.51457967  0.19656767  1
  Bi  Bi33  1  0.96461667  0.23755733  0.22318433  1
  Bi  Bi34  1  0.55005933  0.94673167  0.24979467  1
  Bi  Bi35  1  0.81641267  0.98286833  0.26542133  1
  Bi  Bi36  1  0.82310533  0.34698367  0.26949867  1
  Bi  Bi37  1  0.10297167  0.40095133  0.28921333  1
  Bi  Bi38  1  0.71320733  0.11803967  0.31648567  1
  Bi  Bi39  1  0.49703167  0.84629533  0.33000833  1
  Bi  Bi40  1  0.98962633  0.14550467  0.32978867  1
  Bi  Bi41  1  0.25935100  0.04086500  0.01797900  1
  Bi  Bi42  1  0.05029067  0.60762633  0.05090233  1
  Bi  Bi43  1  0.01582933  0.85438767  0.06304367  1
  Bi  Bi44  1  0.51603467  0.18021133  0.06245733  1
  Bi  Bi45  1  0.30083333  0.90567567  0.08711067  1
  Bi  Bi46  1  0.89083200  0.62086600  0.11591000  1
  Bi  Bi47  1  0.15052267  0.64731533  0.12966533  1
  Bi  Bi48  1  0.15153800  0.00259500  0.13121900  1
  Bi  Bi49  1  0.43359867  0.07003233  0.15559033  1
  Bi  Bi50  1  0.06462600  0.78379800  0.18497500  1
  Bi  Bi51  1  0.82566300  0.51653700  0.19820300  1
  Bi  Bi52  1  0.33010933  0.81552967  0.19656767  1
  Bi  Bi53  1  0.27294067  0.03538333  0.22318433  1
  Bi  Bi54  1  0.05326833  0.60332767  0.24979467  1
  Bi  Bi55  1  0.52387833  0.17689467  0.26949867  1
  Bi  Bi56  1  0.29797967  0.89702833  0.28921333  1
  Bi  Bi57  1  0.15370467  0.65073633  0.33000833  1
  Bi  Bi58  1  0.78151400  0.74064900  0.01797900  1
  Bi  Bi59  1  0.66417667  0.48396533  0.06245733  1
  Bi  Bi60  1  0.68379833  0.16687767  0.59875467  1
  Bi  Bi61  1  0.54862700  0.92850100  0.64981900  1
  Bi  Bi62  1  0.82254500  0.34370700  0.66312200  1
  Bi  Bi63  1  0.05904033  0.77599767  0.38423567  1
  Bi  Bi64  1  0.81227900  0.49477500  0.39637700  1
  Bi  Bi65  1  0.27150900  0.03250000  0.42044400  1
  Bi  Bi66  1  0.04580067  0.60329933  0.44924333  1
  Bi  Bi67  1  0.01935133  0.83654067  0.46299867  1
  Bi  Bi68  1  0.51772367  0.18179533  0.46455233  1
  Bi  Bi69  1  0.30310033  0.89973467  0.48892367  1
  Bi  Bi70  1  0.88286867  0.61416133  0.51830833  1
  Bi  Bi71  1  0.15012967  0.64245933  0.53153633  1
  Bi  Bi72  1  0.15208700  0.00322400  0.52990100  1
  Bi  Bi73  1  0.42910933  0.06039267  0.55651767  1
  Bi  Bi74  1  0.06333900  0.78327400  0.58312800  1
  Bi  Bi75  1  0.83312233  0.51692067  0.59875467  1
  Bi  Bi76  1  0.31968300  0.80945500  0.60283200  1
  Bi  Bi77  1  0.26571533  0.03535367  0.62254667  1
  Bi  Bi78  1  0.07149900  0.62012600  0.64981900  1
  Bi  Bi79  1  0.01593033  0.83630167  0.66334167  1
  Bi  Bi80  1  0.52116200  0.17745500  0.66312200  1
  Bi  Bi81  1  0.62580167  0.55181933  0.35131233  1
  Bi  Bi82  1  0.22400233  0.28304267  0.38423567  1
  Bi  Bi83  1  0.50522500  0.31750400  0.39637700  1
  Bi  Bi84  1  0.48645533  0.66915667  0.39579067  1
  Bi  Bi85  1  0.76099100  0.72849100  0.42044400  1
  Bi  Bi86  1  0.39670067  0.44250133  0.44924333  1
  Bi  Bi87  1  0.16345933  0.18281067  0.46299867  1
  Bi  Bi88  1  0.66407167  0.48227633  0.46455233  1
  Bi  Bi89  1  0.59663433  0.69689967  0.48892367  1
  Bi  Bi90  1  0.38583867  0.26870733  0.51830833  1
  Bi  Bi91  1  0.35754067  0.50767033  0.53153633  1
  Bi  Bi92  1  0.85113700  0.84791300  0.52990100  1
  Bi  Bi93  1  0.63128333  0.57089067  0.55651767  1
  Bi  Bi94  1  0.21672600  0.28006500  0.58312800  1
  Bi  Bi95  1  0.48307933  0.31620167  0.59875467  1
  Bi  Bi96  1  0.48977200  0.68031700  0.60283200  1
  Bi  Bi97  1  0.76963833  0.73428467  0.62254667  1
  Bi  Bi98  1  0.37987400  0.45137300  0.64981900  1
  Bi  Bi99  1  0.16369833  0.17962867  0.66334167  1
  Bi  Bi100  1  0.65629300  0.47883800  0.66312200  1
  Bi  Bi101  1  0.92601767  0.37419833  0.35131233  1
  Bi  Bi102  1  0.71695733  0.94095967  0.38423567  1
  Bi  Bi103  1  0.68249600  0.18772100  0.39637700  1
  Bi  Bi104  1  0.18270133  0.51354467  0.39579067  1
  Bi  Bi105  1  0.96750000  0.23900900  0.42044400  1
  Bi  Bi106  1  0.55749867  0.95419933  0.44924333  1
  Bi  Bi107  1  0.81718933  0.98064867  0.46299867  1
  Bi  Bi108  1  0.81820467  0.33592833  0.46455233  1
  Bi  Bi109  1  0.10026533  0.40336567  0.48892367  1
  Bi  Bi110  1  0.73129267  0.11713133  0.51830833  1
  Bi  Bi111  1  0.49232967  0.84987033  0.53153633  1
  Bi  Bi112  1  0.99677600  0.14886300  0.52990100  1
  Bi  Bi113  1  0.93960733  0.36871667  0.55651767  1
  Bi  Bi114  1  0.71993500  0.93666100  0.58312800  1
  Bi  Bi115  1  0.19054500  0.51022800  0.60283200  1
  Bi  Bi116  1  0.96464633  0.23036167  0.62254667  1
  Bi  Bi117  1  0.82037133  0.98406967  0.66334167  1
  Bi  Bi118  1  0.44818067  0.07398233  0.35131233  1
  Bi  Bi119  1  0.33084333  0.81729867  0.39579067  1
  Bi  Bi120  1  0.35046500  0.50021100  0.93208800  1
  Bi  Bi121  1  0.21529367  0.26183433  0.98315233  1
  Bi  Bi122  1  0.48921167  0.67704033  0.99645533  1
  Bi  Bi123  1  0.72570700  0.10933100  0.71756900  1
  Bi  Bi124  1  0.47894567  0.82810833  0.72971033  1
  Bi  Bi125  1  0.93817567  0.36583333  0.75377733  1
  Bi  Bi126  1  0.71246733  0.93663267  0.78257667  1
  Bi  Bi127  1  0.68601800  0.16987400  0.79633200  1
  Bi  Bi128  1  0.18439033  0.51512867  0.79788567  1
  Bi  Bi129  1  0.96976700  0.23306800  0.82225700  1
  Bi  Bi130  1  0.54953533  0.94749467  0.85164167  1
  Bi  Bi131  1  0.81679633  0.97579267  0.86486967  1
  Bi  Bi132  1  0.81875367  0.33655733  0.86323433  1
  Bi  Bi133  1  0.09577600  0.39372600  0.88985100  1
  Bi  Bi134  1  0.73000567  0.11660733  0.91646133  1
  Bi  Bi135  1  0.49978900  0.85025400  0.93208800  1
  Bi  Bi136  1  0.98634967  0.14278833  0.93616533  1
  Bi  Bi137  1  0.93238200  0.36868700  0.95588000  1
  Bi  Bi138  1  0.73816567  0.95345933  0.98315233  1
  Bi  Bi139  1  0.68259700  0.16963500  0.99667500  1
  Bi  Bi140  1  0.18782867  0.51078833  0.99645533  1
  Bi  Bi141  1  0.29246833  0.88515267  0.68464567  1
  Bi  Bi142  1  0.89066900  0.61637600  0.71756900  1
  Bi  Bi143  1  0.17189167  0.65083733  0.72971033  1
  Bi  Bi144  1  0.15312200  0.00249000  0.72912400  1
  Bi  Bi145  1  0.42765767  0.06182433  0.75377733  1
  Bi  Bi146  1  0.06336733  0.77583467  0.78257667  1
  Bi  Bi147  1  0.83012600  0.51614400  0.79633200  1
  Bi  Bi148  1  0.33073833  0.81560967  0.79788567  1
  Bi  Bi149  1  0.26330100  0.03023300  0.82225700  1
  Bi  Bi150  1  0.05250533  0.60204067  0.85164167  1
  Bi  Bi151  1  0.02420733  0.84100367  0.86486967  1
  Bi  Bi152  1  0.51780367  0.18124633  0.86323433  1
  Bi  Bi153  1  0.29795000  0.90422400  0.88985100  1
  Bi  Bi154  1  0.88339267  0.61339833  0.91646133  1
  Bi  Bi155  1  0.14974600  0.64953500  0.93208800  1
  Bi  Bi156  1  0.15643867  0.01365033  0.93616533  1
  Bi  Bi157  1  0.43630500  0.06761800  0.95588000  1
  Bi  Bi158  1  0.04654067  0.78470633  0.98315233  1
  Bi  Bi159  1  0.83036500  0.51296200  0.99667500  1
  Bi  Bi160  1  0.32295967  0.81217133  0.99645533  1
  Bi  Bi161  1  0.59268433  0.70753167  0.68464567  1
  Bi  Bi162  1  0.38362400  0.27429300  0.71756900  1
  Bi  Bi163  1  0.34916267  0.52105433  0.72971033  1
  Bi  Bi164  1  0.84936800  0.84687800  0.72912400  1
  Bi  Bi165  1  0.63416667  0.57234233  0.75377733  1
  Bi  Bi166  1  0.22416533  0.28753267  0.78257667  1
  Bi  Bi167  1  0.48385600  0.31398200  0.79633200  1
  Bi  Bi168  1  0.48487133  0.66926167  0.79788567  1
  Bi  Bi169  1  0.76693200  0.73669900  0.82225700  1
  Bi  Bi170  1  0.39795933  0.45046467  0.85164167  1
  Bi  Bi171  1  0.15899633  0.18320367  0.86486967  1
  Bi  Bi172  1  0.66344267  0.48219633  0.86323433  1
  Bi  Bi173  1  0.60627400  0.70205000  0.88985100  1
  Bi  Bi174  1  0.38660167  0.26999433  0.91646133  1
  Bi  Bi175  1  0.85721167  0.84356133  0.93616533  1
  Bi  Bi176  1  0.63131300  0.56369500  0.95588000  1
  Bi  Bi177  1  0.48703800  0.31740300  0.99667500  1
  Bi  Bi178  1  0.11484733  0.40731567  0.68464567  1
  Bi  Bi179  1  0.99751000  0.15063200  0.72912400  1
  As  As180  1  0.00000000  0.00000000  0.20069800  1
  As  As181  1  0.33333333  0.66666667  0.06653767  1
  As  As182  1  0.33333333  0.66666667  0.26661767  1
  As  As183  1  0.66666667  0.33333333  0.13302433  1
  As  As184  1  0.66666667  0.33333333  0.53403133  1
  As  As185  1  0.00000000  0.00000000  0.39987100  1
  As  As186  1  0.00000000  0.00000000  0.59995100  1
  As  As187  1  0.33333333  0.66666667  0.46635767  1
  As  As188  1  0.33333333  0.66666667  0.86736467  1
  As  As189  1  0.66666667  0.33333333  0.73320433  1
  As  As190  1  0.66666667  0.33333333  0.93328433  1
  As  As191  1  0.00000000  0.00000000  0.79969100  1
  O  O192  1  0.00000000  0.00000000  0.05466000  1
  O  O193  1  0.00000000  0.00000000  0.12307100  1
  O  O194  1  0.93728567  0.87151933  0.18741933  1
  O  O195  1  0.12848067  0.06576633  0.18741933  1
  O  O196  1  0.00000000  0.00000000  0.23896800  1
  O  O197  1  0.15908533  0.95497467  0.28400567  1
  O  O198  1  0.33934433  0.03856967  0.31604067  1
  O  O199  1  0.95345500  0.78669500  0.31646000  1
  O  O200  1  0.00000000  0.00000000  0.32044400  1
  O  O201  1  0.75451100  0.87703900  0.02460400  1
  O  O202  1  0.12252800  0.24548900  0.02460400  1
  O  O203  1  0.63061633  0.63001367  0.04979867  1
  O  O204  1  0.26944600  0.53791600  0.05387200  1
  O  O205  1  0.46208400  0.73153000  0.05387200  1
  O  O206  1  0.29093733  0.33218967  0.08227867  1
  O  O207  1  0.79984200  0.84038000  0.08447600  1
  O  O208  1  0.46657500  0.53474900  0.09304500  1
  O  O209  1  0.33333333  0.66666667  0.10507767  1
  O  O210  1  0.70190200  0.66236400  0.11730600  1
  O  O211  1  0.20804667  0.16118033  0.11891733  1
  O  O212  1  0.37697633  0.37672367  0.14720567  1
  O  O213  1  0.49096300  0.62268600  0.15064000  1
  O  O214  1  0.67241133  0.70544467  0.18394667  1
  O  O215  1  0.28420267  0.45413633  0.18509833  1
  O  O216  1  0.33333333  0.66666667  0.18731767  1
  O  O217  1  0.33202833  0.28915867  0.21476967  1
  O  O218  1  0.70893633  0.54076767  0.21711567  1
  O  O219  1  0.73357433  0.86629467  0.22710667  1
  O  O220  1  0.13272033  0.26642567  0.22710667  1
  O  O221  1  0.62213867  0.63299133  0.25067233  1
  O  O222  1  0.49997167  0.38064333  0.25171533  1
  O  O223  1  0.46169233  0.73105467  0.25362867  1
  O  O224  1  0.26936233  0.53830767  0.25362867  1
  O  O225  1  0.29129967  0.33945633  0.28099133  1
  O  O226  1  0.79588933  0.84091467  0.28400567  1
  O  O227  1  0.46128100  0.53866700  0.29219000  1
  O  O228  1  0.33333333  0.66666667  0.30506467  1
  O  O229  1  0.69922533  0.66065567  0.31604067  1
  O  O230  1  0.21330500  0.16676000  0.31646000  1
  O  O231  1  0.57539267  0.42431933  0.31494933  1
  O  O232  1  0.71154367  0.04597033  0.01451633  1
  O  O233  1  0.82332500  0.29010500  0.01576200  1
  O  O234  1  0.99939733  0.36938367  0.04979867  1
  O  O235  1  0.61818767  0.12196533  0.05114833  1
  O  O236  1  0.66666667  0.33333333  0.05297133  1
  O  O237  1  0.66781033  0.95874767  0.08227867  1
  O  O238  1  0.04053800  0.20015800  0.08447600  1
  O  O239  1  0.06817400  0.53342500  0.09304500  1
  O  O240  1  0.46525100  0.93182600  0.09304500  1
  O  O241  1  0.96046200  0.29809800  0.11730600  1
  O  O242  1  0.83881967  0.04686633  0.11891733  1
  O  O243  1  0.60027833  0.20462167  0.12040167  1
  O  O244  1  0.79537833  0.39565667  0.12040167  1
  O  O245  1  0.62327633  0.00025267  0.14720567  1
  O  O246  1  0.13172300  0.50903700  0.15064000  1
  O  O247  1  0.79884867  0.19892233  0.15970133  1
  O  O248  1  0.66666667  0.33333333  0.17178133  1
  O  O249  1  0.03303333  0.32758867  0.18394667  1
  O  O250  1  0.54586367  0.83006633  0.18509833  1
  O  O251  1  0.93423367  0.06271433  0.18741933  1
  O  O252  1  0.71084133  0.04286967  0.21476967  1
  O  O253  1  0.83183133  0.29106367  0.21711567  1
  O  O254  1  0.01085267  0.37786133  0.25067233  1
  O  O255  1  0.61935667  0.11932833  0.25171533  1
  O  O256  1  0.66666667  0.33333333  0.26002933  1
  O  O257  1  0.66054367  0.95184333  0.28099133  1
  O  O258  1  0.04502533  0.20411067  0.28400567  1
  O  O259  1  0.07738600  0.53871900  0.29219000  1
  O  O260  1  0.46133300  0.92261400  0.29219000  1
  O  O261  1  0.96143033  0.30077467  0.31604067  1
  O  O262  1  0.83324000  0.04654500  0.31646000  1
  O  O263  1  0.57568067  0.15107333  0.31494933  1
  O  O264  1  0.84892667  0.42460733  0.31494933  1
  O  O265  1  0.95402967  0.66557333  0.01451633  1
  O  O266  1  0.46678000  0.17667500  0.01576200  1
  O  O267  1  0.12296100  0.87747200  0.02460400  1
  O  O268  1  0.36998633  0.00060267  0.04979867  1
  O  O269  1  0.87803467  0.49622233  0.05114833  1
  O  O270  1  0.26847000  0.73055400  0.05387200  1
  O  O271  1  0.04125233  0.70906267  0.08227867  1
  O  O272  1  0.15962000  0.95946200  0.08447600  1
  O  O273  1  0.33763600  0.03953800  0.11730600  1
  O  O274  1  0.95313367  0.79195333  0.11891733  1
  O  O275  1  0.99974733  0.62302367  0.14720567  1
  O  O276  1  0.37731400  0.86827700  0.15064000  1
  O  O277  1  0.40007367  0.20115133  0.15970133  1
  O  O278  1  0.80107767  0.59992633  0.15970133  1
  O  O279  1  0.29455533  0.96696667  0.18394667  1
  O  O280  1  0.16993367  0.71579733  0.18509833  1
  O  O281  1  0.95713033  0.66797167  0.21476967  1
  O  O282  1  0.45923233  0.16816867  0.21711567  1
  O  O283  1  0.13370533  0.86727967  0.22710667  1
  O  O284  1  0.36700867  0.98914733  0.25067233  1
  O  O285  1  0.88067167  0.50002833  0.25171533  1
  O  O286  1  0.26894533  0.73063767  0.25362867  1
  O  O287  1  0.04815667  0.70870033  0.28099133  1
  O  O288  1  0.33442667  0.28845633  0.01451633  1
  O  O289  1  0.70989500  0.53322000  0.01576200  1
  O  O290  1  0.50377767  0.38181233  0.05114833  1
  O  O291  1  0.60434333  0.39972167  0.12040167  1
  O  O292  1  0.66666667  0.33333333  0.38799333  1
  O  O293  1  0.66666667  0.33333333  0.45640433  1
  O  O294  1  0.60395233  0.20485267  0.52075267  1
  O  O295  1  0.79514733  0.39909967  0.52075267  1
  O  O296  1  0.66666667  0.33333333  0.57230133  1
  O  O297  1  0.82575200  0.28830800  0.61733900  1
  O  O298  1  0.00601100  0.37190300  0.64937400  1
  O  O299  1  0.62012167  0.12002833  0.64979333  1
  O  O300  1  0.66666667  0.33333333  0.65377733  1
  O  O301  1  0.42117767  0.21037233  0.35793733  1
  O  O302  1  0.78919467  0.57882233  0.35793733  1
  O  O303  1  0.29728300  0.96334700  0.38313200  1
  O  O304  1  0.93611267  0.87124933  0.38720533  1
  O  O305  1  0.12875067  0.06486333  0.38720533  1
  O  O306  1  0.95760400  0.66552300  0.41561200  1
  O  O307  1  0.46650867  0.17371333  0.41780933  1
  O  O308  1  0.13324167  0.86808233  0.42637833  1
  O  O309  1  0.00000000  0.00000000  0.43841100  1
  O  O310  1  0.36856867  0.99569733  0.45063933  1
  O  O311  1  0.87471333  0.49451367  0.45225067  1
  O  O312  1  0.04364300  0.71005700  0.48053900  1
  O  O313  1  0.15762967  0.95601933  0.48397333  1
  O  O314  1  0.33907800  0.03877800  0.51728000  1
  O  O315  1  0.95086933  0.78746967  0.51843167  1
  O  O316  1  0.00000000  0.00000000  0.52065100  1
  O  O317  1  0.99869500  0.62249200  0.54810300  1
  O  O318  1  0.37560300  0.87410100  0.55044900  1
  O  O319  1  0.40024100  0.19962800  0.56044000  1
  O  O320  1  0.79938700  0.59975900  0.56044000  1
  O  O321  1  0.28880533  0.96632467  0.58400567  1
  O  O322  1  0.16663833  0.71397667  0.58504867  1
  O  O323  1  0.12835900  0.06438800  0.58696200  1
  O  O324  1  0.93602900  0.87164100  0.58696200  1
  O  O325  1  0.95796633  0.67278967  0.61432467  1
  O  O326  1  0.46255600  0.17424800  0.61733900  1
  O  O327  1  0.12794767  0.87200033  0.62552333  1
  O  O328  1  0.00000000  0.00000000  0.63839800  1
  O  O329  1  0.36589200  0.99398900  0.64937400  1
  O  O330  1  0.87997167  0.50009333  0.64979333  1
  O  O331  1  0.24205933  0.75765267  0.64828267  1
  O  O332  1  0.37821033  0.37930367  0.34784967  1
  O  O333  1  0.48999167  0.62343833  0.34909533  1
  O  O334  1  0.66606400  0.70271700  0.38313200  1
  O  O335  1  0.28485433  0.45529867  0.38448167  1
  O  O336  1  0.33333333  0.66666667  0.38630467  1
  O  O337  1  0.33447700  0.29208100  0.41561200  1
  O  O338  1  0.70720467  0.53349133  0.41780933  1
  O  O339  1  0.73484067  0.86675833  0.42637833  1
  O  O340  1  0.13191767  0.26515933  0.42637833  1
  O  O341  1  0.62712867  0.63143133  0.45063933  1
  O  O342  1  0.50548633  0.38019967  0.45225067  1
  O  O343  1  0.26694500  0.53795500  0.45373500  1
  O  O344  1  0.46204500  0.72899000  0.45373500  1
  O  O345  1  0.28994300  0.33358600  0.48053900  1
  O  O346  1  0.79838967  0.84237033  0.48397333  1
  O  O347  1  0.46551533  0.53225567  0.49303467  1
  O  O348  1  0.33333333  0.66666667  0.50511467  1
  O  O349  1  0.69970000  0.66092200  0.51728000  1
  O  O350  1  0.21253033  0.16339967  0.51843167  1
  O  O351  1  0.60090033  0.39604767  0.52075267  1
  O  O352  1  0.37750800  0.37620300  0.54810300  1
  O  O353  1  0.49849800  0.62439700  0.55044900  1
  O  O354  1  0.67751933  0.71119467  0.58400567  1
  O  O355  1  0.28602333  0.45266167  0.58504867  1
  O  O356  1  0.33333333  0.66666667  0.59336267  1
  O  O357  1  0.32721033  0.28517667  0.61432467  1
  O  O358  1  0.71169200  0.53744400  0.61733900  1
  O  O359  1  0.74405267  0.87205233  0.62552333  1
  O  O360  1  0.12799967  0.25594733  0.62552333  1
  O  O361  1  0.62809700  0.63410800  0.64937400  1
  O  O362  1  0.49990667  0.37987833  0.64979333  1
  O  O363  1  0.24234733  0.48440667  0.64828267  1
  O  O364  1  0.51559333  0.75794067  0.64828267  1
  O  O365  1  0.62069633  0.99890667  0.34784967  1
  O  O366  1  0.13344667  0.51000833  0.34909533  1
  O  O367  1  0.78962767  0.21080533  0.35793733  1
  O  O368  1  0.03665300  0.33393600  0.38313200  1
  O  O369  1  0.54470133  0.82955567  0.38448167  1
  O  O370  1  0.93513667  0.06388733  0.38720533  1
  O  O371  1  0.70791900  0.04239600  0.41561200  1
  O  O372  1  0.82628667  0.29279533  0.41780933  1
  O  O373  1  0.00430267  0.37287133  0.45063933  1
  O  O374  1  0.61980033  0.12528667  0.45225067  1
  O  O375  1  0.66641400  0.95635700  0.48053900  1
  O  O376  1  0.04398067  0.20161033  0.48397333  1
  O  O377  1  0.06674033  0.53448467  0.49303467  1
  O  O378  1  0.46774433  0.93325967  0.49303467  1
  O  O379  1  0.96122200  0.30030000  0.51728000  1
  O  O380  1  0.83660033  0.04913067  0.51843167  1
  O  O381  1  0.62379700  0.00130500  0.54810300  1
  O  O382  1  0.12589900  0.50150200  0.55044900  1
  O  O383  1  0.80037200  0.20061300  0.56044000  1
  O  O384  1  0.03367533  0.32248067  0.58400567  1
  O  O385  1  0.54733833  0.83336167  0.58504867  1
  O  O386  1  0.93561200  0.06397100  0.58696200  1
  O  O387  1  0.71482333  0.04203367  0.61432467  1
  O  O388  1  0.00109333  0.62178967  0.34784967  1
  O  O389  1  0.37656167  0.86655333  0.34909533  1
  O  O390  1  0.17044433  0.71514567  0.38448167  1
  O  O391  1  0.27101000  0.73305500  0.45373500  1
  O  O392  1  0.33333333  0.66666667  0.72132667  1
  O  O393  1  0.33333333  0.66666667  0.78973767  1
  O  O394  1  0.27061900  0.53818600  0.85408600  1
  O  O395  1  0.46181400  0.73243300  0.85408600  1
  O  O396  1  0.33333333  0.66666667  0.90563467  1
  O  O397  1  0.49241867  0.62164133  0.95067233  1
  O  O398  1  0.67267767  0.70523633  0.98270733  1
  O  O399  1  0.28678833  0.45336167  0.98312667  1
  O  O400  1  0.33333333  0.66666667  0.98711067  1
  O  O401  1  0.08784433  0.54370567  0.69127067  1
  O  O402  1  0.45586133  0.91215567  0.69127067  1
  O  O403  1  0.96394967  0.29668033  0.71646533  1
  O  O404  1  0.60277933  0.20458267  0.72053867  1
  O  O405  1  0.79541733  0.39819667  0.72053867  1
  O  O406  1  0.62427067  0.99885633  0.74894533  1
  O  O407  1  0.13317533  0.50704667  0.75114267  1
  O  O408  1  0.79990833  0.20141567  0.75971167  1
  O  O409  1  0.66666667  0.33333333  0.77174433  1
  O  O410  1  0.03523533  0.32903067  0.78397267  1
  O  O411  1  0.54138000  0.82784700  0.78558400  1
  O  O412  1  0.71030967  0.04339033  0.81387233  1
  O  O413  1  0.82429633  0.28935267  0.81730667  1
  O  O414  1  0.00574467  0.37211133  0.85061333  1
  O  O415  1  0.61753600  0.12080300  0.85176500  1
  O  O416  1  0.66666667  0.33333333  0.85398433  1
  O  O417  1  0.66536167  0.95582533  0.88143633  1
  O  O418  1  0.04226967  0.20743433  0.88378233  1
  O  O419  1  0.06690767  0.53296133  0.89377333  1
  O  O420  1  0.46605367  0.93309233  0.89377333  1
  O  O421  1  0.95547200  0.29965800  0.91733900  1
  O  O422  1  0.83330500  0.04731000  0.91838200  1
  O  O423  1  0.79502567  0.39772133  0.92029533  1
  O  O424  1  0.60269567  0.20497433  0.92029533  1
  O  O425  1  0.62463300  0.00612300  0.94765800  1
  O  O426  1  0.12922267  0.50758133  0.95067233  1
  O  O427  1  0.79461433  0.20533367  0.95885667  1
  O  O428  1  0.66666667  0.33333333  0.97173133  1
  O  O429  1  0.03255867  0.32732233  0.98270733  1
  O  O430  1  0.54663833  0.83342667  0.98312667  1
  O  O431  1  0.90872600  0.09098600  0.98161600  1
  O  O432  1  0.04487700  0.71263700  0.68118300  1
  O  O433  1  0.15665833  0.95677167  0.68242867  1
  O  O434  1  0.33273067  0.03605033  0.71646533  1
  O  O435  1  0.95152100  0.78863200  0.71781500  1
  O  O436  1  0.00000000  0.00000000  0.71963800  1
  O  O437  1  0.00114367  0.62541433  0.74894533  1
  O  O438  1  0.37387133  0.86682467  0.75114267  1
  O  O439  1  0.40150733  0.20009167  0.75971167  1
  O  O440  1  0.79858433  0.59849267  0.75971167  1
  O  O441  1  0.29379533  0.96476467  0.78397267  1
  O  O442  1  0.17215300  0.71353300  0.78558400  1
  O  O443  1  0.93361167  0.87128833  0.78706833  1
  O  O444  1  0.12871167  0.06232333  0.78706833  1
  O  O445  1  0.95660967  0.66691933  0.81387233  1
  O  O446  1  0.46505633  0.17570367  0.81730667  1
  O  O447  1  0.13218200  0.86558900  0.82636800  1
  O  O448  1  0.00000000  0.00000000  0.83844800  1
  O  O449  1  0.36636667  0.99425533  0.85061333  1
  O  O450  1  0.87919700  0.49673300  0.85176500  1
  O  O451  1  0.26756700  0.72938100  0.85408600  1
  O  O452  1  0.04417467  0.70953633  0.88143633  1
  O  O453  1  0.16516467  0.95773033  0.88378233  1
  O  O454  1  0.34418600  0.04452800  0.91733900  1
  O  O455  1  0.95269000  0.78599500  0.91838200  1
  O  O456  1  0.00000000  0.00000000  0.92669600  1
  O  O457  1  0.99387700  0.61851000  0.94765800  1
  O  O458  1  0.37835867  0.87077733  0.95067233  1
  O  O459  1  0.41071933  0.20538567  0.95885667  1
  O  O460  1  0.79466633  0.58928067  0.95885667  1
  O  O461  1  0.29476367  0.96744133  0.98270733  1
  O  O462  1  0.16657333  0.71321167  0.98312667  1
  O  O463  1  0.90901400  0.81774000  0.98161600  1
  O  O464  1  0.18226000  0.09127400  0.98161600  1
  O  O465  1  0.28736300  0.33224000  0.68118300  1
  O  O466  1  0.80011333  0.84334167  0.68242867  1
  O  O467  1  0.45629433  0.54413867  0.69127067  1
  O  O468  1  0.70331967  0.66726933  0.71646533  1
  O  O469  1  0.21136800  0.16288900  0.71781500  1
  O  O470  1  0.60180333  0.39722067  0.72053867  1
  O  O471  1  0.37458567  0.37572933  0.74894533  1
  O  O472  1  0.49295333  0.62612867  0.75114267  1
  O  O473  1  0.67096933  0.70620467  0.78397267  1
  O  O474  1  0.28646700  0.45862000  0.78558400  1
  O  O475  1  0.33308067  0.28969033  0.81387233  1
  O  O476  1  0.71064733  0.53494367  0.81730667  1
  O  O477  1  0.73340700  0.86781800  0.82636800  1
  O  O478  1  0.13441100  0.26659300  0.82636800  1
  O  O479  1  0.62788867  0.63363333  0.85061333  1
  O  O480  1  0.50326700  0.38246400  0.85176500  1
  O  O481  1  0.29046367  0.33463833  0.88143633  1
  O  O482  1  0.79256567  0.83483533  0.88378233  1
  O  O483  1  0.46703867  0.53394633  0.89377333  1
  O  O484  1  0.70034200  0.65581400  0.91733900  1
  O  O485  1  0.21400500  0.16669500  0.91838200  1
  O  O486  1  0.60227867  0.39730433  0.92029533  1
  O  O487  1  0.38149000  0.37536700  0.94765800  1
  O  O488  1  0.66776000  0.95512300  0.68118300  1
  O  O489  1  0.04322833  0.19988667  0.68242867  1
  O  O490  1  0.83711100  0.04847900  0.71781500  1
  O  O491  1  0.93767667  0.06638833  0.78706833  1
