# generated using pymatgen
data_In4Br7
_symmetry_space_group_name_H-M   'P 1'
_cell_length_a   13.58446400
_cell_length_b   7.71192800
_cell_length_c   31.98797909
_cell_angle_alpha   90.00000000
_cell_angle_beta   98.66333031
_cell_angle_gamma   90.00000000
_symmetry_Int_Tables_number   1
_chemical_formula_structural   In4Br7
_chemical_formula_sum   'In32 Br56'
_cell_volume   3312.90289440
_cell_formula_units_Z   8
loop_
 _symmetry_equiv_pos_site_id
 _symmetry_equiv_pos_as_xyz
  1  'x, y, z'
loop_
 _atom_site_type_symbol
 _atom_site_label
 _atom_site_symmetry_multiplicity
 _atom_site_fract_x
 _atom_site_fract_y
 _atom_site_fract_z
 _atom_site_occupancy
  In  In0  1  0.42913450  0.25208050  0.02724400  1
  In  In1  1  0.70841300  0.25040600  0.87498800  1
  In  In2  1  0.79158700  0.75040600  0.62501200  1
  In  In3  1  0.42913450  0.74791950  0.52724400  1
  In  In4  1  0.64186350  0.27247350  0.68467100  1
  In  In5  1  0.50000000  0.30047400  0.25000000  1
  In  In6  1  0.29158700  0.74959400  0.12501200  1
  In  In7  1  0.57086550  0.74791950  0.97275600  1
  In  In8  1  0.35813650  0.72752650  0.31532900  1
  In  In9  1  0.25000000  0.75000000  0.00000000  1
  In  In10  1  0.14186350  0.22752650  0.18467100  1
  In  In11  1  0.20841300  0.24959400  0.37498800  1
  In  In12  1  0.57086550  0.25208050  0.47275600  1
  In  In13  1  0.25000000  0.25000000  0.50000000  1
  In  In14  1  0.50000000  0.69952600  0.75000000  1
  In  In15  1  0.85813650  0.77247350  0.81532900  1
  In  In16  1  0.92913450  0.75208050  0.02724400  1
  In  In17  1  0.20841300  0.75040600  0.87498800  1
  In  In18  1  0.29158700  0.25040600  0.62501200  1
  In  In19  1  0.92913450  0.24791950  0.52724400  1
  In  In20  1  0.14186350  0.77247350  0.68467100  1
  In  In21  1  0.00000000  0.80047400  0.25000000  1
  In  In22  1  0.79158700  0.24959400  0.12501200  1
  In  In23  1  0.07086550  0.24791950  0.97275600  1
  In  In24  1  0.85813650  0.22752650  0.31532900  1
  In  In25  1  0.75000000  0.25000000  0.00000000  1
  In  In26  1  0.64186350  0.72752650  0.18467100  1
  In  In27  1  0.70841300  0.74959400  0.37498800  1
  In  In28  1  0.07086550  0.75208050  0.47275600  1
  In  In29  1  0.75000000  0.75000000  0.50000000  1
  In  In30  1  0.00000000  0.19952600  0.75000000  1
  In  In31  1  0.35813650  0.27247350  0.81532900  1
  Br  Br32  1  0.65799050  0.33439950  0.76379500  1
  Br  Br33  1  0.18856100  0.69003400  0.33829300  1
  Br  Br34  1  0.15799050  0.16560050  0.26379500  1
  Br  Br35  1  0.20777350  0.48406650  0.04965100  1
  Br  Br36  1  0.52324250  0.49090050  0.15189600  1
  Br  Br37  1  0.31143900  0.19003400  0.16170700  1
  Br  Br38  1  0.57040500  0.02308000  0.16429400  1
  Br  Br39  1  0.84200950  0.83439950  0.73620500  1
  Br  Br40  1  0.66255500  0.52563400  0.54855300  1
  Br  Br41  1  0.42852100  0.79783000  0.04931200  1
  Br  Br42  1  0.42852100  0.20217000  0.54931200  1
  Br  Br43  1  0.57040500  0.97692000  0.66429400  1
  Br  Br44  1  0.81143900  0.30996600  0.66170700  1
  Br  Br45  1  0.47675750  0.49090050  0.34810400  1
  Br  Br46  1  0.52324250  0.50909950  0.65189600  1
  Br  Br47  1  0.83744500  0.02563400  0.95144700  1
  Br  Br48  1  0.68856100  0.80996600  0.83829300  1
  Br  Br49  1  0.57147900  0.79783000  0.45068800  1
  Br  Br50  1  0.33744500  0.47436600  0.45144700  1
  Br  Br51  1  0.42959500  0.97692000  0.83570600  1
  Br  Br52  1  0.70777350  0.01593350  0.54965100  1
  Br  Br53  1  0.47675750  0.50909950  0.84810400  1
  Br  Br54  1  0.57147900  0.20217000  0.95068800  1
  Br  Br55  1  0.29222650  0.98406650  0.45034900  1
  Br  Br56  1  0.42959500  0.02308000  0.33570600  1
  Br  Br57  1  0.79222650  0.51593350  0.95034900  1
  Br  Br58  1  0.34200950  0.66560050  0.23620500  1
  Br  Br59  1  0.16255500  0.97436600  0.04855300  1
  Br  Br60  1  0.15799050  0.83439950  0.76379500  1
  Br  Br61  1  0.68856100  0.19003400  0.33829300  1
  Br  Br62  1  0.65799050  0.66560050  0.26379500  1
  Br  Br63  1  0.70777350  0.98406650  0.04965100  1
  Br  Br64  1  0.02324250  0.99090050  0.15189600  1
  Br  Br65  1  0.81143900  0.69003400  0.16170700  1
  Br  Br66  1  0.07040500  0.52308000  0.16429400  1
  Br  Br67  1  0.34200950  0.33439950  0.73620500  1
  Br  Br68  1  0.16255500  0.02563400  0.54855300  1
  Br  Br69  1  0.92852100  0.29783000  0.04931200  1
  Br  Br70  1  0.92852100  0.70217000  0.54931200  1
  Br  Br71  1  0.07040500  0.47692000  0.66429400  1
  Br  Br72  1  0.31143900  0.80996600  0.66170700  1
  Br  Br73  1  0.97675750  0.99090050  0.34810400  1
  Br  Br74  1  0.02324250  0.00909950  0.65189600  1
  Br  Br75  1  0.33744500  0.52563400  0.95144700  1
  Br  Br76  1  0.18856100  0.30996600  0.83829300  1
  Br  Br77  1  0.07147900  0.29783000  0.45068800  1
  Br  Br78  1  0.83744500  0.97436600  0.45144700  1
  Br  Br79  1  0.92959500  0.47692000  0.83570600  1
  Br  Br80  1  0.20777350  0.51593350  0.54965100  1
  Br  Br81  1  0.97675750  0.00909950  0.84810400  1
  Br  Br82  1  0.07147900  0.70217000  0.95068800  1
  Br  Br83  1  0.79222650  0.48406650  0.45034900  1
  Br  Br84  1  0.92959500  0.52308000  0.33570600  1
  Br  Br85  1  0.29222650  0.01593350  0.95034900  1
  Br  Br86  1  0.84200950  0.16560050  0.23620500  1
  Br  Br87  1  0.66255500  0.47436600  0.04855300  1
