# generated using pymatgen
data_SiO2
_symmetry_space_group_name_H-M   'P 1'
_cell_length_a   7.63219700
_cell_length_b   13.11048600
_cell_length_c   13.63001300
_cell_angle_alpha   90.00000000
_cell_angle_beta   90.00000000
_cell_angle_gamma   90.00000000
_symmetry_Int_Tables_number   1
_chemical_formula_structural   SiO2
_chemical_formula_sum   'Si24 O48'
_cell_volume   1363.84379724
_cell_formula_units_Z   24
loop_
 _symmetry_equiv_pos_site_id
 _symmetry_equiv_pos_as_xyz
  1  'x, y, z'
loop_
 _atom_site_type_symbol
 _atom_site_label
 _atom_site_symmetry_multiplicity
 _atom_site_fract_x
 _atom_site_fract_y
 _atom_site_fract_z
 _atom_site_occupancy
  Si  Si0  1  0.04644300  0.62997400  0.66388400  1
  Si  Si1  1  0.54644300  0.87002600  0.83611600  1
  Si  Si2  1  0.95355700  0.12997400  0.33611600  1
  Si  Si3  1  0.45355700  0.37002600  0.16388400  1
  Si  Si4  1  0.95355700  0.37002600  0.33611600  1
  Si  Si5  1  0.45355700  0.12997400  0.16388400  1
  Si  Si6  1  0.04644300  0.87002600  0.66388400  1
  Si  Si7  1  0.54644300  0.62997400  0.83611600  1
  Si  Si8  1  0.65894000  0.55703000  0.62806200  1
  Si  Si9  1  0.15894000  0.94297000  0.87193800  1
  Si  Si10  1  0.34106000  0.05703000  0.37193800  1
  Si  Si11  1  0.84106000  0.44297000  0.12806200  1
  Si  Si12  1  0.34106000  0.44297000  0.37193800  1
  Si  Si13  1  0.84106000  0.05703000  0.12806200  1
  Si  Si14  1  0.65894000  0.94297000  0.62806200  1
  Si  Si15  1  0.15894000  0.55703000  0.87193800  1
  Si  Si16  1  0.33757800  0.63145600  0.50272000  1
  Si  Si17  1  0.83757800  0.86854400  0.99728000  1
  Si  Si18  1  0.66242200  0.13145600  0.49728000  1
  Si  Si19  1  0.16242200  0.36854400  0.00272000  1
  Si  Si20  1  0.66242200  0.36854400  0.49728000  1
  Si  Si21  1  0.16242200  0.13145600  0.00272000  1
  Si  Si22  1  0.33757800  0.86854400  0.50272000  1
  Si  Si23  1  0.83757800  0.63145600  0.99728000  1
  O  O24  1  0.52982800  0.61695000  0.55256200  1
  O  O25  1  0.02982800  0.88305000  0.94743800  1
  O  O26  1  0.47017200  0.11695000  0.44743800  1
  O  O27  1  0.97017200  0.38305000  0.05256200  1
  O  O28  1  0.47017200  0.38305000  0.44743800  1
  O  O29  1  0.97017200  0.11695000  0.05256200  1
  O  O30  1  0.52982800  0.88305000  0.55256200  1
  O  O31  1  0.02982800  0.61695000  0.94743800  1
  O  O32  1  0.07912100  0.56076600  0.76123200  1
  O  O33  1  0.57912100  0.93923400  0.73876800  1
  O  O34  1  0.92087900  0.06076600  0.23876800  1
  O  O35  1  0.42087900  0.43923400  0.26123200  1
  O  O36  1  0.92087900  0.43923400  0.23876800  1
  O  O37  1  0.42087900  0.06076600  0.26123200  1
  O  O38  1  0.07912100  0.93923400  0.76123200  1
  O  O39  1  0.57912100  0.56076600  0.73876800  1
  O  O40  1  0.84869000  0.61273400  0.62389300  1
  O  O41  1  0.34869000  0.88726600  0.87610700  1
  O  O42  1  0.15131000  0.11273400  0.37610700  1
  O  O43  1  0.65131000  0.38726600  0.12389300  1
  O  O44  1  0.15131000  0.38726600  0.37610700  1
  O  O45  1  0.65131000  0.11273400  0.12389300  1
  O  O46  1  0.84869000  0.88726600  0.62389300  1
  O  O47  1  0.34869000  0.61273400  0.87610700  1
  O  O48  1  0.18476800  0.59625900  0.57915600  1
  O  O49  1  0.68476800  0.90374100  0.92084400  1
  O  O50  1  0.81523200  0.09625900  0.42084400  1
  O  O51  1  0.31523200  0.40374100  0.07915600  1
  O  O52  1  0.81523200  0.40374100  0.42084400  1
  O  O53  1  0.31523200  0.09625900  0.07915600  1
  O  O54  1  0.18476800  0.90374100  0.57915600  1
  O  O55  1  0.68476800  0.59625900  0.92084400  1
  O  O56  1  0.32287500  0.56215100  0.40399200  1
  O  O57  1  0.82287500  0.93784900  0.09600800  1
  O  O58  1  0.67712500  0.06215100  0.59600800  1
  O  O59  1  0.17712500  0.43784900  0.90399200  1
  O  O60  1  0.67712500  0.43784900  0.59600800  1
  O  O61  1  0.17712500  0.06215100  0.90399200  1
  O  O62  1  0.32287500  0.93784900  0.40399200  1
  O  O63  1  0.82287500  0.56215100  0.09600800  1
  O  O64  1  0.07474900  0.75000000  0.69168100  1
  O  O65  1  0.57474900  0.75000000  0.80831900  1
  O  O66  1  0.92525100  0.25000000  0.30831900  1
  O  O67  1  0.42525100  0.25000000  0.19168100  1
  O  O68  1  0.31214900  0.75000000  0.47161400  1
  O  O69  1  0.81214900  0.75000000  0.02838600  1
  O  O70  1  0.68785100  0.25000000  0.52838600  1
  O  O71  1  0.18785100  0.25000000  0.97161400  1
