# generated using pymatgen
data_P3H11N4O9
_symmetry_space_group_name_H-M   'P 1'
_cell_length_a   8.03413200
_cell_length_b   8.26015182
_cell_length_c   8.52604156
_cell_angle_alpha   78.17442647
_cell_angle_beta   75.33512221
_cell_angle_gamma   86.16244252
_symmetry_Int_Tables_number   1
_chemical_formula_structural   P3H11N4O9
_chemical_formula_sum   'P6 H22 N8 O18'
_cell_volume   535.69721122
_cell_formula_units_Z   2
loop_
 _symmetry_equiv_pos_site_id
 _symmetry_equiv_pos_as_xyz
  1  'x, y, z'
loop_
 _atom_site_type_symbol
 _atom_site_label
 _atom_site_symmetry_multiplicity
 _atom_site_fract_x
 _atom_site_fract_y
 _atom_site_fract_z
 _atom_site_occupancy
  P  P0  1  0.15959400  0.71174300  0.53706600  1
  P  P1  1  0.84040600  0.28825700  0.46293400  1
  P  P2  1  0.69292200  0.99582500  0.69403800  1
  P  P3  1  0.30707800  0.00417500  0.30596200  1
  P  P4  1  0.96137300  0.81160700  0.84801700  1
  P  P5  1  0.03862700  0.18839300  0.15198300  1
  H  H6  1  0.92304000  0.74291300  0.34094100  1
  H  H7  1  0.07696000  0.25708700  0.65905900  1
  H  H8  1  0.16660900  0.25291700  0.82924100  1
  H  H9  1  0.83339100  0.74708300  0.17075900  1
  H  H10  1  0.18842800  0.08493400  0.73908000  1
  H  H11  1  0.81157200  0.91506600  0.26092000  1
  H  H12  1  0.44435800  0.23536900  0.65537000  1
  H  H13  1  0.55564200  0.76463100  0.34463000  1
  H  H14  1  0.33249600  0.41711600  0.58888200  1
  H  H15  1  0.66750400  0.58288400  0.41111800  1
  H  H16  1  0.64154200  0.75326100  0.51367500  1
  H  H17  1  0.35845800  0.24673900  0.48632500  1
  H  H18  1  0.43218300  0.78245300  0.04826600  1
  H  H19  1  0.56781700  0.21754700  0.95173400  1
  H  H20  1  0.28562800  0.76617500  0.94055800  1
  H  H21  1  0.71437200  0.23382500  0.05944200  1
  H  H22  1  0.48499700  0.67441600  0.89332800  1
  H  H23  1  0.51500300  0.32558400  0.10667200  1
  H  H24  1  0.74657200  0.41321000  0.78826000  1
  H  H25  1  0.25342800  0.58679000  0.21174000  1
  H  H26  1  0.73944600  0.51220000  0.94130100  1
  H  H27  1  0.26055400  0.48780000  0.05869900  1
  N  N28  1  0.18422300  0.21494600  0.71257300  1
  N  N29  1  0.81577700  0.78505400  0.28742700  1
  N  N30  1  0.65809100  0.71595900  0.39796100  1
  N  N31  1  0.34190900  0.28404100  0.60203900  1
  N  N32  1  0.38597000  0.70327700  0.98882200  1
  N  N33  1  0.61403000  0.29672300  0.01117800  1
  N  N34  1  0.66688300  0.44732900  0.89185500  1
  N  N35  1  0.33311700  0.55267100  0.10814500  1
  O  O36  1  0.21252500  0.90727800  0.49059800  1
  O  O37  1  0.78747500  0.09272200  0.50940200  1
  O  O38  1  0.00034300  0.71220400  0.69740400  1
  O  O39  1  0.99965700  0.28779600  0.30259600  1
  O  O40  1  0.85088600  0.97182000  0.78367000  1
  O  O41  1  0.14911400  0.02818000  0.21633000  1
  O  O42  1  0.69313500  0.39018700  0.41441600  1
  O  O43  1  0.30686500  0.60981300  0.58558400  1
  O  O44  1  0.08725500  0.67060300  0.40427900  1
  O  O45  1  0.91274500  0.32939700  0.59572100  1
  O  O46  1  0.63696400  0.83302400  0.67599500  1
  O  O47  1  0.36303600  0.16697600  0.32400500  1
  O  O48  1  0.56271700  0.11051600  0.77865300  1
  O  O49  1  0.43728300  0.88948400  0.22134700  1
  O  O50  1  0.87573100  0.12047400  0.13673700  1
  O  O51  1  0.12426900  0.87952600  0.86326300  1
  O  O52  1  0.84914000  0.70257500  0.99440900  1
  O  O53  1  0.15086000  0.29742500  0.00559100  1
