# generated using pymatgen
data_Sr2LaF7
_symmetry_space_group_name_H-M   'P 1'
_cell_length_a   7.21397200
_cell_length_b   4.10632400
_cell_length_c   21.09164095
_cell_angle_alpha   90.00000000
_cell_angle_beta   91.38399573
_cell_angle_gamma   90.00000000
_symmetry_Int_Tables_number   1
_chemical_formula_structural   Sr2LaF7
_chemical_formula_sum   'Sr8 La4 F28'
_cell_volume   624.61343656
_cell_formula_units_Z   4
loop_
 _symmetry_equiv_pos_site_id
 _symmetry_equiv_pos_as_xyz
  1  'x, y, z'
loop_
 _atom_site_type_symbol
 _atom_site_label
 _atom_site_symmetry_multiplicity
 _atom_site_fract_x
 _atom_site_fract_y
 _atom_site_fract_z
 _atom_site_occupancy
  Sr  Sr0  1  0.52155100  0.50000000  0.99491400  1
  Sr  Sr1  1  0.85253000  0.50000000  0.82910900  1
  Sr  Sr2  1  0.66915100  0.00000000  0.66665700  1
  Sr  Sr3  1  0.99880600  0.00000000  0.50283000  1
  Sr  Sr4  1  0.02155100  0.00000000  0.99491400  1
  Sr  Sr5  1  0.35253000  0.00000000  0.82910900  1
  Sr  Sr6  1  0.16915100  0.50000000  0.66665700  1
  Sr  Sr7  1  0.49880600  0.50000000  0.50283000  1
  La  La8  1  0.83772000  0.50000000  0.32938800  1
  La  La9  1  0.67174400  0.00000000  0.15618800  1
  La  La10  1  0.33772000  0.00000000  0.32938800  1
  La  La11  1  0.17174400  0.50000000  0.15618800  1
  F  F12  1  0.68172900  0.00000000  0.78523900  1
  F  F13  1  0.71540700  0.00000000  0.93654200  1
  F  F14  1  0.99936900  0.00000000  0.62478200  1
  F  F15  1  0.52798900  0.50000000  0.86973100  1
  F  F16  1  0.83213600  0.50000000  0.45536400  1
  F  F17  1  0.83964900  0.50000000  0.70744200  1
  F  F18  1  0.66777500  0.00000000  0.31816700  1
  F  F19  1  0.66796100  0.00000000  0.54315000  1
  F  F20  1  0.99535100  0.00000000  0.26809100  1
  F  F21  1  0.99869200  0.00000000  0.13786100  1
  F  F22  1  0.99947000  0.00000000  0.38679100  1
  F  F23  1  0.82076400  0.50000000  0.08895600  1
  F  F24  1  0.82919500  0.50000000  0.21153300  1
  F  F25  1  0.64767600  0.00000000  0.04643300  1
  F  F26  1  0.18172900  0.50000000  0.78523900  1
  F  F27  1  0.21540700  0.50000000  0.93654200  1
  F  F28  1  0.49936900  0.50000000  0.62478200  1
  F  F29  1  0.02798900  0.00000000  0.86973100  1
  F  F30  1  0.33213600  0.00000000  0.45536400  1
  F  F31  1  0.33964900  0.00000000  0.70744200  1
  F  F32  1  0.16777500  0.50000000  0.31816700  1
  F  F33  1  0.16796100  0.50000000  0.54315000  1
  F  F34  1  0.49535100  0.50000000  0.26809100  1
  F  F35  1  0.49869200  0.50000000  0.13786100  1
  F  F36  1  0.49947000  0.50000000  0.38679100  1
  F  F37  1  0.32076400  0.00000000  0.08895600  1
  F  F38  1  0.32919500  0.00000000  0.21153300  1
  F  F39  1  0.14767600  0.50000000  0.04643300  1
