# generated using pymatgen
data_RbAg4I5
_symmetry_space_group_name_H-M   'P 1'
_cell_length_a   11.69049400
_cell_length_b   11.74786960
_cell_length_c   11.94251103
_cell_angle_alpha   88.51547559
_cell_angle_beta   89.01231045
_cell_angle_gamma   89.56306426
_symmetry_Int_Tables_number   1
_chemical_formula_structural   RbAg4I5
_chemical_formula_sum   'Rb4 Ag16 I20'
_cell_volume   1639.32893805
_cell_formula_units_Z   4
loop_
 _symmetry_equiv_pos_site_id
 _symmetry_equiv_pos_as_xyz
  1  'x, y, z'
loop_
 _atom_site_type_symbol
 _atom_site_label
 _atom_site_symmetry_multiplicity
 _atom_site_fract_x
 _atom_site_fract_y
 _atom_site_fract_z
 _atom_site_occupancy
  Rb  Rb0  1  0.85758600  0.83591900  0.37310500  1
  Rb  Rb1  1  0.42599400  0.63459000  0.64562600  1
  Rb  Rb2  1  0.15476900  0.41729700  0.11070100  1
  Rb  Rb3  1  0.63662600  0.12094300  0.87966500  1
  Ag  Ag4  1  0.61608800  0.73916000  0.97537700  1
  Ag  Ag5  1  0.97629200  0.65676100  0.81531400  1
  Ag  Ag6  1  0.71512600  0.57059000  0.14018700  1
  Ag  Ag7  1  0.75779500  0.33205600  0.52453600  1
  Ag  Ag8  1  0.51592100  0.29425600  0.47461100  1
  Ag  Ag9  1  0.96366300  0.41440300  0.74181300  1
  Ag  Ag10  1  0.47764800  0.31390800  0.22746100  1
  Ag  Ag11  1  0.01298600  0.22964900  0.53920800  1
  Ag  Ag12  1  0.26912600  0.22031800  0.44332500  1
  Ag  Ag13  1  0.99137200  0.15219600  0.80332200  1
  Ag  Ag14  1  0.54806100  0.05840300  0.24114100  1
  Ag  Ag15  1  0.24097800  0.00230800  0.57694500  1
  Ag  Ag16  1  0.22704000  0.97928300  0.82631500  1
  Ag  Ag17  1  0.29051500  0.00419300  0.31394100  1
  Ag  Ag18  1  0.99722700  0.89737600  0.72489700  1
  Ag  Ag19  1  0.24306800  0.96050200  0.07226000  1
  I  I20  1  0.02908300  0.94961900  0.95819700  1
  I  I21  1  0.68918400  0.92068200  0.11211300  1
  I  I22  1  0.44142100  0.88177000  0.82766000  1
  I  I23  1  0.13047000  0.80112600  0.55582500  1
  I  I24  1  0.29286900  0.78958700  0.22351500  1
  I  I25  1  0.77067900  0.74973500  0.77785500  1
  I  I26  1  0.60340300  0.69129400  0.41563400  1
  I  I27  1  0.93435900  0.61216100  0.18313000  1
  I  I28  1  0.17330400  0.53842500  0.82625500  1
  I  I29  1  0.52231400  0.51852200  0.03186500  1
  I  I30  1  0.95803400  0.46331300  0.51496000  1
  I  I31  1  0.33565200  0.44074800  0.37719000  1
  I  I32  1  0.58370400  0.36142400  0.68698800  1
  I  I33  1  0.88426700  0.31361100  0.93909600  1
  I  I34  1  0.70445800  0.26126600  0.29746500  1
  I  I35  1  0.21846100  0.20551200  0.70059300  1
  I  I36  1  0.37227800  0.17074800  0.07066600  1
  I  I37  1  0.07988900  0.13467200  0.32224400  1
  I  I38  1  0.84387700  0.07269200  0.62472600  1
  I  I39  1  0.46921600  0.04268200  0.47287500  1
