# generated using pymatgen
data_ZnH10C4(N2O3)2
_symmetry_space_group_name_H-M   'P 1'
_cell_length_a   17.24206800
_cell_length_b   17.11521800
_cell_length_c   15.49811815
_cell_angle_alpha   90.00000000
_cell_angle_beta   122.51793524
_cell_angle_gamma   90.00000000
_symmetry_Int_Tables_number   1
_chemical_formula_structural   ZnH10C4(N2O3)2
_chemical_formula_sum   'Zn16 H160 C64 N64 O96'
_cell_volume   3856.49977581
_cell_formula_units_Z   16
loop_
 _symmetry_equiv_pos_site_id
 _symmetry_equiv_pos_as_xyz
  1  'x, y, z'
loop_
 _atom_site_type_symbol
 _atom_site_label
 _atom_site_symmetry_multiplicity
 _atom_site_fract_x
 _atom_site_fract_y
 _atom_site_fract_z
 _atom_site_occupancy
  Zn  Zn0  1  0.74615200  0.49556400  0.00326900  1
  Zn  Zn1  1  0.25384800  0.49556400  0.49673100  1
  Zn  Zn2  1  0.25384800  0.50443600  0.99673100  1
  Zn  Zn3  1  0.74615200  0.50443600  0.50326900  1
  Zn  Zn4  1  0.99753100  0.74587800  0.00260500  1
  Zn  Zn5  1  0.00246900  0.74587800  0.49739500  1
  Zn  Zn6  1  0.00246900  0.25412200  0.99739500  1
  Zn  Zn7  1  0.99753100  0.25412200  0.50260500  1
  Zn  Zn8  1  0.24615200  0.99556400  0.00326900  1
  Zn  Zn9  1  0.75384800  0.99556400  0.49673100  1
  Zn  Zn10  1  0.75384800  0.00443600  0.99673100  1
  Zn  Zn11  1  0.24615200  0.00443600  0.50326900  1
  Zn  Zn12  1  0.49753100  0.24587800  0.00260500  1
  Zn  Zn13  1  0.50246900  0.24587800  0.49739500  1
  Zn  Zn14  1  0.50246900  0.75412200  0.99739500  1
  Zn  Zn15  1  0.49753100  0.75412200  0.50260500  1
  H  H16  1  0.94932300  0.40279000  0.32983800  1
  H  H17  1  0.05067700  0.40279000  0.17016200  1
  H  H18  1  0.05067700  0.59721000  0.67016200  1
  H  H19  1  0.94932300  0.59721000  0.82983800  1
  H  H20  1  0.99124250  0.49256950  0.39222300  1
  H  H21  1  0.00875750  0.49256950  0.10777700  1
  H  H22  1  0.00875750  0.50743050  0.60777700  1
  H  H23  1  0.99124250  0.50743050  0.89222300  1
  H  H24  1  0.85427950  0.61036050  0.17732900  1
  H  H25  1  0.14572050  0.61036050  0.32267100  1
  H  H26  1  0.14572050  0.38963950  0.82267100  1
  H  H27  1  0.85427950  0.38963950  0.67732900  1
  H  H28  1  0.94131500  0.60619700  0.30884000  1
  H  H29  1  0.05868500  0.60619700  0.19116000  1
  H  H30  1  0.05868500  0.39380300  0.69116000  1
  H  H31  1  0.94131500  0.39380300  0.80884000  1
  H  H32  1  0.99246550  0.02176050  0.67270100  1
  H  H33  1  0.00753450  0.02176050  0.82729900  1
  H  H34  1  0.00753450  0.97823950  0.32729900  1
  H  H35  1  0.99246550  0.97823950  0.17270100  1
  H  H36  1  0.55066550  0.53986150  0.61037400  1
  H  H37  1  0.44933450  0.53986150  0.88962600  1
  H  H38  1  0.44933450  0.46013850  0.38962600  1
  H  H39  1  0.55066550  0.46013850  0.11037400  1
  H  H40  1  0.70580950  0.53535750  0.69404800  1
  H  H41  1  0.29419050  0.53535750  0.80595200  1
  H  H42  1  0.29419050  0.46464250  0.30595200  1
  H  H43  1  0.70580950  0.46464250  0.19404800  1
  H  H44  1  0.77312450  0.52297850  0.82735600  1
  H  H45  1  0.22687550  0.52297850  0.67264400  1
  H  H46  1  0.22687550  0.47702150  0.17264400  1
  H  H47  1  0.77312450  0.47702150  0.32735600  1
  H  H48  1  0.12816450  0.84723550  0.95727600  1
  H  H49  1  0.87183550  0.84723550  0.54272400  1
  H  H50  1  0.87183550  0.15276450  0.04272400  1
  H  H51  1  0.12816450  0.15276450  0.45727600  1
  H  H52  1  0.90451850  0.40083450  0.01446600  1
  H  H53  1  0.09548150  0.40083450  0.48553400  1
  H  H54  1  0.09548150  0.59916550  0.98553400  1
  H  H55  1  0.90451850  0.59916550  0.51446600  1
  H  H56  1  0.18671150  0.76756750  0.39827000  1
  H  H57  1  0.81328850  0.76756750  0.10173000  1
  H  H58  1  0.81328850  0.23243250  0.60173000  1
  H  H59  1  0.18671150  0.23243250  0.89827000  1
  H  H60  1  0.06609650  0.76850650  0.33398300  1
  H  H61  1  0.93390350  0.76850650  0.16601700  1
  H  H62  1  0.93390350  0.23149350  0.66601700  1
  H  H63  1  0.06609650  0.23149350  0.83398300  1
  H  H64  1  0.75890600  0.25448700  0.31387700  1
  H  H65  1  0.24109400  0.25448700  0.18612300  1
  H  H66  1  0.24109400  0.74551300  0.68612300  1
  H  H67  1  0.75890600  0.74551300  0.81387700  1
  H  H68  1  0.19586150  0.75219250  0.17889400  1
  H  H69  1  0.80413850  0.75219250  0.32110600  1
  H  H70  1  0.80413850  0.24780750  0.82110600  1
  H  H71  1  0.19586150  0.24780750  0.67889400  1
  H  H72  1  0.80730650  0.74523850  0.60846700  1
  H  H73  1  0.19269350  0.74523850  0.89153300  1
  H  H74  1  0.19269350  0.25476150  0.39153300  1
  H  H75  1  0.80730650  0.25476150  0.10846700  1
  H  H76  1  0.84840450  0.65484650  0.67040000  1
  H  H77  1  0.15159550  0.65484650  0.82960000  1
  H  H78  1  0.15159550  0.34515350  0.32960000  1
  H  H79  1  0.84840450  0.34515350  0.17040000  1
  H  H80  1  0.92560600  0.86079800  0.82845800  1
  H  H81  1  0.07439400  0.86079800  0.67154200  1
  H  H82  1  0.07439400  0.13920200  0.17154200  1
  H  H83  1  0.92560600  0.13920200  0.32845800  1
  H  H84  1  0.35035250  0.35817750  0.69377800  1
  H  H85  1  0.64964750  0.35817750  0.80622200  1
  H  H86  1  0.64964750  0.64182250  0.30622200  1
  H  H87  1  0.35035250  0.64182250  0.19377800  1
  H  H88  1  0.09488850  0.09845250  0.99744000  1
  H  H89  1  0.90511150  0.09845250  0.50256000  1
  H  H90  1  0.90511150  0.90154750  0.00256000  1
  H  H91  1  0.09488850  0.90154750  0.49744000  1
  H  H92  1  0.82971950  0.65332750  0.96580700  1
  H  H93  1  0.17028050  0.65332750  0.53419300  1
  H  H94  1  0.17028050  0.34667250  0.03419300  1
  H  H95  1  0.82971950  0.34667250  0.46580700  1
  H  H96  1  0.44932300  0.90279000  0.32983800  1
  H  H97  1  0.55067700  0.90279000  0.17016200  1
  H  H98  1  0.55067700  0.09721000  0.67016200  1
  H  H99  1  0.44932300  0.09721000  0.82983800  1
  H  H100  1  0.49124250  0.99256950  0.39222300  1
  H  H101  1  0.50875750  0.99256950  0.10777700  1
  H  H102  1  0.50875750  0.00743050  0.60777700  1
  H  H103  1  0.49124250  0.00743050  0.89222300  1
  H  H104  1  0.35427950  0.11036050  0.17732900  1
  H  H105  1  0.64572050  0.11036050  0.32267100  1
  H  H106  1  0.64572050  0.88963950  0.82267100  1
  H  H107  1  0.35427950  0.88963950  0.67732900  1
  H  H108  1  0.44131500  0.10619700  0.30884000  1
  H  H109  1  0.55868500  0.10619700  0.19116000  1
  H  H110  1  0.55868500  0.89380300  0.69116000  1
  H  H111  1  0.44131500  0.89380300  0.80884000  1
  H  H112  1  0.49246550  0.52176050  0.67270100  1
  H  H113  1  0.50753450  0.52176050  0.82729900  1
  H  H114  1  0.50753450  0.47823950  0.32729900  1
  H  H115  1  0.49246550  0.47823950  0.17270100  1
  H  H116  1  0.05066550  0.03986150  0.61037400  1
  H  H117  1  0.94933450  0.03986150  0.88962600  1
  H  H118  1  0.94933450  0.96013850  0.38962600  1
  H  H119  1  0.05066550  0.96013850  0.11037400  1
  H  H120  1  0.20580950  0.03535750  0.69404800  1
  H  H121  1  0.79419050  0.03535750  0.80595200  1
  H  H122  1  0.79419050  0.96464250  0.30595200  1
  H  H123  1  0.20580950  0.96464250  0.19404800  1
  H  H124  1  0.27312450  0.02297850  0.82735600  1
  H  H125  1  0.72687550  0.02297850  0.67264400  1
  H  H126  1  0.72687550  0.97702150  0.17264400  1
  H  H127  1  0.27312450  0.97702150  0.32735600  1
  H  H128  1  0.62816450  0.34723550  0.95727600  1
  H  H129  1  0.37183550  0.34723550  0.54272400  1
  H  H130  1  0.37183550  0.65276450  0.04272400  1
  H  H131  1  0.62816450  0.65276450  0.45727600  1
  H  H132  1  0.40451850  0.90083450  0.01446600  1
  H  H133  1  0.59548150  0.90083450  0.48553400  1
  H  H134  1  0.59548150  0.09916550  0.98553400  1
  H  H135  1  0.40451850  0.09916550  0.51446600  1
  H  H136  1  0.68671150  0.26756750  0.39827000  1
  H  H137  1  0.31328850  0.26756750  0.10173000  1
  H  H138  1  0.31328850  0.73243250  0.60173000  1
  H  H139  1  0.68671150  0.73243250  0.89827000  1
  H  H140  1  0.56609650  0.26850650  0.33398300  1
  H  H141  1  0.43390350  0.26850650  0.16601700  1
  H  H142  1  0.43390350  0.73149350  0.66601700  1
  H  H143  1  0.56609650  0.73149350  0.83398300  1
  H  H144  1  0.25890600  0.75448700  0.31387700  1
  H  H145  1  0.74109400  0.75448700  0.18612300  1
  H  H146  1  0.74109400  0.24551300  0.68612300  1
  H  H147  1  0.25890600  0.24551300  0.81387700  1
  H  H148  1  0.69586150  0.25219250  0.17889400  1
  H  H149  1  0.30413850  0.25219250  0.32110600  1
  H  H150  1  0.30413850  0.74780750  0.82110600  1
  H  H151  1  0.69586150  0.74780750  0.67889400  1
  H  H152  1  0.30730650  0.24523850  0.60846700  1
  H  H153  1  0.69269350  0.24523850  0.89153300  1
  H  H154  1  0.69269350  0.75476150  0.39153300  1
  H  H155  1  0.30730650  0.75476150  0.10846700  1
  H  H156  1  0.34840450  0.15484650  0.67040000  1
  H  H157  1  0.65159550  0.15484650  0.82960000  1
  H  H158  1  0.65159550  0.84515350  0.32960000  1
  H  H159  1  0.34840450  0.84515350  0.17040000  1
  H  H160  1  0.42560600  0.36079800  0.82845800  1
  H  H161  1  0.57439400  0.36079800  0.67154200  1
  H  H162  1  0.57439400  0.63920200  0.17154200  1
  H  H163  1  0.42560600  0.63920200  0.32845800  1
  H  H164  1  0.85035250  0.85817750  0.69377800  1
  H  H165  1  0.14964750  0.85817750  0.80622200  1
  H  H166  1  0.14964750  0.14182250  0.30622200  1
  H  H167  1  0.85035250  0.14182250  0.19377800  1
  H  H168  1  0.59488850  0.59845250  0.99744000  1
  H  H169  1  0.40511150  0.59845250  0.50256000  1
  H  H170  1  0.40511150  0.40154750  0.00256000  1
  H  H171  1  0.59488850  0.40154750  0.49744000  1
  H  H172  1  0.32971950  0.15332750  0.96580700  1
  H  H173  1  0.67028050  0.15332750  0.53419300  1
  H  H174  1  0.67028050  0.84667250  0.03419300  1
  H  H175  1  0.32971950  0.84667250  0.46580700  1
  C  C176  1  0.11936250  0.76591950  0.24199600  1
  C  C177  1  0.88063750  0.76591950  0.25800400  1
  C  C178  1  0.88063750  0.23408050  0.75800400  1
  C  C179  1  0.11936250  0.23408050  0.74199600  1
  C  C180  1  0.89594300  0.75177500  0.76434700  1
  C  C181  1  0.10405700  0.75177500  0.73565300  1
  C  C182  1  0.10405700  0.24822500  0.23565300  1
  C  C183  1  0.89594300  0.24822500  0.26434700  1
  C  C184  1  0.65302400  0.63951400  0.02653400  1
  C  C185  1  0.34697600  0.63951400  0.47346600  1
  C  C186  1  0.34697600  0.36048600  0.97346600  1
  C  C187  1  0.65302400  0.36048600  0.52653400  1
  C  C188  1  0.88419400  0.60834700  0.99660200  1
  C  C189  1  0.11580600  0.60834700  0.50339800  1
  C  C190  1  0.11580600  0.39165300  0.00339800  1
  C  C191  1  0.88419400  0.39165300  0.49660200  1
  C  C192  1  0.89073350  0.50013450  0.23942600  1
  C  C193  1  0.10926650  0.50013450  0.26057400  1
  C  C194  1  0.10926650  0.49986550  0.76057400  1
  C  C195  1  0.89073350  0.49986550  0.73942600  1
  C  C196  1  0.63438500  0.52038400  0.76502900  1
  C  C197  1  0.36561500  0.52038400  0.73497100  1
  C  C198  1  0.36561500  0.47961600  0.23497100  1
  C  C199  1  0.63438500  0.47961600  0.26502900  1
  C  C200  1  0.10230400  0.88692000  0.99261100  1
  C  C201  1  0.89769600  0.88692000  0.50738900  1
  C  C202  1  0.89769600  0.11308000  0.00738900  1
  C  C203  1  0.10230400  0.11308000  0.49261100  1
  C  C204  1  0.84802250  0.35802050  0.97761800  1
  C  C205  1  0.15197750  0.35802050  0.52238200  1
  C  C206  1  0.15197750  0.64197950  0.02238200  1
  C  C207  1  0.84802250  0.64197950  0.47761800  1
  C  C208  1  0.61936250  0.26591950  0.24199600  1
  C  C209  1  0.38063750  0.26591950  0.25800400  1
  C  C210  1  0.38063750  0.73408050  0.75800400  1
  C  C211  1  0.61936250  0.73408050  0.74199600  1
  C  C212  1  0.39594300  0.25177500  0.76434700  1
  C  C213  1  0.60405700  0.25177500  0.73565300  1
  C  C214  1  0.60405700  0.74822500  0.23565300  1
  C  C215  1  0.39594300  0.74822500  0.26434700  1
  C  C216  1  0.15302400  0.13951400  0.02653400  1
  C  C217  1  0.84697600  0.13951400  0.47346600  1
  C  C218  1  0.84697600  0.86048600  0.97346600  1
  C  C219  1  0.15302400  0.86048600  0.52653400  1
  C  C220  1  0.38419400  0.10834700  0.99660200  1
  C  C221  1  0.61580600  0.10834700  0.50339800  1
  C  C222  1  0.61580600  0.89165300  0.00339800  1
  C  C223  1  0.38419400  0.89165300  0.49660200  1
  C  C224  1  0.39073350  0.00013450  0.23942600  1
  C  C225  1  0.60926650  0.00013450  0.26057400  1
  C  C226  1  0.60926650  0.99986550  0.76057400  1
  C  C227  1  0.39073350  0.99986550  0.73942600  1
  C  C228  1  0.13438500  0.02038400  0.76502900  1
  C  C229  1  0.86561500  0.02038400  0.73497100  1
  C  C230  1  0.86561500  0.97961600  0.23497100  1
  C  C231  1  0.13438500  0.97961600  0.26502900  1
  C  C232  1  0.60230400  0.38692000  0.99261100  1
  C  C233  1  0.39769600  0.38692000  0.50738900  1
  C  C234  1  0.39769600  0.61308000  0.00738900  1
  C  C235  1  0.60230400  0.61308000  0.49261100  1
  C  C236  1  0.34802250  0.85802050  0.97761800  1
  C  C237  1  0.65197750  0.85802050  0.52238200  1
  C  C238  1  0.65197750  0.14197950  0.02238200  1
  C  C239  1  0.34802250  0.14197950  0.47761800  1
  N  N240  1  0.94402100  0.46237500  0.32889700  1
  N  N241  1  0.05597900  0.46237500  0.17110300  1
  N  N242  1  0.05597900  0.53762500  0.67110300  1
  N  N243  1  0.94402100  0.53762500  0.82889700  1
  N  N244  1  0.89669500  0.57887000  0.24164000  1
  N  N245  1  0.10330500  0.57887000  0.25836000  1
  N  N246  1  0.10330500  0.42113000  0.75836000  1
  N  N247  1  0.89669500  0.42113000  0.74164000  1
  N  N248  1  0.55294250  0.52453150  0.67522200  1
  N  N249  1  0.44705750  0.52453150  0.82477800  1
  N  N250  1  0.44705750  0.47546850  0.32477800  1
  N  N251  1  0.55294250  0.47546850  0.17522200  1
  N  N252  1  0.71072350  0.52345250  0.76128100  1
  N  N253  1  0.28927650  0.52345250  0.73871900  1
  N  N254  1  0.28927650  0.47654750  0.23871900  1
  N  N255  1  0.71072350  0.47654750  0.26128100  1
  N  N256  1  0.12445100  0.76956400  0.33165100  1
  N  N257  1  0.87554900  0.76956400  0.16834900  1
  N  N258  1  0.87554900  0.23043600  0.66834900  1
  N  N259  1  0.12445100  0.23043600  0.83165100  1
  N  N260  1  0.19891000  0.76386100  0.24527000  1
  N  N261  1  0.80109000  0.76386100  0.25473000  1
  N  N262  1  0.80109000  0.23613900  0.75473000  1
  N  N263  1  0.19891000  0.23613900  0.74527000  1
  N  N264  1  0.84934500  0.71454200  0.67339700  1
  N  N265  1  0.15065500  0.71454200  0.82660300  1
  N  N266  1  0.15065500  0.28545800  0.32660300  1
  N  N267  1  0.84934500  0.28545800  0.17339700  1
  N  N268  1  0.88994650  0.83028050  0.76216100  1
  N  N269  1  0.11005350  0.83028050  0.73783900  1
  N  N270  1  0.11005350  0.16971950  0.23783900  1
  N  N271  1  0.88994650  0.16971950  0.26216100  1
  N  N272  1  0.44402100  0.96237500  0.32889700  1
  N  N273  1  0.55597900  0.96237500  0.17110300  1
  N  N274  1  0.55597900  0.03762500  0.67110300  1
  N  N275  1  0.44402100  0.03762500  0.82889700  1
  N  N276  1  0.39669500  0.07887000  0.24164000  1
  N  N277  1  0.60330500  0.07887000  0.25836000  1
  N  N278  1  0.60330500  0.92113000  0.75836000  1
  N  N279  1  0.39669500  0.92113000  0.74164000  1
  N  N280  1  0.05294250  0.02453150  0.67522200  1
  N  N281  1  0.94705750  0.02453150  0.82477800  1
  N  N282  1  0.94705750  0.97546850  0.32477800  1
  N  N283  1  0.05294250  0.97546850  0.17522200  1
  N  N284  1  0.21072350  0.02345250  0.76128100  1
  N  N285  1  0.78927650  0.02345250  0.73871900  1
  N  N286  1  0.78927650  0.97654750  0.23871900  1
  N  N287  1  0.21072350  0.97654750  0.26128100  1
  N  N288  1  0.62445100  0.26956400  0.33165100  1
  N  N289  1  0.37554900  0.26956400  0.16834900  1
  N  N290  1  0.37554900  0.73043600  0.66834900  1
  N  N291  1  0.62445100  0.73043600  0.83165100  1
  N  N292  1  0.69891000  0.26386100  0.24527000  1
  N  N293  1  0.30109000  0.26386100  0.25473000  1
  N  N294  1  0.30109000  0.73613900  0.75473000  1
  N  N295  1  0.69891000  0.73613900  0.74527000  1
  N  N296  1  0.34934500  0.21454200  0.67339700  1
  N  N297  1  0.65065500  0.21454200  0.82660300  1
  N  N298  1  0.65065500  0.78545800  0.32660300  1
  N  N299  1  0.34934500  0.78545800  0.17339700  1
  N  N300  1  0.38994650  0.33028050  0.76216100  1
  N  N301  1  0.61005350  0.33028050  0.73783900  1
  N  N302  1  0.61005350  0.66971950  0.23783900  1
  N  N303  1  0.38994650  0.66971950  0.26216100  1
  O  O304  1  0.83633550  0.46178450  0.15828200  1
  O  O305  1  0.16366450  0.46178450  0.34171800  1
  O  O306  1  0.16366450  0.53821550  0.84171800  1
  O  O307  1  0.83633550  0.53821550  0.65828200  1
  O  O308  1  0.63724200  0.51098400  0.84840000  1
  O  O309  1  0.36275800  0.51098400  0.65160000  1
  O  O310  1  0.36275800  0.48901600  0.15160000  1
  O  O311  1  0.63724200  0.48901600  0.34840000  1
  O  O312  1  0.64164550  0.45250450  0.02615100  1
  O  O313  1  0.35835450  0.45250450  0.47384900  1
  O  O314  1  0.35835450  0.54749550  0.97384900  1
  O  O315  1  0.64164550  0.54749550  0.52615100  1
  O  O316  1  0.76906500  0.37943900  0.95699300  1
  O  O317  1  0.23093500  0.37943900  0.54300700  1
  O  O318  1  0.23093500  0.62056100  0.04300700  1
  O  O319  1  0.76906500  0.62056100  0.45699300  1
  O  O320  1  0.72889350  0.61370150  0.04246800  1
  O  O321  1  0.27110650  0.61370150  0.45753200  1
  O  O322  1  0.27110650  0.38629850  0.95753200  1
  O  O323  1  0.72889350  0.38629850  0.54246800  1
  O  O324  1  0.86266250  0.53788750  0.00055300  1
  O  O325  1  0.13733750  0.53788750  0.49944700  1
  O  O326  1  0.13733750  0.46211250  0.99944700  1
  O  O327  1  0.86266250  0.46211250  0.50055300  1
  O  O328  1  0.94276450  0.71309950  0.84724600  1
  O  O329  1  0.05723550  0.71309950  0.65275400  1
  O  O330  1  0.05723550  0.28690050  0.15275400  1
  O  O331  1  0.94276450  0.28690050  0.34724600  1
  O  O332  1  0.04068600  0.76513100  0.15808500  1
  O  O333  1  0.95931400  0.76513100  0.34191500  1
  O  O334  1  0.95931400  0.23486900  0.84191500  1
  O  O335  1  0.04068600  0.23486900  0.65808500  1
  O  O336  1  0.13998250  0.20994750  0.04253500  1
  O  O337  1  0.86001750  0.20994750  0.45746500  1
  O  O338  1  0.86001750  0.79005250  0.95746500  1
  O  O339  1  0.13998250  0.79005250  0.54253500  1
  O  O340  1  0.96546750  0.63006450  0.02685500  1
  O  O341  1  0.03453250  0.63006450  0.47314500  1
  O  O342  1  0.03453250  0.36993550  0.97314500  1
  O  O343  1  0.96546750  0.36993550  0.52685500  1
  O  O344  1  0.03466950  0.86439550  0.99792500  1
  O  O345  1  0.96533050  0.86439550  0.50207500  1
  O  O346  1  0.96533050  0.13560450  0.00207500  1
  O  O347  1  0.03466950  0.13560450  0.49792500  1
  O  O348  1  0.86560800  0.29057800  0.95765800  1
  O  O349  1  0.13439200  0.29057800  0.54234200  1
  O  O350  1  0.13439200  0.70942200  0.04234200  1
  O  O351  1  0.86560800  0.70942200  0.45765800  1
  O  O352  1  0.33633550  0.96178450  0.15828200  1
  O  O353  1  0.66366450  0.96178450  0.34171800  1
  O  O354  1  0.66366450  0.03821550  0.84171800  1
  O  O355  1  0.33633550  0.03821550  0.65828200  1
  O  O356  1  0.13724200  0.01098400  0.84840000  1
  O  O357  1  0.86275800  0.01098400  0.65160000  1
  O  O358  1  0.86275800  0.98901600  0.15160000  1
  O  O359  1  0.13724200  0.98901600  0.34840000  1
  O  O360  1  0.14164550  0.95250450  0.02615100  1
  O  O361  1  0.85835450  0.95250450  0.47384900  1
  O  O362  1  0.85835450  0.04749550  0.97384900  1
  O  O363  1  0.14164550  0.04749550  0.52615100  1
  O  O364  1  0.26906500  0.87943900  0.95699300  1
  O  O365  1  0.73093500  0.87943900  0.54300700  1
  O  O366  1  0.73093500  0.12056100  0.04300700  1
  O  O367  1  0.26906500  0.12056100  0.45699300  1
  O  O368  1  0.22889350  0.11370150  0.04246800  1
  O  O369  1  0.77110650  0.11370150  0.45753200  1
  O  O370  1  0.77110650  0.88629850  0.95753200  1
  O  O371  1  0.22889350  0.88629850  0.54246800  1
  O  O372  1  0.36266250  0.03788750  0.00055300  1
  O  O373  1  0.63733750  0.03788750  0.49944700  1
  O  O374  1  0.63733750  0.96211250  0.99944700  1
  O  O375  1  0.36266250  0.96211250  0.50055300  1
  O  O376  1  0.44276450  0.21309950  0.84724600  1
  O  O377  1  0.55723550  0.21309950  0.65275400  1
  O  O378  1  0.55723550  0.78690050  0.15275400  1
  O  O379  1  0.44276450  0.78690050  0.34724600  1
  O  O380  1  0.54068600  0.26513100  0.15808500  1
  O  O381  1  0.45931400  0.26513100  0.34191500  1
  O  O382  1  0.45931400  0.73486900  0.84191500  1
  O  O383  1  0.54068600  0.73486900  0.65808500  1
  O  O384  1  0.63998250  0.70994750  0.04253500  1
  O  O385  1  0.36001750  0.70994750  0.45746500  1
  O  O386  1  0.36001750  0.29005250  0.95746500  1
  O  O387  1  0.63998250  0.29005250  0.54253500  1
  O  O388  1  0.46546750  0.13006450  0.02685500  1
  O  O389  1  0.53453250  0.13006450  0.47314500  1
  O  O390  1  0.53453250  0.86993550  0.97314500  1
  O  O391  1  0.46546750  0.86993550  0.52685500  1
  O  O392  1  0.53466950  0.36439550  0.99792500  1
  O  O393  1  0.46533050  0.36439550  0.50207500  1
  O  O394  1  0.46533050  0.63560450  0.00207500  1
  O  O395  1  0.53466950  0.63560450  0.49792500  1
  O  O396  1  0.36560800  0.79057800  0.95765800  1
  O  O397  1  0.63439200  0.79057800  0.54234200  1
  O  O398  1  0.63439200  0.20942200  0.04234200  1
  O  O399  1  0.36560800  0.20942200  0.45765800  1
