# generated using pymatgen
data_CdIn2O4
_symmetry_space_group_name_H-M   'P 1'
_cell_length_a   6.48413800
_cell_length_b   6.66863200
_cell_length_c   9.32054800
_cell_angle_alpha   90.00000000
_cell_angle_beta   90.00000000
_cell_angle_gamma   90.00000000
_symmetry_Int_Tables_number   1
_chemical_formula_structural   CdIn2O4
_chemical_formula_sum   'Cd4 In8 O16'
_cell_volume   403.02357278
_cell_formula_units_Z   4
loop_
 _symmetry_equiv_pos_site_id
 _symmetry_equiv_pos_as_xyz
  1  'x, y, z'
loop_
 _atom_site_type_symbol
 _atom_site_label
 _atom_site_symmetry_multiplicity
 _atom_site_fract_x
 _atom_site_fract_y
 _atom_site_fract_z
 _atom_site_occupancy
  Cd  Cd0  1  0.75000000  0.25000000  0.25000000  1
  Cd  Cd1  1  0.25000000  0.25000000  0.25000000  1
  Cd  Cd2  1  0.25000000  0.75000000  0.75000000  1
  Cd  Cd3  1  0.75000000  0.75000000  0.75000000  1
  In  In4  1  0.50000000  0.25000000  0.63357200  1
  In  In5  1  0.50000000  0.75000000  0.36642800  1
  In  In6  1  0.00000000  0.00000000  0.50000000  1
  In  In7  1  0.50000000  0.00000000  0.00000000  1
  In  In8  1  0.00000000  0.75000000  0.13357200  1
  In  In9  1  0.00000000  0.25000000  0.86642800  1
  In  In10  1  0.50000000  0.50000000  0.00000000  1
  In  In11  1  0.00000000  0.50000000  0.50000000  1
  O  O12  1  0.23085200  0.75000000  0.49800000  1
  O  O13  1  0.76914800  0.75000000  0.49800000  1
  O  O14  1  0.00000000  0.99519900  0.73473700  1
  O  O15  1  0.50000000  0.00480100  0.23473700  1
  O  O16  1  0.50000000  0.99519900  0.76526300  1
  O  O17  1  0.00000000  0.00480100  0.26526300  1
  O  O18  1  0.23085200  0.25000000  0.50200000  1
  O  O19  1  0.76914800  0.25000000  0.50200000  1
  O  O20  1  0.73085200  0.25000000  0.99800000  1
  O  O21  1  0.26914800  0.25000000  0.99800000  1
  O  O22  1  0.50000000  0.49519900  0.23473700  1
  O  O23  1  0.00000000  0.50480100  0.73473700  1
  O  O24  1  0.00000000  0.49519900  0.26526300  1
  O  O25  1  0.50000000  0.50480100  0.76526300  1
  O  O26  1  0.73085200  0.75000000  0.00200000  1
  O  O27  1  0.26914800  0.75000000  0.00200000  1
