# generated using pymatgen
data_KCo2H3(SeO5)2
_symmetry_space_group_name_H-M   'P 1'
_cell_length_a   13.86766000
_cell_length_b   7.14258800
_cell_length_c   7.08282900
_cell_angle_alpha   90.00000000
_cell_angle_beta   115.28099074
_cell_angle_gamma   90.00000000
_symmetry_Int_Tables_number   1
_chemical_formula_structural   KCo2H3(SeO5)2
_chemical_formula_sum   'K2 Co4 H6 Se4 O20'
_cell_volume   634.36864587
_cell_formula_units_Z   2
loop_
 _symmetry_equiv_pos_site_id
 _symmetry_equiv_pos_as_xyz
  1  'x, y, z'
loop_
 _atom_site_type_symbol
 _atom_site_label
 _atom_site_symmetry_multiplicity
 _atom_site_fract_x
 _atom_site_fract_y
 _atom_site_fract_z
 _atom_site_occupancy
  K  K0  1  0.01660800  0.50000000  0.42023400  1
  K  K1  1  0.51660800  0.00000000  0.42023400  1
  Co  Co2  1  0.27086000  0.22768300  0.58746800  1
  Co  Co3  1  0.27086000  0.77231700  0.58746800  1
  Co  Co4  1  0.77086000  0.72768300  0.58746800  1
  Co  Co5  1  0.77086000  0.27231700  0.58746800  1
  H  H6  1  0.47254100  0.50000000  0.49761500  1
  H  H7  1  0.49359300  0.00000000  0.91455700  1
  H  H8  1  0.01813500  0.00000000  0.46699400  1
  H  H9  1  0.97254100  0.00000000  0.49761500  1
  H  H10  1  0.99359300  0.50000000  0.91455700  1
  H  H11  1  0.51813500  0.50000000  0.46699400  1
  Se  Se12  1  0.38210100  0.50000000  0.88041300  1
  Se  Se13  1  0.17644700  0.00000000  0.22323900  1
  Se  Se14  1  0.88210100  0.00000000  0.88041300  1
  Se  Se15  1  0.67644700  0.50000000  0.22323900  1
  O  O16  1  0.27493200  0.00000000  0.75915100  1
  O  O17  1  0.12936100  0.50000000  0.91930800  1
  O  O18  1  0.30988500  0.00000000  0.41514400  1
  O  O19  1  0.13821200  0.80843900  0.32627700  1
  O  O20  1  0.41981450  0.30732950  0.78219600  1
  O  O21  1  0.13821200  0.19156100  0.32627700  1
  O  O22  1  0.41981450  0.69267050  0.78219600  1
  O  O23  1  0.24774800  0.50000000  0.68228100  1
  O  O24  1  0.30900900  0.00000000  0.96633100  1
  O  O25  1  0.06786600  0.50000000  0.02285300  1
  O  O26  1  0.77493200  0.50000000  0.75915100  1
  O  O27  1  0.62936100  0.00000000  0.91930800  1
  O  O28  1  0.80988500  0.50000000  0.41514400  1
  O  O29  1  0.63821200  0.30843900  0.32627700  1
  O  O30  1  0.91981450  0.80732950  0.78219600  1
  O  O31  1  0.63821200  0.69156100  0.32627700  1
  O  O32  1  0.91981450  0.19267050  0.78219600  1
  O  O33  1  0.74774800  0.00000000  0.68228100  1
  O  O34  1  0.80900900  0.50000000  0.96633100  1
  O  O35  1  0.56786600  0.00000000  0.02285300  1
