# generated using pymatgen
data_KGd2Cu(MoO4)4
_symmetry_space_group_name_H-M   'P 1'
_cell_length_a   5.34662000
_cell_length_b   12.84413800
_cell_length_c   19.79059988
_cell_angle_alpha   90.00000000
_cell_angle_beta   93.34587292
_cell_angle_gamma   90.00000000
_symmetry_Int_Tables_number   1
_chemical_formula_structural   KGd2Cu(MoO4)4
_chemical_formula_sum   'K4 Gd8 Cu4 Mo16 O64'
_cell_volume   1356.75775925
_cell_formula_units_Z   4
loop_
 _symmetry_equiv_pos_site_id
 _symmetry_equiv_pos_as_xyz
  1  'x, y, z'
loop_
 _atom_site_type_symbol
 _atom_site_label
 _atom_site_symmetry_multiplicity
 _atom_site_fract_x
 _atom_site_fract_y
 _atom_site_fract_z
 _atom_site_occupancy
  K  K0  1  0.00000000  0.97022500  0.75000000  1
  K  K1  1  0.50000000  0.52977500  0.25000000  1
  K  K2  1  0.50000000  0.47022500  0.75000000  1
  K  K3  1  0.00000000  0.02977500  0.25000000  1
  Gd  Gd4  1  0.00074500  0.85294400  0.96734800  1
  Gd  Gd5  1  0.49925500  0.64705600  0.03265200  1
  Gd  Gd6  1  0.99925500  0.85294400  0.53265200  1
  Gd  Gd7  1  0.50074500  0.64705600  0.46734800  1
  Gd  Gd8  1  0.50074500  0.35294400  0.96734800  1
  Gd  Gd9  1  0.99925500  0.14705600  0.03265200  1
  Gd  Gd10  1  0.49925500  0.35294400  0.53265200  1
  Gd  Gd11  1  0.00074500  0.14705600  0.46734800  1
  Cu  Cu12  1  0.00000000  0.69079000  0.75000000  1
  Cu  Cu13  1  0.50000000  0.80921000  0.25000000  1
  Cu  Cu14  1  0.50000000  0.19079000  0.75000000  1
  Cu  Cu15  1  0.00000000  0.30921000  0.25000000  1
  Mo  Mo16  1  0.48507700  0.93795800  0.40838800  1
  Mo  Mo17  1  0.48858050  0.75769850  0.85276300  1
  Mo  Mo18  1  0.01492300  0.56204200  0.59161200  1
  Mo  Mo19  1  0.51141950  0.75769850  0.64723700  1
  Mo  Mo20  1  0.98858050  0.74230150  0.35276300  1
  Mo  Mo21  1  0.01141950  0.74230150  0.14723700  1
  Mo  Mo22  1  0.51492300  0.93795800  0.09161200  1
  Mo  Mo23  1  0.98507700  0.56204200  0.90838800  1
  Mo  Mo24  1  0.98507700  0.43795800  0.40838800  1
  Mo  Mo25  1  0.98858050  0.25769850  0.85276300  1
  Mo  Mo26  1  0.51492300  0.06204200  0.59161200  1
  Mo  Mo27  1  0.01141950  0.25769850  0.64723700  1
  Mo  Mo28  1  0.48858050  0.24230150  0.35276300  1
  Mo  Mo29  1  0.51141950  0.24230150  0.14723700  1
  Mo  Mo30  1  0.01492300  0.43795800  0.09161200  1
  Mo  Mo31  1  0.48507700  0.06204200  0.90838800  1
  O  O32  1  0.37813600  0.63908200  0.67219300  1
  O  O33  1  0.89941100  0.59302800  0.67175400  1
  O  O34  1  0.73726650  0.52005750  0.53853400  1
  O  O35  1  0.60058900  0.90697200  0.32824600  1
  O  O36  1  0.67647550  0.73911750  0.56706100  1
  O  O37  1  0.72390300  0.95344700  0.60047500  1
  O  O38  1  0.74836450  0.84757850  0.86889100  1
  O  O39  1  0.39941100  0.90697200  0.17175400  1
  O  O40  1  0.82352450  0.76088250  0.43293900  1
  O  O41  1  0.34104850  0.83228350  0.45787100  1
  O  O42  1  0.12186400  0.86091800  0.32780700  1
  O  O43  1  0.76273350  0.97994250  0.46146600  1
  O  O44  1  0.23726650  0.97994250  0.03853400  1
  O  O45  1  0.10058900  0.59302800  0.82824600  1
  O  O46  1  0.76552350  0.70409050  0.28656400  1
  O  O47  1  0.22390300  0.54655300  0.10047500  1
  O  O48  1  0.24836450  0.65242150  0.36889100  1
  O  O49  1  0.77609700  0.54655300  0.39952500  1
  O  O50  1  0.25163550  0.84757850  0.63110900  1
  O  O51  1  0.62186400  0.63908200  0.82780700  1
  O  O52  1  0.65895150  0.83228350  0.04212900  1
  O  O53  1  0.26552350  0.79590950  0.78656400  1
  O  O54  1  0.84104850  0.66771650  0.95787100  1
  O  O55  1  0.87813600  0.86091800  0.17219300  1
  O  O56  1  0.27609700  0.95344700  0.89952500  1
  O  O57  1  0.23447650  0.70409050  0.21343600  1
  O  O58  1  0.15895150  0.66771650  0.54212900  1
  O  O59  1  0.75163550  0.65242150  0.13110900  1
  O  O60  1  0.32352450  0.73911750  0.93293900  1
  O  O61  1  0.26273350  0.52005750  0.96146600  1
  O  O62  1  0.17647550  0.76088250  0.06706100  1
  O  O63  1  0.73447650  0.79590950  0.71343600  1
  O  O64  1  0.87813600  0.13908200  0.67219300  1
  O  O65  1  0.39941100  0.09302800  0.67175400  1
  O  O66  1  0.23726650  0.02005750  0.53853400  1
  O  O67  1  0.10058900  0.40697200  0.32824600  1
  O  O68  1  0.17647550  0.23911750  0.56706100  1
  O  O69  1  0.22390300  0.45344700  0.60047500  1
  O  O70  1  0.24836450  0.34757850  0.86889100  1
  O  O71  1  0.89941100  0.40697200  0.17175400  1
  O  O72  1  0.32352450  0.26088250  0.43293900  1
  O  O73  1  0.84104850  0.33228350  0.45787100  1
  O  O74  1  0.62186400  0.36091800  0.32780700  1
  O  O75  1  0.26273350  0.47994250  0.46146600  1
  O  O76  1  0.73726650  0.47994250  0.03853400  1
  O  O77  1  0.60058900  0.09302800  0.82824600  1
  O  O78  1  0.26552350  0.20409050  0.28656400  1
  O  O79  1  0.72390300  0.04655300  0.10047500  1
  O  O80  1  0.74836450  0.15242150  0.36889100  1
  O  O81  1  0.27609700  0.04655300  0.39952500  1
  O  O82  1  0.75163550  0.34757850  0.63110900  1
  O  O83  1  0.12186400  0.13908200  0.82780700  1
  O  O84  1  0.15895150  0.33228350  0.04212900  1
  O  O85  1  0.76552350  0.29590950  0.78656400  1
  O  O86  1  0.34104850  0.16771650  0.95787100  1
  O  O87  1  0.37813600  0.36091800  0.17219300  1
  O  O88  1  0.77609700  0.45344700  0.89952500  1
  O  O89  1  0.73447650  0.20409050  0.21343600  1
  O  O90  1  0.65895150  0.16771650  0.54212900  1
  O  O91  1  0.25163550  0.15242150  0.13110900  1
  O  O92  1  0.82352450  0.23911750  0.93293900  1
  O  O93  1  0.76273350  0.02005750  0.96146600  1
  O  O94  1  0.67647550  0.26088250  0.06706100  1
  O  O95  1  0.23447650  0.29590950  0.71343600  1
