# generated using pymatgen
data_K2I2O3
_symmetry_space_group_name_H-M   'P 1'
_cell_length_a   6.11757200
_cell_length_b   6.04995800
_cell_length_c   10.95783182
_cell_angle_alpha   90.00000000
_cell_angle_beta   120.89945965
_cell_angle_gamma   90.00000000
_symmetry_Int_Tables_number   1
_chemical_formula_structural   K2I2O3
_chemical_formula_sum   'K4 I4 O6'
_cell_volume   347.99954099
_cell_formula_units_Z   2
loop_
 _symmetry_equiv_pos_site_id
 _symmetry_equiv_pos_as_xyz
  1  'x, y, z'
loop_
 _atom_site_type_symbol
 _atom_site_label
 _atom_site_symmetry_multiplicity
 _atom_site_fract_x
 _atom_site_fract_y
 _atom_site_fract_z
 _atom_site_occupancy
  K  K0  1  0.25932200  0.23767500  0.24423600  1
  K  K1  1  0.74448200  0.24799700  0.74495400  1
  K  K2  1  0.74448200  0.75200300  0.24495400  1
  K  K3  1  0.25932200  0.76232500  0.74423600  1
  I  I4  1  0.98279700  0.75788100  0.98485800  1
  I  I5  1  0.52504800  0.27006100  0.01010800  1
  I  I6  1  0.98279700  0.24211900  0.48485800  1
  I  I7  1  0.52504800  0.72993900  0.51010800  1
  O  O8  1  0.84497400  0.52661800  0.52913500  1
  O  O9  1  0.84497400  0.47338200  0.02913500  1
  O  O10  1  0.35777400  0.26146900  0.81021000  1
  O  O11  1  0.35723500  0.98835400  0.53370900  1
  O  O12  1  0.35777400  0.73853100  0.31021000  1
  O  O13  1  0.35723500  0.01164600  0.03370900  1
