# generated using pymatgen
data_SrTeO3
_symmetry_space_group_name_H-M   'P 1'
_cell_length_a   5.99365100
_cell_length_b   14.59121092
_cell_length_c   26.70280780
_cell_angle_alpha   93.78794742
_cell_angle_beta   96.31558572
_cell_angle_gamma   101.83785509
_symmetry_Int_Tables_number   1
_chemical_formula_structural   SrTeO3
_chemical_formula_sum   'Sr24 Te24 O72'
_cell_volume   2262.29766754
_cell_formula_units_Z   24
loop_
 _symmetry_equiv_pos_site_id
 _symmetry_equiv_pos_as_xyz
  1  'x, y, z'
loop_
 _atom_site_type_symbol
 _atom_site_label
 _atom_site_symmetry_multiplicity
 _atom_site_fract_x
 _atom_site_fract_y
 _atom_site_fract_z
 _atom_site_occupancy
  Sr  Sr0  1  0.71992900  0.56413000  0.44498200  1
  Sr  Sr1  1  0.21220400  0.93637000  0.05499500  1
  Sr  Sr2  1  0.87598400  0.32762700  0.92359900  1
  Sr  Sr3  1  0.76908800  0.34608300  0.63715600  1
  Sr  Sr4  1  0.12390600  0.53864500  0.21083600  1
  Sr  Sr5  1  0.28066700  0.15291900  0.86130000  1
  Sr  Sr6  1  0.71933300  0.84708100  0.13870000  1
  Sr  Sr7  1  0.63583400  0.44344700  0.30250700  1
  Sr  Sr8  1  0.87399200  0.96271900  0.29000600  1
  Sr  Sr9  1  0.12401600  0.67237300  0.07640100  1
  Sr  Sr10  1  0.23091200  0.65391700  0.36284400  1
  Sr  Sr11  1  0.96693100  0.75053200  0.74981300  1
  Sr  Sr12  1  0.50000000  0.50000000  0.00000000  1
  Sr  Sr13  1  0.36416600  0.55655300  0.69749300  1
  Sr  Sr14  1  0.12253800  0.17100500  0.57677900  1
  Sr  Sr15  1  0.61047800  0.94428500  0.80297400  1
  Sr  Sr16  1  0.87746200  0.82899500  0.42322100  1
  Sr  Sr17  1  0.28007100  0.43587000  0.55501800  1
  Sr  Sr18  1  0.50000000  0.00000000  0.50000000  1
  Sr  Sr19  1  0.87609400  0.46135500  0.78916400  1
  Sr  Sr20  1  0.03306900  0.24946800  0.25018700  1
  Sr  Sr21  1  0.12600800  0.03728100  0.70999400  1
  Sr  Sr22  1  0.38952200  0.05571500  0.19702600  1
  Sr  Sr23  1  0.78779600  0.06363000  0.94500500  1
  Te  Te24  1  0.12936900  0.40536100  0.38427900  1
  Te  Te25  1  0.72245400  0.68604000  0.29278600  1
  Te  Te26  1  0.63884600  0.29705800  0.49962000  1
  Te  Te27  1  0.83899900  0.09431200  0.11518000  1
  Te  Te28  1  0.34252400  0.20353900  0.00039000  1
  Te  Te29  1  0.53548000  0.84300000  0.67304000  1
  Te  Te30  1  0.36115400  0.70294200  0.50038000  1
  Te  Te31  1  0.97860300  0.88441000  0.57359800  1
  Te  Te32  1  0.24376200  0.81515000  0.20834000  1
  Te  Te33  1  0.02139700  0.11559000  0.42640200  1
  Te  Te34  1  0.16100100  0.90568800  0.88482000  1
  Te  Te35  1  0.39697400  0.41300500  0.86070700  1
  Te  Te36  1  0.75623800  0.18485000  0.79166000  1
  Te  Te37  1  0.65747600  0.79646100  0.99961000  1
  Te  Te38  1  0.02250600  0.61441900  0.92676100  1
  Te  Te39  1  0.87063100  0.59463900  0.61572100  1
  Te  Te40  1  0.61895100  0.08531400  0.64034500  1
  Te  Te41  1  0.27754600  0.31396000  0.70721400  1
  Te  Te42  1  0.60302600  0.58699500  0.13929300  1
  Te  Te43  1  0.97749400  0.38558100  0.07323900  1
  Te  Te44  1  0.48577500  0.34170300  0.17331200  1
  Te  Te45  1  0.51422500  0.65829700  0.82668800  1
  Te  Te46  1  0.38104900  0.91468600  0.35965500  1
  Te  Te47  1  0.46452000  0.15700000  0.32696000  1
  O  O48  1  0.03910700  0.89813000  0.21438400  1
  O  O49  1  0.52578000  0.70206600  0.44366700  1
  O  O50  1  0.90130900  0.66441400  0.15551300  1
  O  O51  1  0.27295900  0.89716600  0.55450200  1
  O  O52  1  0.80075900  0.67566100  0.36268100  1
  O  O53  1  0.56223200  0.33664900  0.82663700  1
  O  O54  1  0.42705700  0.60467200  0.28709300  1
  O  O55  1  0.06709000  0.69683100  0.46502600  1
  O  O56  1  0.01210000  0.00148000  0.61222800  1
  O  O57  1  0.23910800  0.07493700  0.00873000  1
  O  O58  1  0.47422000  0.29793400  0.55633300  1
  O  O59  1  0.58073600  0.83391200  0.34443600  1
  O  O60  1  0.57290800  0.99787200  0.11058200  1
  O  O61  1  0.00314300  0.36665900  0.31736600  1
  O  O62  1  0.89582200  0.49822500  0.88755700  1
  O  O63  1  0.34489200  0.21906800  0.18580800  1
  O  O64  1  0.98790000  0.99852000  0.38777200  1
  O  O65  1  0.44010600  0.28098700  0.31274000  1
  O  O66  1  0.40979200  0.48543000  0.37612100  1
  O  O67  1  0.34106000  0.88240500  0.42585600  1
  O  O68  1  0.19924100  0.32433900  0.63731900  1
  O  O69  1  0.42709200  0.00212800  0.88941800  1
  O  O70  1  0.89320900  0.16224800  0.67408800  1
  O  O71  1  0.04836300  0.01502700  0.12399600  1
  O  O72  1  0.80664900  0.90078500  0.51226900  1
  O  O73  1  0.96089300  0.10187000  0.78561600  1
  O  O74  1  0.10417800  0.50177500  0.11244300  1
  O  O75  1  0.90070500  0.59713000  0.98877000  1
  O  O76  1  0.12266800  0.20059300  0.94293800  1
  O  O77  1  0.89153500  0.59351000  0.27433200  1
  O  O78  1  0.65894000  0.11759500  0.57414400  1
  O  O79  1  0.81484500  0.13280100  0.18216600  1
  O  O80  1  0.43776800  0.66335100  0.17336300  1
  O  O81  1  0.72704100  0.10283400  0.44549800  1
  O  O82  1  0.32401800  0.60068000  0.94345100  1
  O  O83  1  0.67598200  0.39932000  0.05654900  1
  O  O84  1  0.26179000  0.82498800  0.13836000  1
  O  O85  1  0.76089200  0.92506300  0.99127000  1
  O  O86  1  0.59020800  0.51457000  0.62387900  1
  O  O87  1  0.57294300  0.39532800  0.71290700  1
  O  O88  1  0.03715800  0.49880600  0.60992900  1
  O  O89  1  0.96284200  0.50119400  0.39007100  1
  O  O90  1  0.18515500  0.86719900  0.81783400  1
  O  O91  1  0.66718800  0.59526000  0.78159400  1
  O  O92  1  0.47481200  0.09391700  0.77304300  1
  O  O93  1  0.46724100  0.38039400  0.92670000  1
  O  O94  1  0.21992000  0.62733600  0.78819200  1
  O  O95  1  0.87733200  0.79940700  0.05706200  1
  O  O96  1  0.09929500  0.40287000  0.01123000  1
  O  O97  1  0.60195300  0.19842700  0.96706700  1
  O  O98  1  0.20319700  0.09675900  0.28081200  1
  O  O99  1  0.78008000  0.37266400  0.21180800  1
  O  O100  1  0.30693500  0.87184300  0.71149200  1
  O  O101  1  0.93291000  0.30316900  0.53497400  1
  O  O102  1  0.10846500  0.40649000  0.72566800  1
  O  O103  1  0.09869100  0.33558600  0.84448700  1
  O  O104  1  0.65439000  0.42615600  0.49325500  1
  O  O105  1  0.99685700  0.63334100  0.68263400  1
  O  O106  1  0.79680300  0.90324100  0.71918800  1
  O  O107  1  0.34561000  0.57384400  0.50674500  1
  O  O108  1  0.53275900  0.61960600  0.07330000  1
  O  O109  1  0.10679100  0.83775200  0.32591200  1
  O  O110  1  0.55989400  0.71901300  0.68726000  1
  O  O111  1  0.33281200  0.40474000  0.21840600  1
  O  O112  1  0.65510800  0.78093200  0.81419200  1
  O  O113  1  0.95163700  0.98497300  0.87600400  1
  O  O114  1  0.69306500  0.12815700  0.28850800  1
  O  O115  1  0.73821000  0.17501200  0.86164000  1
  O  O116  1  0.52518800  0.90608300  0.22695700  1
  O  O117  1  0.41926400  0.16608800  0.65556400  1
  O  O118  1  0.19335100  0.09921500  0.48773100  1
  O  O119  1  0.39804700  0.80157300  0.03293300  1
