# generated using pymatgen
data_TlH6(NO4)3
_symmetry_space_group_name_H-M   'P 1'
_cell_length_a   12.13406971
_cell_length_b   12.13406971
_cell_length_c   10.83605372
_cell_angle_alpha   90.00000000
_cell_angle_beta   90.00000000
_cell_angle_gamma   120.00000000
_symmetry_Int_Tables_number   1
_chemical_formula_structural   TlH6(NO4)3
_chemical_formula_sum   'Tl6 H36 N18 O72'
_cell_volume   1381.70316408
_cell_formula_units_Z   6
loop_
 _symmetry_equiv_pos_site_id
 _symmetry_equiv_pos_as_xyz
  1  'x, y, z'
loop_
 _atom_site_type_symbol
 _atom_site_label
 _atom_site_symmetry_multiplicity
 _atom_site_fract_x
 _atom_site_fract_y
 _atom_site_fract_z
 _atom_site_occupancy
  Tl  Tl0  1  0.00000000  0.00000000  0.24396900  1
  Tl  Tl1  1  0.00000000  0.00000000  0.75603100  1
  Tl  Tl2  1  0.66666667  0.33333333  0.57730233  1
  Tl  Tl3  1  0.66666667  0.33333333  0.08936433  1
  Tl  Tl4  1  0.33333333  0.66666667  0.91063567  1
  Tl  Tl5  1  0.33333333  0.66666667  0.42269767  1
  H  H6  1  0.96109033  0.76394167  0.34264167  1
  H  H7  1  0.80285133  0.03890967  0.34264167  1
  H  H8  1  0.23605833  0.19714867  0.34264167  1
  H  H9  1  0.03890967  0.23605833  0.65735833  1
  H  H10  1  0.19714867  0.96109033  0.65735833  1
  H  H11  1  0.76394167  0.80285133  0.65735833  1
  H  H12  1  0.88856100  0.80123200  0.44067800  1
  H  H13  1  0.91267100  0.11143900  0.44067800  1
  H  H14  1  0.19876800  0.08732900  0.44067800  1
  H  H15  1  0.11143900  0.19876800  0.55932200  1
  H  H16  1  0.08732900  0.88856100  0.55932200  1
  H  H17  1  0.80123200  0.91267100  0.55932200  1
  H  H18  1  0.62775700  0.09727500  0.67597500  1
  H  H19  1  0.46951800  0.37224300  0.67597500  1
  H  H20  1  0.90272500  0.53048200  0.67597500  1
  H  H21  1  0.70557633  0.56939167  0.99069167  1
  H  H22  1  0.86381533  0.29442367  0.99069167  1
  H  H23  1  0.43060833  0.13618467  0.99069167  1
  H  H24  1  0.55522767  0.13456533  0.77401133  1
  H  H25  1  0.57933767  0.44477233  0.77401133  1
  H  H26  1  0.86543467  0.42066233  0.77401133  1
  H  H27  1  0.77810567  0.53210133  0.89265533  1
  H  H28  1  0.75399567  0.22189433  0.89265533  1
  H  H29  1  0.46789867  0.24600433  0.89265533  1
  H  H30  1  0.29442367  0.43060833  0.00930833  1
  H  H31  1  0.13618467  0.70557633  0.00930833  1
  H  H32  1  0.56939167  0.86381533  0.00930833  1
  H  H33  1  0.37224300  0.90272500  0.32402500  1
  H  H34  1  0.53048200  0.62775700  0.32402500  1
  H  H35  1  0.09727500  0.46951800  0.32402500  1
  H  H36  1  0.22189433  0.46789867  0.10734467  1
  H  H37  1  0.24600433  0.77810567  0.10734467  1
  H  H38  1  0.53210133  0.75399567  0.10734467  1
  H  H39  1  0.44477233  0.86543467  0.22598867  1
  H  H40  1  0.42066233  0.55522767  0.22598867  1
  H  H41  1  0.13456533  0.57933767  0.22598867  1
  N  N42  1  0.67915667  0.55953033  0.45926133  1
  N  N43  1  0.88037367  0.32084333  0.45926133  1
  N  N44  1  0.44046967  0.11962633  0.45926133  1
  N  N45  1  0.32084333  0.44046967  0.54073867  1
  N  N46  1  0.11962633  0.67915667  0.54073867  1
  N  N47  1  0.55953033  0.88037367  0.54073867  1
  N  N48  1  0.34582333  0.89286367  0.79259467  1
  N  N49  1  0.54704033  0.65417667  0.79259467  1
  N  N50  1  0.10713633  0.45295967  0.79259467  1
  N  N51  1  0.98751000  0.77380300  0.87407200  1
  N  N52  1  0.78629300  0.01249000  0.87407200  1
  N  N53  1  0.22619700  0.21370700  0.87407200  1
  N  N54  1  0.01249000  0.22619700  0.12592800  1
  N  N55  1  0.21370700  0.98751000  0.12592800  1
  N  N56  1  0.77380300  0.78629300  0.12592800  1
  N  N57  1  0.65417667  0.10713633  0.20740533  1
  N  N58  1  0.45295967  0.34582333  0.20740533  1
  N  N59  1  0.89286367  0.54704033  0.20740533  1
  O  O60  1  0.66782000  0.64075500  0.39875800  1
  O  O61  1  0.97293500  0.33218000  0.39875800  1
  O  O62  1  0.35924500  0.02706500  0.39875800  1
  O  O63  1  0.33218000  0.35924500  0.60124200  1
  O  O64  1  0.02706500  0.66782000  0.60124200  1
  O  O65  1  0.64075500  0.97293500  0.60124200  1
  O  O66  1  0.92757600  0.10572900  0.11258700  1
  O  O67  1  0.17815300  0.07242400  0.11258700  1
  O  O68  1  0.89427100  0.82184700  0.11258700  1
  O  O69  1  0.07242400  0.89427100  0.88741300  1
  O  O70  1  0.82184700  0.92757600  0.88741300  1
  O  O71  1  0.10572900  0.17815300  0.88741300  1
  O  O72  1  0.76971233  0.58910967  0.53259767  1
  O  O73  1  0.81939733  0.23028767  0.53259767  1
  O  O74  1  0.41089033  0.18060267  0.53259767  1
  O  O75  1  0.23028767  0.41089033  0.46740233  1
  O  O76  1  0.18060267  0.76971233  0.46740233  1
  O  O77  1  0.58910967  0.81939733  0.46740233  1
  O  O78  1  0.96484067  0.83702733  0.38817233  1
  O  O79  1  0.87218667  0.03515933  0.38817233  1
  O  O80  1  0.16297267  0.12781333  0.38817233  1
  O  O81  1  0.03515933  0.16297267  0.61182767  1
  O  O82  1  0.12781333  0.96484067  0.61182767  1
  O  O83  1  0.83702733  0.87218667  0.61182767  1
  O  O84  1  0.33448667  0.97408833  0.73209133  1
  O  O85  1  0.63960167  0.66551333  0.73209133  1
  O  O86  1  0.02591167  0.36039833  0.73209133  1
  O  O87  1  0.99884667  0.69257833  0.93457533  1
  O  O88  1  0.69373167  0.00115333  0.93457533  1
  O  O89  1  0.30742167  0.30626833  0.93457533  1
  O  O90  1  0.59424267  0.43906233  0.44592033  1
  O  O91  1  0.84481967  0.40575733  0.44592033  1
  O  O92  1  0.56093767  0.15518033  0.44592033  1
  O  O93  1  0.73909067  0.22760433  0.22074633  1
  O  O94  1  0.48851367  0.26090933  0.22074633  1
  O  O95  1  0.77239567  0.51148633  0.22074633  1
  O  O96  1  0.43637900  0.92244300  0.86593100  1
  O  O97  1  0.48606400  0.56362100  0.86593100  1
  O  O98  1  0.07755700  0.51393600  0.86593100  1
  O  O99  1  0.89695433  0.74422367  0.80073567  1
  O  O100  1  0.84726933  0.10304567  0.80073567  1
  O  O101  1  0.25577633  0.15273067  0.80073567  1
  O  O102  1  0.63150733  0.17036067  0.72150567  1
  O  O103  1  0.53885333  0.36849267  0.72150567  1
  O  O104  1  0.82963933  0.46114667  0.72150567  1
  O  O105  1  0.70182600  0.49630600  0.94516100  1
  O  O106  1  0.79448000  0.29817400  0.94516100  1
  O  O107  1  0.50369400  0.20552000  0.94516100  1
  O  O108  1  0.00115333  0.30742167  0.06542467  1
  O  O109  1  0.30626833  0.99884667  0.06542467  1
  O  O110  1  0.69257833  0.69373167  0.06542467  1
  O  O111  1  0.66551333  0.02591167  0.26790867  1
  O  O112  1  0.36039833  0.33448667  0.26790867  1
  O  O113  1  0.97408833  0.63960167  0.26790867  1
  O  O114  1  0.26090933  0.77239567  0.77925367  1
  O  O115  1  0.51148633  0.73909067  0.77925367  1
  O  O116  1  0.22760433  0.48851367  0.77925367  1
  O  O117  1  0.40575733  0.56093767  0.55407967  1
  O  O118  1  0.15518033  0.59424267  0.55407967  1
  O  O119  1  0.43906233  0.84481967  0.55407967  1
  O  O120  1  0.10304567  0.25577633  0.19926433  1
  O  O121  1  0.15273067  0.89695433  0.19926433  1
  O  O122  1  0.74422367  0.84726933  0.19926433  1
  O  O123  1  0.56362100  0.07755700  0.13406900  1
  O  O124  1  0.51393600  0.43637900  0.13406900  1
  O  O125  1  0.92244300  0.48606400  0.13406900  1
  O  O126  1  0.29817400  0.50369400  0.05483900  1
  O  O127  1  0.20552000  0.70182600  0.05483900  1
  O  O128  1  0.49630600  0.79448000  0.05483900  1
  O  O129  1  0.36849267  0.82963933  0.27849433  1
  O  O130  1  0.46114667  0.63150733  0.27849433  1
  O  O131  1  0.17036067  0.53885333  0.27849433  1
