# generated using pymatgen
data_NaB9Se8
_symmetry_space_group_name_H-M   'P 1'
_cell_length_a   17.23554627
_cell_length_b   17.23554627
_cell_length_c   9.03849700
_cell_angle_alpha   90.00000000
_cell_angle_beta   90.00000000
_cell_angle_gamma   120.00000000
_symmetry_Int_Tables_number   1
_chemical_formula_structural   NaB9Se8
_chemical_formula_sum   'Na6 B54 Se48'
_cell_volume   2325.28909777
_cell_formula_units_Z   6
loop_
 _symmetry_equiv_pos_site_id
 _symmetry_equiv_pos_as_xyz
  1  'x, y, z'
loop_
 _atom_site_type_symbol
 _atom_site_label
 _atom_site_symmetry_multiplicity
 _atom_site_fract_x
 _atom_site_fract_y
 _atom_site_fract_z
 _atom_site_occupancy
  Na  Na0  1  0.34070600  0.14696600  0.80097900  1
  Na  Na1  1  0.80626000  0.65929400  0.80097900  1
  Na  Na2  1  0.14696600  0.80626000  0.19902100  1
  Na  Na3  1  0.19374000  0.34070600  0.19902100  1
  Na  Na4  1  0.85303400  0.19374000  0.80097900  1
  Na  Na5  1  0.65929400  0.85303400  0.19902100  1
  B  B6  1  0.98507700  0.93439000  0.85103300  1
  B  B7  1  0.32877900  0.56825700  0.98240400  1
  B  B8  1  0.56825700  0.23947800  0.01759600  1
  B  B9  1  0.02515000  0.10596500  0.96399700  1
  B  B10  1  0.56256200  0.79724600  0.74764700  1
  B  B11  1  0.27395100  0.66789400  0.16748300  1
  B  B12  1  0.23544000  0.57264400  0.05439200  1
  B  B13  1  0.01492300  0.06561000  0.14896700  1
  B  B14  1  0.23206300  0.09451500  0.26675200  1
  B  B15  1  0.33552100  0.72735400  0.86956000  1
  B  B16  1  0.72604900  0.33210600  0.83251700  1
  B  B17  1  0.42448500  0.89762400  0.28920400  1
  B  B18  1  0.06561000  0.05068700  0.85103300  1
  B  B19  1  0.91918500  0.02515000  0.03600300  1
  B  B20  1  0.72735400  0.39183300  0.13044000  1
  B  B21  1  0.57551500  0.10237600  0.71079600  1
  B  B22  1  0.27264600  0.60816700  0.86956000  1
  B  B23  1  0.52686100  0.42448500  0.71079600  1
  B  B24  1  0.13754800  0.23206300  0.73324800  1
  B  B25  1  0.66447900  0.27264600  0.13044000  1
  B  B26  1  0.20275400  0.76531600  0.74764700  1
  B  B27  1  0.60605700  0.27395100  0.83251700  1
  B  B28  1  0.76531600  0.56256200  0.25235300  1
  B  B29  1  0.57264400  0.33720400  0.94560800  1
  B  B30  1  0.79724600  0.23468400  0.25235300  1
  B  B31  1  0.23947800  0.67122100  0.98240400  1
  B  B32  1  0.10237600  0.52686100  0.28920400  1
  B  B33  1  0.93439000  0.94931300  0.14896700  1
  B  B34  1  0.97485000  0.89403500  0.03600300  1
  B  B35  1  0.47313900  0.57551500  0.28920400  1
  B  B36  1  0.39394300  0.72604900  0.16748300  1
  B  B37  1  0.33720400  0.76456000  0.05439200  1
  B  B38  1  0.76052200  0.32877900  0.01759600  1
  B  B39  1  0.23468400  0.43743800  0.74764700  1
  B  B40  1  0.05068700  0.98507700  0.14896700  1
  B  B41  1  0.86245200  0.76793700  0.26675200  1
  B  B42  1  0.39183300  0.66447900  0.86956000  1
  B  B43  1  0.43743800  0.20275400  0.25235300  1
  B  B44  1  0.67122100  0.43174300  0.01759600  1
  B  B45  1  0.89403500  0.91918500  0.96399700  1
  B  B46  1  0.33210600  0.60605700  0.16748300  1
  B  B47  1  0.43174300  0.76052200  0.98240400  1
  B  B48  1  0.89762400  0.47313900  0.71079600  1
  B  B49  1  0.94931300  0.01492300  0.85103300  1
  B  B50  1  0.90548500  0.13754800  0.26675200  1
  B  B51  1  0.08081500  0.97485000  0.96399700  1
  B  B52  1  0.60816700  0.33552100  0.13044000  1
  B  B53  1  0.42735600  0.66279600  0.05439200  1
  B  B54  1  0.76456000  0.42735600  0.94560800  1
  B  B55  1  0.66789400  0.39394300  0.83251700  1
  B  B56  1  0.09451500  0.86245200  0.73324800  1
  B  B57  1  0.10596500  0.08081500  0.03600300  1
  B  B58  1  0.76793700  0.90548500  0.73324800  1
  B  B59  1  0.66279600  0.23544000  0.94560800  1
  Se  Se60  1  0.46607500  0.34860300  0.88472300  1
  Se  Se61  1  0.87402800  0.02021200  0.68466000  1
  Se  Se62  1  0.65262100  0.46402100  0.66605000  1
  Se  Se63  1  0.97978800  0.85381600  0.68466000  1
  Se  Se64  1  0.23213700  0.16876500  0.10045000  1
  Se  Se65  1  0.52746900  0.32356500  0.30110500  1
  Se  Se66  1  0.12597200  0.97978800  0.31534000  1
  Se  Se67  1  0.19865000  0.33658400  0.60290900  1
  Se  Se68  1  0.88252800  0.53392500  0.88472300  1
  Se  Se69  1  0.14618400  0.12597200  0.68466000  1
  Se  Se70  1  0.34737900  0.53597900  0.33395000  1
  Se  Se71  1  0.55115800  0.54942600  0.40901500  1
  Se  Se72  1  0.85381600  0.87402800  0.31534000  1
  Se  Se73  1  0.86206600  0.19865000  0.39709100  1
  Se  Se74  1  0.44884200  0.45057400  0.59098500  1
  Se  Se75  1  0.81140000  0.34737900  0.66605000  1
  Se  Se76  1  0.31035200  0.44780800  0.91777700  1
  Se  Se77  1  0.13745600  0.68964800  0.91777700  1
  Se  Se78  1  0.13793400  0.80135000  0.60290900  1
  Se  Se79  1  0.68964800  0.55219200  0.08222300  1
  Se  Se80  1  0.93662800  0.76786300  0.10045000  1
  Se  Se81  1  0.44780800  0.13745600  0.08222300  1
  Se  Se82  1  0.46402100  0.81140000  0.33395000  1
  Se  Se83  1  0.33658400  0.13793400  0.39709100  1
  Se  Se84  1  0.20390400  0.52746900  0.69889500  1
  Se  Se85  1  0.53597900  0.18860000  0.66605000  1
  Se  Se86  1  0.47253100  0.67643500  0.69889500  1
  Se  Se87  1  0.67643500  0.20390400  0.30110500  1
  Se  Se88  1  0.06337200  0.23213700  0.89955000  1
  Se  Se89  1  0.86254400  0.31035200  0.08222300  1
  Se  Se90  1  0.34860300  0.88252800  0.11527700  1
  Se  Se91  1  0.00173200  0.55115800  0.59098500  1
  Se  Se92  1  0.02021200  0.14618400  0.31534000  1
  Se  Se93  1  0.76786300  0.83123500  0.89955000  1
  Se  Se94  1  0.99826800  0.44884200  0.40901500  1
  Se  Se95  1  0.45057400  0.00173200  0.40901500  1
  Se  Se96  1  0.65139700  0.11747200  0.88472300  1
  Se  Se97  1  0.80135000  0.66341600  0.39709100  1
  Se  Se98  1  0.66341600  0.86206600  0.60290900  1
  Se  Se99  1  0.18860000  0.65262100  0.33395000  1
  Se  Se100  1  0.16876500  0.93662800  0.89955000  1
  Se  Se101  1  0.11747200  0.46607500  0.11527700  1
  Se  Se102  1  0.79609600  0.47253100  0.30110500  1
  Se  Se103  1  0.54942600  0.99826800  0.59098500  1
  Se  Se104  1  0.55219200  0.86254400  0.91777700  1
  Se  Se105  1  0.83123500  0.06337200  0.10045000  1
  Se  Se106  1  0.53392500  0.65139700  0.11527700  1
  Se  Se107  1  0.32356500  0.79609600  0.69889500  1
