# generated using pymatgen
data_Li2TiO3
_symmetry_space_group_name_H-M   'P 1'
_cell_length_a   8.41906800
_cell_length_b   8.31427600
_cell_length_c   13.22882006
_cell_angle_alpha   90.00000000
_cell_angle_beta   108.36966566
_cell_angle_gamma   90.00000000
_symmetry_Int_Tables_number   1
_chemical_formula_structural   Li2TiO3
_chemical_formula_sum   'Li32 Ti16 O48'
_cell_volume   878.81093314
_cell_formula_units_Z   16
loop_
 _symmetry_equiv_pos_site_id
 _symmetry_equiv_pos_as_xyz
  1  'x, y, z'
loop_
 _atom_site_type_symbol
 _atom_site_label
 _atom_site_symmetry_multiplicity
 _atom_site_fract_x
 _atom_site_fract_y
 _atom_site_fract_z
 _atom_site_occupancy
  Li  Li0  1  0.91672750  0.75209050  0.83127200  1
  Li  Li1  1  0.00000000  0.00000000  0.00000000  1
  Li  Li2  1  0.58327250  0.74790950  0.16872800  1
  Li  Li3  1  0.66411050  0.50056550  0.83268700  1
  Li  Li4  1  0.66736200  0.00210100  0.33048300  1
  Li  Li5  1  0.75000000  0.75000000  0.00000000  1
  Li  Li6  1  0.83588950  0.99943450  0.16731300  1
  Li  Li7  1  0.75000000  0.25000000  0.50000000  1
  Li  Li8  1  0.00000000  0.00000000  0.50000000  1
  Li  Li9  1  0.83263800  0.49789900  0.66951700  1
  Li  Li10  1  0.41672750  0.74790950  0.33127200  1
  Li  Li11  1  0.66411050  0.49943450  0.33268700  1
  Li  Li12  1  0.16736200  0.49789900  0.83048300  1
  Li  Li13  1  0.08327250  0.75209050  0.66872800  1
  Li  Li14  1  0.83588950  0.00056550  0.66731300  1
  Li  Li15  1  0.33263800  0.00210100  0.16951700  1
  Li  Li16  1  0.41672750  0.25209050  0.83127200  1
  Li  Li17  1  0.50000000  0.50000000  0.00000000  1
  Li  Li18  1  0.08327250  0.24790950  0.16872800  1
  Li  Li19  1  0.16411050  0.00056550  0.83268700  1
  Li  Li20  1  0.16736200  0.50210100  0.33048300  1
  Li  Li21  1  0.25000000  0.25000000  0.00000000  1
  Li  Li22  1  0.33588950  0.49943450  0.16731300  1
  Li  Li23  1  0.25000000  0.75000000  0.50000000  1
  Li  Li24  1  0.50000000  0.50000000  0.50000000  1
  Li  Li25  1  0.33263800  0.99789900  0.66951700  1
  Li  Li26  1  0.91672750  0.24790950  0.33127200  1
  Li  Li27  1  0.16411050  0.99943450  0.33268700  1
  Li  Li28  1  0.66736200  0.99789900  0.83048300  1
  Li  Li29  1  0.58327250  0.25209050  0.66872800  1
  Li  Li30  1  0.33588950  0.50056550  0.66731300  1
  Li  Li31  1  0.83263800  0.50210100  0.16951700  1
  Ti  Ti32  1  0.90740800  0.76386000  0.32530200  1
  Ti  Ti33  1  0.59259200  0.73614000  0.67469800  1
  Ti  Ti34  1  0.50000000  0.00000000  0.50000000  1
  Ti  Ti35  1  0.75000000  0.75000000  0.50000000  1
  Ti  Ti36  1  0.25000000  0.75000000  0.00000000  1
  Ti  Ti37  1  0.90740800  0.23614000  0.82530200  1
  Ti  Ti38  1  0.00000000  0.50000000  0.00000000  1
  Ti  Ti39  1  0.59259200  0.26386000  0.17469800  1
  Ti  Ti40  1  0.40740800  0.26386000  0.32530200  1
  Ti  Ti41  1  0.09259200  0.23614000  0.67469800  1
  Ti  Ti42  1  0.00000000  0.50000000  0.50000000  1
  Ti  Ti43  1  0.25000000  0.25000000  0.50000000  1
  Ti  Ti44  1  0.75000000  0.25000000  0.00000000  1
  Ti  Ti45  1  0.40740800  0.73614000  0.82530200  1
  Ti  Ti46  1  0.50000000  0.00000000  0.00000000  1
  Ti  Ti47  1  0.09259200  0.76386000  0.17469800  1
  O  O48  1  0.26280950  0.98514650  0.00057900  1
  O  O49  1  0.84866950  0.74845150  0.17512700  1
  O  O50  1  0.91849300  0.98255100  0.33579400  1
  O  O51  1  0.51072500  0.24369100  0.00264300  1
  O  O52  1  0.76280950  0.51485350  0.50057900  1
  O  O53  1  0.58150700  0.48255100  0.16420600  1
  O  O54  1  0.51072500  0.75630900  0.50264300  1
  O  O55  1  0.81694400  0.75140000  0.65845100  1
  O  O56  1  0.07585450  0.49075050  0.65345800  1
  O  O57  1  0.68305600  0.74860000  0.34154900  1
  O  O58  1  0.91849300  0.01744900  0.83579400  1
  O  O59  1  0.18305600  0.75140000  0.84154900  1
  O  O60  1  0.98927500  0.74369100  0.49735700  1
  O  O61  1  0.73719050  0.98514650  0.49942100  1
  O  O62  1  0.58150700  0.51744900  0.66420600  1
  O  O63  1  0.98927500  0.25630900  0.99735700  1
  O  O64  1  0.84866950  0.25154850  0.67512700  1
  O  O65  1  0.57585450  0.00924950  0.15345800  1
  O  O66  1  0.65133050  0.75154850  0.82487300  1
  O  O67  1  0.92414550  0.49075050  0.84654200  1
  O  O68  1  0.23719050  0.51485350  0.99942100  1
  O  O69  1  0.65133050  0.24845150  0.32487300  1
  O  O70  1  0.31694400  0.74860000  0.15845100  1
  O  O71  1  0.42414550  0.00924950  0.34654200  1
  O  O72  1  0.76280950  0.48514650  0.00057900  1
  O  O73  1  0.34866950  0.24845150  0.17512700  1
  O  O74  1  0.41849300  0.48255100  0.33579400  1
  O  O75  1  0.01072500  0.74369100  0.00264300  1
  O  O76  1  0.26280950  0.01485350  0.50057900  1
  O  O77  1  0.08150700  0.98255100  0.16420600  1
  O  O78  1  0.01072500  0.25630900  0.50264300  1
  O  O79  1  0.31694400  0.25140000  0.65845100  1
  O  O80  1  0.57585450  0.99075050  0.65345800  1
  O  O81  1  0.18305600  0.24860000  0.34154900  1
  O  O82  1  0.41849300  0.51744900  0.83579400  1
  O  O83  1  0.68305600  0.25140000  0.84154900  1
  O  O84  1  0.48927500  0.24369100  0.49735700  1
  O  O85  1  0.23719050  0.48514650  0.49942100  1
  O  O86  1  0.08150700  0.01744900  0.66420600  1
  O  O87  1  0.48927500  0.75630900  0.99735700  1
  O  O88  1  0.34866950  0.75154850  0.67512700  1
  O  O89  1  0.07585450  0.50924950  0.15345800  1
  O  O90  1  0.15133050  0.25154850  0.82487300  1
  O  O91  1  0.42414550  0.99075050  0.84654200  1
  O  O92  1  0.73719050  0.01485350  0.99942100  1
  O  O93  1  0.15133050  0.74845150  0.32487300  1
  O  O94  1  0.81694400  0.24860000  0.15845100  1
  O  O95  1  0.92414550  0.50924950  0.34654200  1
