# generated using pymatgen
data_Na4Al11Si13Ag7O48
_symmetry_space_group_name_H-M   'P 1'
_cell_length_a   12.08672600
_cell_length_b   12.45522932
_cell_length_c   12.79279253
_cell_angle_alpha   90.17142058
_cell_angle_beta   91.25661537
_cell_angle_gamma   90.04184286
_symmetry_Int_Tables_number   1
_chemical_formula_structural   Na4Al11Si13Ag7O48
_chemical_formula_sum   'Na4 Al11 Si13 Ag7 O48'
_cell_volume   1925.39225559
_cell_formula_units_Z   1
loop_
 _symmetry_equiv_pos_site_id
 _symmetry_equiv_pos_as_xyz
  1  'x, y, z'
loop_
 _atom_site_type_symbol
 _atom_site_label
 _atom_site_symmetry_multiplicity
 _atom_site_fract_x
 _atom_site_fract_y
 _atom_site_fract_z
 _atom_site_occupancy
  Na  Na0  1  0.44446700  0.00255200  0.60524300  1
  Na  Na1  1  0.00405100  0.39459600  0.57084900  1
  Na  Na2  1  0.97937600  0.60431100  0.57427300  1
  Na  Na3  1  0.18891200  0.80120900  0.78519200  1
  Al  Al4  1  0.99845900  0.18885700  0.36680500  1
  Al  Al5  1  0.20364100  0.00140800  0.37729000  1
  Al  Al6  1  0.00360900  0.81129800  0.37045500  1
  Al  Al7  1  0.78883000  0.99711500  0.61127900  1
  Al  Al8  1  0.99443700  0.18422400  0.61462100  1
  Al  Al9  1  0.19767700  0.00097200  0.61973500  1
  Al  Al10  1  0.99461400  0.81607400  0.61772700  1
  Al  Al11  1  0.63481600  0.00204500  0.82596100  1
  Al  Al12  1  0.99585300  0.37053300  0.81844700  1
  Al  Al13  1  0.00039600  0.62808200  0.81845600  1
  Al  Al14  1  0.35768100  0.99761100  0.83991400  1
  Si  Si15  1  0.63530600  0.18417400  0.00100400  1
  Si  Si16  1  0.81273300  0.37165300  0.99911300  1
  Si  Si17  1  0.18659900  0.37149000  0.00688300  1
  Si  Si18  1  0.63440200  0.81612900  0.99943700  1
  Si  Si19  1  0.18792700  0.62712100  0.00630200  1
  Si  Si20  1  0.36868500  0.81402500  0.00522000  1
  Si  Si21  1  0.63736100  0.00134500  0.17213500  1
  Si  Si22  1  0.00147100  0.37241100  0.17850000  1
  Si  Si23  1  0.00232900  0.62610000  0.17805500  1
  Si  Si24  1  0.37721800  0.00124900  0.17867300  1
  Si  Si25  1  0.81323700  0.00177000  0.36387200  1
  Si  Si26  1  0.36874300  0.18543300  0.00487700  1
  Si  Si27  1  0.81312500  0.62603100  0.99680100  1
  Ag  Ag28  1  0.19246900  0.81544400  0.20417600  1
  Ag  Ag29  1  0.19099500  0.18894400  0.20815000  1
  Ag  Ag30  1  0.81247800  0.80209100  0.20005800  1
  Ag  Ag31  1  0.16772300  0.17553300  0.80216400  1
  Ag  Ag32  1  0.82692100  0.17238900  0.79975700  1
  Ag  Ag33  1  0.82505500  0.82764800  0.79942200  1
  Ag  Ag34  1  0.99323600  0.00387200  0.76803600  1
  O  O35  1  0.50115200  0.21076500  0.99528800  1
  O  O36  1  0.30095400  0.29946100  0.01642200  1
  O  O37  1  0.21927400  0.49934600  0.01371400  1
  O  O38  1  0.30151900  0.69981100  0.02047500  1
  O  O39  1  0.34787100  0.11340600  0.11250500  1
  O  O40  1  0.88973200  0.64862400  0.10438400  1
  O  O41  1  0.11318800  0.65857800  0.11008800  1
  O  O42  1  0.34518600  0.89068800  0.10952800  1
  O  O43  1  0.66054400  0.10866100  0.10400200  1
  O  O44  1  0.89405500  0.35528100  0.10144700  1
  O  O45  1  0.11578800  0.34141200  0.11277700  1
  O  O46  1  0.66521200  0.88892500  0.10577200  1
  O  O47  1  0.50828900  0.99732300  0.20177800  1
  O  O48  1  0.00962100  0.50013200  0.21000800  1
  O  O49  1  0.31056300  0.00074800  0.28373000  1
  O  O50  1  0.99569300  0.70266000  0.27807700  1
  O  O51  1  0.70833800  0.99612300  0.27794700  1
  O  O52  1  0.99894800  0.30037800  0.28063700  1
  O  O53  1  0.88539700  0.10624300  0.33830400  1
  O  O54  1  0.12343700  0.11734800  0.34986800  1
  O  O55  1  0.88302500  0.88930900  0.34117300  1
  O  O56  1  0.12453400  0.88392200  0.34776300  1
  O  O57  1  0.75807400  0.00003200  0.47785900  1
  O  O58  1  0.99011900  0.24425500  0.49222300  1
  O  O59  1  0.99658900  0.75489400  0.49461500  1
  O  O60  1  0.26584500  0.99834500  0.50183100  1
  O  O61  1  0.87800000  0.10642500  0.64486100  1
  O  O62  1  0.11861700  0.11730600  0.64279400  1
  O  O63  1  0.86866500  0.88091300  0.64171800  1
  O  O64  1  0.10548400  0.89771200  0.65307200  1
  O  O65  1  0.29923600  0.99113000  0.71731400  1
  O  O66  1  0.00798700  0.71186700  0.71093800  1
  O  O67  1  0.68051200  0.00034200  0.69875700  1
  O  O68  1  0.99659000  0.28792800  0.70926100  1
  O  O69  1  0.99466200  0.49945800  0.76455200  1
  O  O70  1  0.49577600  0.00385600  0.83010600  1
  O  O71  1  0.31309900  0.11662800  0.90911700  1
  O  O72  1  0.88181400  0.66182000  0.89500800  1
  O  O73  1  0.12106500  0.65652900  0.89918500  1
  O  O74  1  0.31737400  0.87572800  0.90462600  1
  O  O75  1  0.68106200  0.11956700  0.89969500  1
  O  O76  1  0.87698700  0.33738100  0.89377000  1
  O  O77  1  0.11547400  0.34322600  0.90159700  1
  O  O78  1  0.67769500  0.88178000  0.89884700  1
  O  O79  1  0.70105600  0.29870500  0.01346600  1
  O  O80  1  0.77725300  0.49968800  0.99391800  1
  O  O81  1  0.70303600  0.70226400  0.01072400  1
  O  O82  1  0.50177800  0.78774400  0.00028000  1
