# generated using pymatgen
data_Ga2FeO4
_symmetry_space_group_name_H-M   'P 1'
_cell_length_a   5.87467304
_cell_length_b   6.07442625
_cell_length_c   8.48978758
_cell_angle_alpha   90.00000000
_cell_angle_beta   90.00000000
_cell_angle_gamma   90.00000000
_symmetry_Int_Tables_number   1
_chemical_formula_structural   Ga2FeO4
_chemical_formula_sum   'Ga8 Fe4 O16'
_cell_volume   302.96034623
_cell_formula_units_Z   4
loop_
 _symmetry_equiv_pos_site_id
 _symmetry_equiv_pos_as_xyz
  1  'x, y, z'
loop_
 _atom_site_type_symbol
 _atom_site_label
 _atom_site_symmetry_multiplicity
 _atom_site_fract_x
 _atom_site_fract_y
 _atom_site_fract_z
 _atom_site_occupancy
  Ga  Ga0  1  0.50000000  0.25000000  0.63575150  1
  Ga  Ga1  1  0.00000000  0.25000000  0.86424850  1
  Ga  Ga2  1  0.50000000  0.00000000  0.00000000  1
  Ga  Ga3  1  0.50000000  0.50000000  0.00000000  1
  Ga  Ga4  1  0.00000000  0.75000000  0.13575150  1
  Ga  Ga5  1  0.50000000  0.75000000  0.36424850  1
  Ga  Ga6  1  0.00000000  0.50000000  0.50000000  1
  Ga  Ga7  1  0.00000000  0.00000000  0.50000000  1
  Fe  Fe8  1  0.25000000  0.25000000  0.25000000  1
  Fe  Fe9  1  0.75000000  0.25000000  0.25000000  1
  Fe  Fe10  1  0.75000000  0.75000000  0.75000000  1
  Fe  Fe11  1  0.25000000  0.75000000  0.75000000  1
  O  O12  1  0.26434975  0.25000000  0.99742100  1
  O  O13  1  0.73565025  0.25000000  0.99742100  1
  O  O14  1  0.76434975  0.25000000  0.50257900  1
  O  O15  1  0.23565025  0.25000000  0.50257900  1
  O  O16  1  0.50000000  0.00181675  0.23523200  1
  O  O17  1  0.50000000  0.49818325  0.23523200  1
  O  O18  1  0.00000000  0.00181675  0.26476800  1
  O  O19  1  0.00000000  0.49818325  0.26476800  1
  O  O20  1  0.76434975  0.75000000  0.49742100  1
  O  O21  1  0.23565025  0.75000000  0.49742100  1
  O  O22  1  0.26434975  0.75000000  0.00257900  1
  O  O23  1  0.73565025  0.75000000  0.00257900  1
  O  O24  1  0.00000000  0.50181675  0.73523200  1
  O  O25  1  0.00000000  0.99818325  0.73523200  1
  O  O26  1  0.50000000  0.50181675  0.76476800  1
  O  O27  1  0.50000000  0.99818325  0.76476800  1
