# generated using pymatgen
data_Sb2Cl5F4
_symmetry_space_group_name_H-M   'P 1'
_cell_length_a   18.87370200
_cell_length_b   12.82153600
_cell_length_c   18.83881749
_cell_angle_alpha   90.00000000
_cell_angle_beta   97.17649124
_cell_angle_gamma   90.00000000
_symmetry_Int_Tables_number   1
_chemical_formula_structural   Sb2Cl5F4
_chemical_formula_sum   'Sb32 Cl80 F64'
_cell_volume   4523.08914735
_cell_formula_units_Z   16
loop_
 _symmetry_equiv_pos_site_id
 _symmetry_equiv_pos_as_xyz
  1  'x, y, z'
loop_
 _atom_site_type_symbol
 _atom_site_label
 _atom_site_symmetry_multiplicity
 _atom_site_fract_x
 _atom_site_fract_y
 _atom_site_fract_z
 _atom_site_occupancy
  Sb  Sb0  1  0.48017400  0.73604400  0.06654900  1
  Sb  Sb1  1  0.61009600  0.71156700  0.76981400  1
  Sb  Sb2  1  0.54430650  0.97264850  0.65799900  1
  Sb  Sb3  1  0.51982600  0.26395600  0.93345100  1
  Sb  Sb4  1  0.67171200  0.03514000  0.98302900  1
  Sb  Sb5  1  0.51982600  0.73604400  0.43345100  1
  Sb  Sb6  1  0.32828800  0.96486000  0.01697100  1
  Sb  Sb7  1  0.48017400  0.26395600  0.56654900  1
  Sb  Sb8  1  0.54430650  0.02735150  0.15799900  1
  Sb  Sb9  1  0.32828800  0.03514000  0.51697100  1
  Sb  Sb10  1  0.67171200  0.96486000  0.48302900  1
  Sb  Sb11  1  0.61009600  0.28843300  0.26981400  1
  Sb  Sb12  1  0.38990400  0.71156700  0.73018600  1
  Sb  Sb13  1  0.45569350  0.97264850  0.84200100  1
  Sb  Sb14  1  0.38990400  0.28843300  0.23018600  1
  Sb  Sb15  1  0.45569350  0.02735150  0.34200100  1
  Sb  Sb16  1  0.98017400  0.23604400  0.06654900  1
  Sb  Sb17  1  0.11009600  0.21156700  0.76981400  1
  Sb  Sb18  1  0.04430650  0.47264850  0.65799900  1
  Sb  Sb19  1  0.01982600  0.76395600  0.93345100  1
  Sb  Sb20  1  0.17171200  0.53514000  0.98302900  1
  Sb  Sb21  1  0.01982600  0.23604400  0.43345100  1
  Sb  Sb22  1  0.82828800  0.46486000  0.01697100  1
  Sb  Sb23  1  0.98017400  0.76395600  0.56654900  1
  Sb  Sb24  1  0.04430650  0.52735150  0.15799900  1
  Sb  Sb25  1  0.82828800  0.53514000  0.51697100  1
  Sb  Sb26  1  0.17171200  0.46486000  0.48302900  1
  Sb  Sb27  1  0.11009600  0.78843300  0.26981400  1
  Sb  Sb28  1  0.88990400  0.21156700  0.73018600  1
  Sb  Sb29  1  0.95569350  0.47264850  0.84200100  1
  Sb  Sb30  1  0.88990400  0.78843300  0.23018600  1
  Sb  Sb31  1  0.95569350  0.52735150  0.34200100  1
  Cl  Cl32  1  0.28112200  0.87191000  0.48627600  1
  Cl  Cl33  1  0.40549600  0.33215800  0.90319900  1
  Cl  Cl34  1  0.27217950  0.77132650  0.71265100  1
  Cl  Cl35  1  0.71887800  0.87191000  0.01372400  1
  Cl  Cl36  1  0.74074050  0.92199750  0.39256400  1
  Cl  Cl37  1  0.43223750  0.31033350  0.67020800  1
  Cl  Cl38  1  0.87146750  0.95543150  0.27494100  1
  Cl  Cl39  1  0.26255450  0.86608150  0.92756200  1
  Cl  Cl40  1  0.27217950  0.22867350  0.21265100  1
  Cl  Cl41  1  0.74074050  0.07800250  0.89256400  1
  Cl  Cl42  1  0.71887800  0.12809000  0.51372400  1
  Cl  Cl43  1  0.39803050  0.65812950  0.61292500  1
  Cl  Cl44  1  0.40549600  0.66784200  0.40319900  1
  Cl  Cl45  1  0.12853250  0.04456850  0.72505900  1
  Cl  Cl46  1  0.56776250  0.31033350  0.82979200  1
  Cl  Cl47  1  0.25925950  0.07800250  0.60743600  1
  Cl  Cl48  1  0.59450400  0.66784200  0.09680100  1
  Cl  Cl49  1  0.39803050  0.34187050  0.11292500  1
  Cl  Cl50  1  0.43223750  0.68966650  0.17020800  1
  Cl  Cl51  1  0.12853250  0.95543150  0.22505900  1
  Cl  Cl52  1  0.73744550  0.13391850  0.07243800  1
  Cl  Cl53  1  0.56776250  0.68966650  0.32979200  1
  Cl  Cl54  1  0.57258450  0.39457750  0.00692200  1
  Cl  Cl55  1  0.59450400  0.33215800  0.59680100  1
  Cl  Cl56  1  0.34614000  0.96105000  0.29152300  1
  Cl  Cl57  1  0.60196950  0.34187050  0.38707500  1
  Cl  Cl58  1  0.87146750  0.04456850  0.77494100  1
  Cl  Cl59  1  0.42741550  0.39457750  0.49307800  1
  Cl  Cl60  1  0.73744550  0.86608150  0.57243800  1
  Cl  Cl61  1  0.72782050  0.22867350  0.28734900  1
  Cl  Cl62  1  0.60196950  0.65812950  0.88707500  1
  Cl  Cl63  1  0.28112200  0.12809000  0.98627600  1
  Cl  Cl64  1  0.65386000  0.96105000  0.20847700  1
  Cl  Cl65  1  0.25925950  0.92199750  0.10743600  1
  Cl  Cl66  1  0.26255450  0.13391850  0.42756200  1
  Cl  Cl67  1  0.72782050  0.77132650  0.78734900  1
  Cl  Cl68  1  0.57258450  0.60542250  0.50692200  1
  Cl  Cl69  1  0.42741550  0.60542250  0.99307800  1
  Cl  Cl70  1  0.65386000  0.03895000  0.70847700  1
  Cl  Cl71  1  0.34614000  0.03895000  0.79152300  1
  Cl  Cl72  1  0.78112200  0.37191000  0.48627600  1
  Cl  Cl73  1  0.90549600  0.83215800  0.90319900  1
  Cl  Cl74  1  0.77217950  0.27132650  0.71265100  1
  Cl  Cl75  1  0.21887800  0.37191000  0.01372400  1
  Cl  Cl76  1  0.24074050  0.42199750  0.39256400  1
  Cl  Cl77  1  0.93223750  0.81033350  0.67020800  1
  Cl  Cl78  1  0.37146750  0.45543150  0.27494100  1
  Cl  Cl79  1  0.76255450  0.36608150  0.92756200  1
  Cl  Cl80  1  0.77217950  0.72867350  0.21265100  1
  Cl  Cl81  1  0.24074050  0.57800250  0.89256400  1
  Cl  Cl82  1  0.21887800  0.62809000  0.51372400  1
  Cl  Cl83  1  0.89803050  0.15812950  0.61292500  1
  Cl  Cl84  1  0.90549600  0.16784200  0.40319900  1
  Cl  Cl85  1  0.62853250  0.54456850  0.72505900  1
  Cl  Cl86  1  0.06776250  0.81033350  0.82979200  1
  Cl  Cl87  1  0.75925950  0.57800250  0.60743600  1
  Cl  Cl88  1  0.09450400  0.16784200  0.09680100  1
  Cl  Cl89  1  0.89803050  0.84187050  0.11292500  1
  Cl  Cl90  1  0.93223750  0.18966650  0.17020800  1
  Cl  Cl91  1  0.62853250  0.45543150  0.22505900  1
  Cl  Cl92  1  0.23744550  0.63391850  0.07243800  1
  Cl  Cl93  1  0.06776250  0.18966650  0.32979200  1
  Cl  Cl94  1  0.07258450  0.89457750  0.00692200  1
  Cl  Cl95  1  0.09450400  0.83215800  0.59680100  1
  Cl  Cl96  1  0.84614000  0.46105000  0.29152300  1
  Cl  Cl97  1  0.10196950  0.84187050  0.38707500  1
  Cl  Cl98  1  0.37146750  0.54456850  0.77494100  1
  Cl  Cl99  1  0.92741550  0.89457750  0.49307800  1
  Cl  Cl100  1  0.23744550  0.36608150  0.57243800  1
  Cl  Cl101  1  0.22782050  0.72867350  0.28734900  1
  Cl  Cl102  1  0.10196950  0.15812950  0.88707500  1
  Cl  Cl103  1  0.78112200  0.62809000  0.98627600  1
  Cl  Cl104  1  0.15386000  0.46105000  0.20847700  1
  Cl  Cl105  1  0.75925950  0.42199750  0.10743600  1
  Cl  Cl106  1  0.76255450  0.63391850  0.42756200  1
  Cl  Cl107  1  0.22782050  0.27132650  0.78734900  1
  Cl  Cl108  1  0.07258450  0.10542250  0.50692200  1
  Cl  Cl109  1  0.92741550  0.10542250  0.99307800  1
  Cl  Cl110  1  0.15386000  0.53895000  0.70847700  1
  Cl  Cl111  1  0.84614000  0.53895000  0.79152300  1
  F  F112  1  0.51492100  0.12693900  0.62382200  1
  F  F113  1  0.49214050  0.18483250  0.01080100  1
  F  F114  1  0.40603650  0.76678050  0.82785500  1
  F  F115  1  0.50000000  0.32618700  0.25000000  1
  F  F116  1  0.50000000  0.67381300  0.75000000  1
  F  F117  1  0.50000000  0.03015500  0.75000000  1
  F  F118  1  0.59396350  0.76678050  0.67214500  1
  F  F119  1  0.57126450  0.15109250  0.28917100  1
  F  F120  1  0.40381250  0.01943150  0.45121400  1
  F  F121  1  0.49214050  0.81516750  0.51080100  1
  F  F122  1  0.40603650  0.23321950  0.32785500  1
  F  F123  1  0.40254400  0.98105200  0.58718100  1
  F  F124  1  0.59396350  0.23321950  0.17214500  1
  F  F125  1  0.42873550  0.84890750  0.71082900  1
  F  F126  1  0.42873550  0.15109250  0.21082900  1
  F  F127  1  0.48507900  0.87306100  0.37617800  1
  F  F128  1  0.50785950  0.18483250  0.48919900  1
  F  F129  1  0.59745600  0.98105200  0.91281900  1
  F  F130  1  0.57126450  0.84890750  0.78917100  1
  F  F131  1  0.51492100  0.87306100  0.12382200  1
  F  F132  1  0.40254400  0.01894800  0.08718100  1
  F  F133  1  0.59618750  0.98056850  0.54878600  1
  F  F134  1  0.59618750  0.01943150  0.04878600  1
  F  F135  1  0.50000000  0.96984500  0.25000000  1
  F  F136  1  0.38581250  0.82363050  0.04380300  1
  F  F137  1  0.48507900  0.12693900  0.87617800  1
  F  F138  1  0.38581250  0.17636950  0.54380300  1
  F  F139  1  0.50785950  0.81516750  0.98919900  1
  F  F140  1  0.40381250  0.98056850  0.95121400  1
  F  F141  1  0.61418750  0.17636950  0.95619700  1
  F  F142  1  0.61418750  0.82363050  0.45619700  1
  F  F143  1  0.59745600  0.01894800  0.41281900  1
  F  F144  1  0.01492100  0.62693900  0.62382200  1
  F  F145  1  0.99214050  0.68483250  0.01080100  1
  F  F146  1  0.90603650  0.26678050  0.82785500  1
  F  F147  1  0.00000000  0.82618700  0.25000000  1
  F  F148  1  0.00000000  0.17381300  0.75000000  1
  F  F149  1  0.00000000  0.53015500  0.75000000  1
  F  F150  1  0.09396350  0.26678050  0.67214500  1
  F  F151  1  0.07126450  0.65109250  0.28917100  1
  F  F152  1  0.90381250  0.51943150  0.45121400  1
  F  F153  1  0.99214050  0.31516750  0.51080100  1
  F  F154  1  0.90603650  0.73321950  0.32785500  1
  F  F155  1  0.90254400  0.48105200  0.58718100  1
  F  F156  1  0.09396350  0.73321950  0.17214500  1
  F  F157  1  0.92873550  0.34890750  0.71082900  1
  F  F158  1  0.92873550  0.65109250  0.21082900  1
  F  F159  1  0.98507900  0.37306100  0.37617800  1
  F  F160  1  0.00785950  0.68483250  0.48919900  1
  F  F161  1  0.09745600  0.48105200  0.91281900  1
  F  F162  1  0.07126450  0.34890750  0.78917100  1
  F  F163  1  0.01492100  0.37306100  0.12382200  1
  F  F164  1  0.90254400  0.51894800  0.08718100  1
  F  F165  1  0.09618750  0.48056850  0.54878600  1
  F  F166  1  0.09618750  0.51943150  0.04878600  1
  F  F167  1  0.00000000  0.46984500  0.25000000  1
  F  F168  1  0.88581250  0.32363050  0.04380300  1
  F  F169  1  0.98507900  0.62693900  0.87617800  1
  F  F170  1  0.88581250  0.67636950  0.54380300  1
  F  F171  1  0.00785950  0.31516750  0.98919900  1
  F  F172  1  0.90381250  0.48056850  0.95121400  1
  F  F173  1  0.11418750  0.67636950  0.95619700  1
  F  F174  1  0.11418750  0.32363050  0.45619700  1
  F  F175  1  0.09745600  0.51894800  0.41281900  1
