# generated using pymatgen
data_PbWO4
_symmetry_space_group_name_H-M   'P 1'
_cell_length_a   7.49582400
_cell_length_b   7.18063300
_cell_length_c   14.83947451
_cell_angle_alpha   90.00000000
_cell_angle_beta   119.98859953
_cell_angle_gamma   90.00000000
_symmetry_Int_Tables_number   1
_chemical_formula_structural   PbWO4
_chemical_formula_sum   'Pb8 W8 O32'
_cell_volume   691.80093579
_cell_formula_units_Z   8
loop_
 _symmetry_equiv_pos_site_id
 _symmetry_equiv_pos_as_xyz
  1  'x, y, z'
loop_
 _atom_site_type_symbol
 _atom_site_label
 _atom_site_symmetry_multiplicity
 _atom_site_fract_x
 _atom_site_fract_y
 _atom_site_fract_z
 _atom_site_occupancy
  Pb  Pb0  1  0.98485600  0.20316600  0.65398700  1
  Pb  Pb1  1  0.98485600  0.29683400  0.15398700  1
  Pb  Pb2  1  0.01514400  0.79683400  0.34601300  1
  Pb  Pb3  1  0.01514400  0.70316600  0.84601300  1
  Pb  Pb4  1  0.51953400  0.46072300  0.64560100  1
  Pb  Pb5  1  0.51953400  0.03927700  0.14560100  1
  Pb  Pb6  1  0.48046600  0.53927700  0.35439900  1
  Pb  Pb7  1  0.48046600  0.96072300  0.85439900  1
  W  W8  1  0.99757800  0.66730600  0.58125000  1
  W  W9  1  0.99757800  0.83269400  0.08125000  1
  W  W10  1  0.00242200  0.33269400  0.41875000  1
  W  W11  1  0.00242200  0.16730600  0.91875000  1
  W  W12  1  0.43378300  0.95780500  0.58675000  1
  W  W13  1  0.43378300  0.54219500  0.08675000  1
  W  W14  1  0.56621700  0.04219500  0.41325000  1
  W  W15  1  0.56621700  0.45780500  0.91325000  1
  O  O16  1  0.82145800  0.51590800  0.60350800  1
  O  O17  1  0.82145800  0.98409200  0.10350800  1
  O  O18  1  0.17854200  0.48409200  0.39649200  1
  O  O19  1  0.17854200  0.01590800  0.89649200  1
  O  O20  1  0.40989900  0.08428300  0.68742500  1
  O  O21  1  0.40989900  0.41571700  0.18742500  1
  O  O22  1  0.59010100  0.91571700  0.31257500  1
  O  O23  1  0.59010100  0.58428300  0.81257500  1
  O  O24  1  0.58718500  0.14187300  0.55571600  1
  O  O25  1  0.58718500  0.35812700  0.05571600  1
  O  O26  1  0.41281500  0.85812700  0.44428400  1
  O  O27  1  0.41281500  0.64187300  0.94428400  1
  O  O28  1  0.15222600  0.75200700  0.71555300  1
  O  O29  1  0.15222600  0.74799300  0.21555300  1
  O  O30  1  0.84777400  0.24799300  0.28444700  1
  O  O31  1  0.84777400  0.25200700  0.78444700  1
  O  O32  1  0.22278100  0.77009700  0.55106500  1
  O  O33  1  0.22278100  0.72990300  0.05106500  1
  O  O34  1  0.77721900  0.22990300  0.44893500  1
  O  O35  1  0.77721900  0.27009700  0.94893500  1
  O  O36  1  0.64761600  0.80868400  0.66951300  1
  O  O37  1  0.64761600  0.69131600  0.16951300  1
  O  O38  1  0.35238400  0.19131600  0.33048700  1
  O  O39  1  0.35238400  0.30868400  0.83048700  1
  O  O40  1  0.83262500  0.87829200  0.52365100  1
  O  O41  1  0.83262500  0.62170800  0.02365100  1
  O  O42  1  0.16737500  0.12170800  0.47634900  1
  O  O43  1  0.16737500  0.37829200  0.97634900  1
  O  O44  1  0.13940900  0.42328300  0.58141800  1
  O  O45  1  0.13940900  0.07671700  0.08141800  1
  O  O46  1  0.86059100  0.57671700  0.41858200  1
  O  O47  1  0.86059100  0.92328300  0.91858200  1
