# generated using pymatgen
data_TlV3(SeO6)2
_symmetry_space_group_name_H-M   'P 1'
_cell_length_a   7.16142987
_cell_length_b   7.16142987
_cell_length_c   11.82018200
_cell_angle_alpha   90.00000000
_cell_angle_beta   90.00000000
_cell_angle_gamma   120.00000000
_symmetry_Int_Tables_number   1
_chemical_formula_structural   TlV3(SeO6)2
_chemical_formula_sum   'Tl2 V6 Se4 O24'
_cell_volume   524.99392941
_cell_formula_units_Z   2
loop_
 _symmetry_equiv_pos_site_id
 _symmetry_equiv_pos_as_xyz
  1  'x, y, z'
loop_
 _atom_site_type_symbol
 _atom_site_label
 _atom_site_symmetry_multiplicity
 _atom_site_fract_x
 _atom_site_fract_y
 _atom_site_fract_z
 _atom_site_occupancy
  Tl  Tl0  1  0.33333333  0.66666667  0.93441900  1
  Tl  Tl1  1  0.66666667  0.33333333  0.43441900  1
  V  V2  1  0.66669100  0.87216900  0.60718600  1
  V  V3  1  0.87216900  0.20547800  0.10718600  1
  V  V4  1  0.12783100  0.79452200  0.60718600  1
  V  V5  1  0.20547800  0.33330900  0.60718600  1
  V  V6  1  0.79452200  0.66669100  0.10718600  1
  V  V7  1  0.33330900  0.12783100  0.10718600  1
  Se  Se8  1  0.00000000  0.00000000  0.82747300  1
  Se  Se9  1  0.66666667  0.33333333  0.88345800  1
  Se  Se10  1  0.00000000  0.00000000  0.32747300  1
  Se  Se11  1  0.33333333  0.66666667  0.38345800  1
  O  O12  1  0.21482600  0.80117600  0.44526700  1
  O  O13  1  0.54197800  0.45843800  0.13331100  1
  O  O14  1  0.25160000  0.12734900  0.57492200  1
  O  O15  1  0.12425100  0.25160000  0.07492200  1
  O  O16  1  0.74840000  0.87265100  0.07492200  1
  O  O17  1  0.86678100  0.12041500  0.26400100  1
  O  O18  1  0.19882400  0.41365000  0.44526700  1
  O  O19  1  0.13321900  0.87958500  0.76400100  1
  O  O20  1  0.78517400  0.19882400  0.94526700  1
  O  O21  1  0.25363400  0.13321900  0.26400100  1
  O  O22  1  0.08354000  0.54197800  0.63331100  1
  O  O23  1  0.12734900  0.87574900  0.07492200  1
  O  O24  1  0.58635000  0.78517400  0.44526700  1
  O  O25  1  0.54156200  0.08354000  0.13331100  1
  O  O26  1  0.80117600  0.58635000  0.94526700  1
  O  O27  1  0.12041500  0.25363400  0.76400100  1
  O  O28  1  0.74636600  0.86678100  0.76400100  1
  O  O29  1  0.45802200  0.54156200  0.63331100  1
  O  O30  1  0.41365000  0.21482600  0.94526700  1
  O  O31  1  0.87265100  0.12425100  0.57492200  1
  O  O32  1  0.87574900  0.74840000  0.57492200  1
  O  O33  1  0.87958500  0.74636600  0.26400100  1
  O  O34  1  0.91646000  0.45802200  0.13331100  1
  O  O35  1  0.45843800  0.91646000  0.63331100  1
