# generated using pymatgen
data_Bi2O3
_symmetry_space_group_name_H-M   'P 1'
_cell_length_a   3.74137356
_cell_length_b   3.98832305
_cell_length_c   7.28679852
_cell_angle_alpha   105.85728581
_cell_angle_beta   90.20008369
_cell_angle_gamma   116.36765462
_symmetry_Int_Tables_number   1
_chemical_formula_structural   Bi2O3
_chemical_formula_sum   'Bi2 O3'
_cell_volume   92.72427696
_cell_formula_units_Z   1
loop_
 _symmetry_equiv_pos_site_id
 _symmetry_equiv_pos_as_xyz
  1  'x, y, z'
loop_
 _atom_site_type_symbol
 _atom_site_label
 _atom_site_symmetry_multiplicity
 _atom_site_fract_x
 _atom_site_fract_y
 _atom_site_fract_z
 _atom_site_occupancy
  Bi  Bi0  1  0.98755676  0.95933638  0.98669229  1
  Bi  Bi1  1  0.56569281  0.57141707  0.50760565  1
  O  O2  1  0.68469460  0.46313331  0.84270541  1
  O  O3  1  0.90060737  0.21197964  0.52837371  1
  O  O4  1  0.46744845  0.71613359  0.16062295  1
