# generated using pymatgen
data_MgPS3
_symmetry_space_group_name_H-M   'P 1'
_cell_length_a   6.10864200
_cell_length_b   10.57769000
_cell_length_c   7.25098599
_cell_angle_alpha   90.00000000
_cell_angle_beta   106.22371929
_cell_angle_gamma   90.00000000
_symmetry_Int_Tables_number   1
_chemical_formula_structural   MgPS3
_chemical_formula_sum   'Mg4 P4 S12'
_cell_volume   449.86724601
_cell_formula_units_Z   4
loop_
 _symmetry_equiv_pos_site_id
 _symmetry_equiv_pos_as_xyz
  1  'x, y, z'
loop_
 _atom_site_type_symbol
 _atom_site_label
 _atom_site_symmetry_multiplicity
 _atom_site_fract_x
 _atom_site_fract_y
 _atom_site_fract_z
 _atom_site_occupancy
  Mg  Mg0  1  0.50000000  0.83301000  0.00000000  1
  Mg  Mg1  1  0.50000000  0.16699000  0.00000000  1
  Mg  Mg2  1  0.00000000  0.33301000  0.00000000  1
  Mg  Mg3  1  0.00000000  0.66699000  0.00000000  1
  P  P4  1  0.94710900  0.00000000  0.84133000  1
  P  P5  1  0.05289100  0.00000000  0.15867000  1
  P  P6  1  0.44710900  0.50000000  0.84133000  1
  P  P7  1  0.55289100  0.50000000  0.15867000  1
  S  S8  1  0.24504100  0.00000000  0.76462000  1
  S  S9  1  0.75495900  0.00000000  0.23538000  1
  S  S10  1  0.76018850  0.16155050  0.76431400  1
  S  S11  1  0.76018850  0.83844950  0.76431400  1
  S  S12  1  0.23981150  0.83844950  0.23568600  1
  S  S13  1  0.23981150  0.16155050  0.23568600  1
  S  S14  1  0.74504100  0.50000000  0.76462000  1
  S  S15  1  0.25495900  0.50000000  0.23538000  1
  S  S16  1  0.26018850  0.66155050  0.76431400  1
  S  S17  1  0.26018850  0.33844950  0.76431400  1
  S  S18  1  0.73981150  0.33844950  0.23568600  1
  S  S19  1  0.73981150  0.66155050  0.23568600  1
