# generated using pymatgen
data_LiSn4(PO4)3
_symmetry_space_group_name_H-M   'P 1'
_cell_length_a   9.78547809
_cell_length_b   9.78547809
_cell_length_c   24.77340027
_cell_angle_alpha   90.00000000
_cell_angle_beta   90.00000000
_cell_angle_gamma   120.00000000
_symmetry_Int_Tables_number   1
_chemical_formula_structural   LiSn4(PO4)3
_chemical_formula_sum   'Li6 Sn24 P18 O72'
_cell_volume   2054.37797148
_cell_formula_units_Z   6
loop_
 _symmetry_equiv_pos_site_id
 _symmetry_equiv_pos_as_xyz
  1  'x, y, z'
loop_
 _atom_site_type_symbol
 _atom_site_label
 _atom_site_symmetry_multiplicity
 _atom_site_fract_x
 _atom_site_fract_y
 _atom_site_fract_z
 _atom_site_occupancy
  Li  Li0  1  0.66666667  0.33333333  0.29020033  1
  Li  Li1  1  0.33333333  0.66666667  0.12353367  1
  Li  Li2  1  0.33333333  0.66666667  0.62353367  1
  Li  Li3  1  0.00000000  0.00000000  0.45686700  1
  Li  Li4  1  0.00000000  0.00000000  0.95686700  1
  Li  Li5  1  0.66666667  0.33333333  0.79020033  1
  Sn  Sn6  1  0.73363167  0.13735533  0.00918833  1
  Sn  Sn7  1  0.73705700  0.80402200  0.17585500  1
  Sn  Sn8  1  0.86264467  0.59627633  0.00918833  1
  Sn  Sn9  1  0.66666667  0.33333333  0.14305333  1
  Sn  Sn10  1  0.00000000  0.00000000  0.30972000  1
  Sn  Sn11  1  0.06696500  0.26294300  0.17585500  1
  Sn  Sn12  1  0.19597800  0.93303500  0.17585500  1
  Sn  Sn13  1  0.40372367  0.26636833  0.00918833  1
  Sn  Sn14  1  0.40029833  0.47068867  0.34252167  1
  Sn  Sn15  1  0.40372367  0.13735533  0.50918833  1
  Sn  Sn16  1  0.52931133  0.92960967  0.34252167  1
  Sn  Sn17  1  0.33333333  0.66666667  0.47638667  1
  Sn  Sn18  1  0.66666667  0.33333333  0.64305333  1
  Sn  Sn19  1  0.73363167  0.59627633  0.50918833  1
  Sn  Sn20  1  0.86264467  0.26636833  0.50918833  1
  Sn  Sn21  1  0.07039033  0.59970167  0.34252167  1
  Sn  Sn22  1  0.06696500  0.80402200  0.67585500  1
  Sn  Sn23  1  0.07039033  0.47068867  0.84252167  1
  Sn  Sn24  1  0.19597800  0.26294300  0.67585500  1
  Sn  Sn25  1  0.00000000  0.00000000  0.80972000  1
  Sn  Sn26  1  0.33333333  0.66666667  0.97638667  1
  Sn  Sn27  1  0.40029833  0.92960967  0.84252167  1
  Sn  Sn28  1  0.52931133  0.59970167  0.84252167  1
  Sn  Sn29  1  0.73705700  0.93303500  0.67585500  1
  P  P30  1  0.21763800  0.87814100  0.04871900  1
  P  P31  1  0.66050300  0.78236200  0.04871900  1
  P  P32  1  0.99383633  0.54480767  0.21538567  1
  P  P33  1  0.55097133  0.00616367  0.21538567  1
  P  P34  1  0.45519233  0.44902867  0.21538567  1
  P  P35  1  0.12185900  0.33949700  0.04871900  1
  P  P36  1  0.88430467  0.21147433  0.38205233  1
  P  P37  1  0.32716967  0.11569533  0.38205233  1
  P  P38  1  0.66050300  0.87814100  0.54871900  1
  P  P39  1  0.21763800  0.33949700  0.54871900  1
  P  P40  1  0.12185900  0.78236200  0.54871900  1
  P  P41  1  0.78852567  0.67283033  0.38205233  1
  P  P42  1  0.55097133  0.54480767  0.71538567  1
  P  P43  1  0.99383633  0.44902867  0.71538567  1
  P  P44  1  0.32716967  0.21147433  0.88205233  1
  P  P45  1  0.88430467  0.67283033  0.88205233  1
  P  P46  1  0.78852567  0.11569533  0.88205233  1
  P  P47  1  0.45519233  0.00616367  0.71538567  1
  O  O48  1  0.62078467  0.89633933  0.22417833  1
  O  O49  1  0.15300067  0.79294133  0.10394933  1
  O  O50  1  0.08215567  0.81738633  0.00624133  1
  O  O51  1  0.94222133  0.22967267  0.05751167  1
  O  O52  1  0.10366067  0.72444533  0.22417833  1
  O  O53  1  0.06856400  0.48405300  0.17290800  1
  O  O54  1  0.27555467  0.37921533  0.22417833  1
  O  O55  1  0.97327400  0.45960800  0.27061600  1
  O  O56  1  0.15506733  0.50498867  0.02981367  1
  O  O57  1  0.41548900  0.93143600  0.17290800  1
  O  O58  1  0.49501133  0.65007867  0.02981367  1
  O  O59  1  0.77032733  0.71254867  0.05751167  1
  O  O60  1  0.48840067  0.31674533  0.19648033  1
  O  O61  1  0.54039200  0.51366600  0.27061600  1
  O  O62  1  0.73523067  0.91784433  0.00624133  1
  O  O63  1  0.82834467  0.51159933  0.19648033  1
  O  O64  1  0.20705867  0.36005933  0.10394933  1
  O  O65  1  0.34992133  0.84493267  0.02981367  1
  O  O66  1  0.63994067  0.84699933  0.10394933  1
  O  O67  1  0.18261367  0.26476933  0.00624133  1
  O  O68  1  0.48633400  0.02672600  0.27061600  1
  O  O69  1  0.51594700  0.58451100  0.17290800  1
  O  O70  1  0.68325467  0.17165533  0.19648033  1
  O  O71  1  0.28745133  0.05777867  0.05751167  1
  O  O72  1  0.28745133  0.22967267  0.55751167  1
  O  O73  1  0.81966733  0.12627467  0.43728267  1
  O  O74  1  0.74882233  0.15071967  0.33957467  1
  O  O75  1  0.60888800  0.56300600  0.39084500  1
  O  O76  1  0.77032733  0.05777867  0.55751167  1
  O  O77  1  0.73523067  0.81738633  0.50624133  1
  O  O78  1  0.94222133  0.71254867  0.55751167  1
  O  O79  1  0.63994067  0.79294133  0.60394933  1
  O  O80  1  0.82173400  0.83832200  0.36314700  1
  O  O81  1  0.08215567  0.26476933  0.50624133  1
  O  O82  1  0.16167800  0.98341200  0.36314700  1
  O  O83  1  0.43699400  0.04588200  0.39084500  1
  O  O84  1  0.15506733  0.65007867  0.52981367  1
  O  O85  1  0.20705867  0.84699933  0.60394933  1
  O  O86  1  0.40189733  0.25117767  0.33957467  1
  O  O87  1  0.49501133  0.84493267  0.52981367  1
  O  O88  1  0.87372533  0.69339267  0.43728267  1
  O  O89  1  0.01658800  0.17826600  0.36314700  1
  O  O90  1  0.30660733  0.18033267  0.43728267  1
  O  O91  1  0.84928033  0.59810267  0.33957467  1
  O  O92  1  0.15300067  0.36005933  0.60394933  1
  O  O93  1  0.18261367  0.91784433  0.50624133  1
  O  O94  1  0.34992133  0.50498867  0.52981367  1
  O  O95  1  0.95411800  0.39111200  0.39084500  1
  O  O96  1  0.95411800  0.56300600  0.89084500  1
  O  O97  1  0.48633400  0.45960800  0.77061600  1
  O  O98  1  0.41548900  0.48405300  0.67290800  1
  O  O99  1  0.27555467  0.89633933  0.72417833  1
  O  O100  1  0.43699400  0.39111200  0.89084500  1
  O  O101  1  0.40189733  0.15071967  0.83957467  1
  O  O102  1  0.60888800  0.04588200  0.89084500  1
  O  O103  1  0.30660733  0.12627467  0.93728267  1
  O  O104  1  0.48840067  0.17165533  0.69648033  1
  O  O105  1  0.74882233  0.59810267  0.83957467  1
  O  O106  1  0.82834467  0.31674533  0.69648033  1
  O  O107  1  0.10366067  0.37921533  0.72417833  1
  O  O108  1  0.82173400  0.98341200  0.86314700  1
  O  O109  1  0.87372533  0.18033267  0.93728267  1
  O  O110  1  0.06856400  0.58451100  0.67290800  1
  O  O111  1  0.16167800  0.17826600  0.86314700  1
  O  O112  1  0.54039200  0.02672600  0.77061600  1
  O  O113  1  0.68325467  0.51159933  0.69648033  1
  O  O114  1  0.97327400  0.51366600  0.77061600  1
  O  O115  1  0.51594700  0.93143600  0.67290800  1
  O  O116  1  0.81966733  0.69339267  0.93728267  1
  O  O117  1  0.84928033  0.25117767  0.83957467  1
  O  O118  1  0.01658800  0.83832200  0.86314700  1
  O  O119  1  0.62078467  0.72444533  0.72417833  1
