# generated using pymatgen
data_Li11TiP5
_symmetry_space_group_name_H-M   'P 1'
_cell_length_a   13.77745400
_cell_length_b   4.11262400
_cell_length_c   10.27045868
_cell_angle_alpha   90.00000000
_cell_angle_beta   117.93338001
_cell_angle_gamma   90.00000000
_symmetry_Int_Tables_number   1
_chemical_formula_structural   Li11TiP5
_chemical_formula_sum   'Li22 Ti2 P10'
_cell_volume   514.13937256
_cell_formula_units_Z   2
loop_
 _symmetry_equiv_pos_site_id
 _symmetry_equiv_pos_as_xyz
  1  'x, y, z'
loop_
 _atom_site_type_symbol
 _atom_site_label
 _atom_site_symmetry_multiplicity
 _atom_site_fract_x
 _atom_site_fract_y
 _atom_site_fract_z
 _atom_site_occupancy
  Li  Li0  1  0.30174800  0.50000000  0.92329100  1
  Li  Li1  1  0.89553100  0.50000000  0.09693700  1
  Li  Li2  1  0.89250600  0.50000000  0.34966700  1
  Li  Li3  1  0.39892900  0.00000000  0.84892200  1
  Li  Li4  1  0.00904300  0.00000000  0.25522700  1
  Li  Li5  1  0.97975600  0.00000000  0.73900600  1
  Li  Li6  1  0.10626800  0.50000000  0.91892700  1
  Li  Li7  1  0.08372700  0.50000000  0.64093700  1
  Li  Li8  1  0.61650500  0.00000000  0.16937100  1
  Li  Li9  1  0.70313100  0.50000000  0.07832000  1
  Li  Li10  1  0.80581600  0.00000000  0.43513200  1
  Li  Li11  1  0.80174800  0.00000000  0.92329100  1
  Li  Li12  1  0.39553100  0.00000000  0.09693700  1
  Li  Li13  1  0.39250600  0.00000000  0.34966700  1
  Li  Li14  1  0.89892900  0.50000000  0.84892200  1
  Li  Li15  1  0.50904300  0.50000000  0.25522700  1
  Li  Li16  1  0.47975600  0.50000000  0.73900600  1
  Li  Li17  1  0.60626800  0.00000000  0.91892700  1
  Li  Li18  1  0.58372700  0.00000000  0.64093700  1
  Li  Li19  1  0.11650500  0.50000000  0.16937100  1
  Li  Li20  1  0.20313100  0.00000000  0.07832000  1
  Li  Li21  1  0.30581600  0.50000000  0.43513200  1
  Ti  Ti22  1  0.20338700  0.00000000  0.55832200  1
  Ti  Ti23  1  0.70338700  0.50000000  0.55832200  1
  P  P24  1  0.50504200  0.50000000  0.00268400  1
  P  P25  1  0.11242500  0.50000000  0.41962200  1
  P  P26  1  0.19199400  0.00000000  0.78350400  1
  P  P27  1  0.80844500  0.00000000  0.18262000  1
  P  P28  1  0.88574700  0.50000000  0.59751000  1
  P  P29  1  0.00504200  0.00000000  0.00268400  1
  P  P30  1  0.61242500  0.00000000  0.41962200  1
  P  P31  1  0.69199400  0.50000000  0.78350400  1
  P  P32  1  0.30844500  0.50000000  0.18262000  1
  P  P33  1  0.38574700  0.00000000  0.59751000  1
