# generated using pymatgen
data_Ca3UN4
_symmetry_space_group_name_H-M   'P 1'
_cell_length_a   6.92183800
_cell_length_b   6.92206000
_cell_length_c   9.99523200
_cell_angle_alpha   90.00000000
_cell_angle_beta   90.00000000
_cell_angle_gamma   90.00000000
_symmetry_Int_Tables_number   1
_chemical_formula_structural   Ca3UN4
_chemical_formula_sum   'Ca12 U4 N16'
_cell_volume   478.90532848
_cell_formula_units_Z   4
loop_
 _symmetry_equiv_pos_site_id
 _symmetry_equiv_pos_as_xyz
  1  'x, y, z'
loop_
 _atom_site_type_symbol
 _atom_site_label
 _atom_site_symmetry_multiplicity
 _atom_site_fract_x
 _atom_site_fract_y
 _atom_site_fract_z
 _atom_site_occupancy
  Ca  Ca0  1  0.75171400  0.25000000  0.25000000  1
  Ca  Ca1  1  0.75171400  0.75000000  0.25000000  1
  Ca  Ca2  1  0.50127800  0.00000000  0.00000000  1
  Ca  Ca3  1  0.25171400  0.25000000  0.75000000  1
  Ca  Ca4  1  0.25171400  0.75000000  0.75000000  1
  Ca  Ca5  1  0.00127800  0.00000000  0.50000000  1
  Ca  Ca6  1  0.25171400  0.75000000  0.25000000  1
  Ca  Ca7  1  0.25171400  0.25000000  0.25000000  1
  Ca  Ca8  1  0.00127800  0.50000000  0.00000000  1
  Ca  Ca9  1  0.75171400  0.75000000  0.75000000  1
  Ca  Ca10  1  0.75171400  0.25000000  0.75000000  1
  Ca  Ca11  1  0.50127800  0.50000000  0.50000000  1
  U  U12  1  0.99946800  0.00000000  0.00000000  1
  U  U13  1  0.49946800  0.00000000  0.50000000  1
  U  U14  1  0.49946800  0.50000000  0.00000000  1
  U  U15  1  0.99946800  0.50000000  0.50000000  1
  N  N16  1  0.25808250  0.25757550  0.00000000  1
  N  N17  1  0.00186350  0.00000000  0.20219950  1
  N  N18  1  0.25808250  0.74242450  0.00000000  1
  N  N19  1  0.50186350  0.00000000  0.29780050  1
  N  N20  1  0.75808250  0.25757550  0.50000000  1
  N  N21  1  0.50186350  0.00000000  0.70219950  1
  N  N22  1  0.75808250  0.74242450  0.50000000  1
  N  N23  1  0.00186350  0.00000000  0.79780050  1
  N  N24  1  0.75808250  0.75757550  0.00000000  1
  N  N25  1  0.50186350  0.50000000  0.20219950  1
  N  N26  1  0.75808250  0.24242450  0.00000000  1
  N  N27  1  0.00186350  0.50000000  0.29780050  1
  N  N28  1  0.25808250  0.75757550  0.50000000  1
  N  N29  1  0.00186350  0.50000000  0.70219950  1
  N  N30  1  0.25808250  0.24242450  0.50000000  1
  N  N31  1  0.50186350  0.50000000  0.79780050  1
