# generated using pymatgen
data_Ca2ZnSi2O7
_symmetry_space_group_name_H-M   'P 1'
_cell_length_a   7.90614200
_cell_length_b   7.90614200
_cell_length_c   5.05938600
_cell_angle_alpha   90.00000000
_cell_angle_beta   90.00000000
_cell_angle_gamma   90.00000000
_symmetry_Int_Tables_number   1
_chemical_formula_structural   Ca2ZnSi2O7
_chemical_formula_sum   'Ca4 Zn2 Si4 O14'
_cell_volume   316.24745215
_cell_formula_units_Z   2
loop_
 _symmetry_equiv_pos_site_id
 _symmetry_equiv_pos_as_xyz
  1  'x, y, z'
loop_
 _atom_site_type_symbol
 _atom_site_label
 _atom_site_symmetry_multiplicity
 _atom_site_fract_x
 _atom_site_fract_y
 _atom_site_fract_z
 _atom_site_occupancy
  Ca  Ca0  1  0.33023100  0.16976900  0.49826200  1
  Ca  Ca1  1  0.83023100  0.33023100  0.50173800  1
  Ca  Ca2  1  0.16976900  0.66976900  0.50173800  1
  Ca  Ca3  1  0.66976900  0.83023100  0.49826200  1
  Zn  Zn4  1  0.00000000  0.00000000  0.00000000  1
  Zn  Zn5  1  0.50000000  0.50000000  0.00000000  1
  Si  Si6  1  0.64072300  0.14072300  0.93398200  1
  Si  Si7  1  0.14072300  0.35927700  0.06601800  1
  Si  Si8  1  0.35927700  0.85927700  0.93398200  1
  Si  Si9  1  0.85927700  0.64072300  0.06601800  1
  O  O10  1  0.41753600  0.68589100  0.77896800  1
  O  O11  1  0.58246400  0.31410900  0.77896800  1
  O  O12  1  0.31410900  0.41753600  0.22103200  1
  O  O13  1  0.68589100  0.58246400  0.22103200  1
  O  O14  1  0.18589100  0.91753600  0.77896800  1
  O  O15  1  0.91753600  0.81410900  0.22103200  1
  O  O16  1  0.08246400  0.18589100  0.22103200  1
  O  O17  1  0.81410900  0.08246400  0.77896800  1
  O  O18  1  0.35779500  0.85779500  0.25266800  1
  O  O19  1  0.85779500  0.64220500  0.74733200  1
  O  O20  1  0.00000000  0.50000000  0.18387600  1
  O  O21  1  0.50000000  0.00000000  0.81612400  1
  O  O22  1  0.64220500  0.14220500  0.25266800  1
  O  O23  1  0.14220500  0.35779500  0.74733200  1
