# generated using pymatgen
data_Pr2(SeO3)3
_symmetry_space_group_name_H-M   'P 1'
_cell_length_a   17.09215200
_cell_length_b   7.15428500
_cell_length_c   24.89096450
_cell_angle_alpha   90.00000000
_cell_angle_beta   120.16056459
_cell_angle_gamma   90.00000000
_symmetry_Int_Tables_number   1
_chemical_formula_structural   Pr2(SeO3)3
_chemical_formula_sum   'Pr24 Se36 O108'
_cell_volume   2631.66372950
_cell_formula_units_Z   12
loop_
 _symmetry_equiv_pos_site_id
 _symmetry_equiv_pos_as_xyz
  1  'x, y, z'
loop_
 _atom_site_type_symbol
 _atom_site_label
 _atom_site_symmetry_multiplicity
 _atom_site_fract_x
 _atom_site_fract_y
 _atom_site_fract_z
 _atom_site_occupancy
  Pr  Pr0  1  0.45141500  0.33285400  0.05245700  1
  Pr  Pr1  1  0.08478900  0.32811700  0.26189300  1
  Pr  Pr2  1  0.04894700  0.35178100  0.91247100  1
  Pr  Pr3  1  0.44868400  0.32058400  0.71325500  1
  Pr  Pr4  1  0.59735100  0.85824000  0.13713000  1
  Pr  Pr5  1  0.59735100  0.64176000  0.63713000  1
  Pr  Pr6  1  0.95105300  0.85178100  0.58752900  1
  Pr  Pr7  1  0.95105300  0.64821900  0.08752900  1
  Pr  Pr8  1  0.54858500  0.66714600  0.94754300  1
  Pr  Pr9  1  0.91521100  0.82811700  0.23810700  1
  Pr  Pr10  1  0.05632200  0.14882300  0.08908600  1
  Pr  Pr11  1  0.94367800  0.64882300  0.41091400  1
  Pr  Pr12  1  0.44868400  0.17941600  0.21325500  1
  Pr  Pr13  1  0.40264900  0.35824000  0.36287000  1
  Pr  Pr14  1  0.94367800  0.85117700  0.91091400  1
  Pr  Pr15  1  0.04894700  0.14821900  0.41247100  1
  Pr  Pr16  1  0.45141500  0.16714600  0.55245700  1
  Pr  Pr17  1  0.40264900  0.14176000  0.86287000  1
  Pr  Pr18  1  0.08478900  0.17188300  0.76189300  1
  Pr  Pr19  1  0.91521100  0.67188300  0.73810700  1
  Pr  Pr20  1  0.54858500  0.83285400  0.44754300  1
  Pr  Pr21  1  0.55131600  0.67941600  0.28674500  1
  Pr  Pr22  1  0.55131600  0.82058400  0.78674500  1
  Pr  Pr23  1  0.05632200  0.35117700  0.58908600  1
  Se  Se24  1  0.75505700  0.61687700  0.45075900  1
  Se  Se25  1  0.24769900  0.09145300  0.70922300  1
  Se  Se26  1  0.75230100  0.90854700  0.29077700  1
  Se  Se27  1  0.36928700  0.85455800  0.30053300  1
  Se  Se28  1  0.75230100  0.59145300  0.79077700  1
  Se  Se29  1  0.62265300  0.19397000  0.36223600  1
  Se  Se30  1  0.61865300  0.32193500  0.51568200  1
  Se  Se31  1  0.63071300  0.14544200  0.69946700  1
  Se  Se32  1  0.74807500  0.57909500  0.11323200  1
  Se  Se33  1  0.12945200  0.83246100  0.89600800  1
  Se  Se34  1  0.12945200  0.66753900  0.39600800  1
  Se  Se35  1  0.12196400  0.82470500  0.23070800  1
  Se  Se36  1  0.63071300  0.35455800  0.19946700  1
  Se  Se37  1  0.11975200  0.81886900  0.55367900  1
  Se  Se38  1  0.37734700  0.80603000  0.63776400  1
  Se  Se39  1  0.38134700  0.82193500  0.98431800  1
  Se  Se40  1  0.24494300  0.11687700  0.04924100  1
  Se  Se41  1  0.87054800  0.16753900  0.10399200  1
  Se  Se42  1  0.62265300  0.30603000  0.86223600  1
  Se  Se43  1  0.87803600  0.32470500  0.26929200  1
  Se  Se44  1  0.11975200  0.68113100  0.05367900  1
  Se  Se45  1  0.88024800  0.18113100  0.44632100  1
  Se  Se46  1  0.75505700  0.88312300  0.95075900  1
  Se  Se47  1  0.36928700  0.64544200  0.80053300  1
  Se  Se48  1  0.87054800  0.33246100  0.60399200  1
  Se  Se49  1  0.74807500  0.92090500  0.61323200  1
  Se  Se50  1  0.38134700  0.67806500  0.48431800  1
  Se  Se51  1  0.24769900  0.40854700  0.20922300  1
  Se  Se52  1  0.87803600  0.17529500  0.76929200  1
  Se  Se53  1  0.25192500  0.07909500  0.38676800  1
  Se  Se54  1  0.37734700  0.69397000  0.13776400  1
  Se  Se55  1  0.25192500  0.42090500  0.88676800  1
  Se  Se56  1  0.24494300  0.38312300  0.54924100  1
  Se  Se57  1  0.88024800  0.31886900  0.94632100  1
  Se  Se58  1  0.61865300  0.17806500  0.01568200  1
  Se  Se59  1  0.12196400  0.67529500  0.73070800  1
  O  O60  1  0.26166400  0.52323300  0.27430900  1
  O  O61  1  0.57364500  0.51520000  0.13954300  1
  O  O62  1  0.52388700  0.16469200  0.82645800  1
  O  O63  1  0.79752700  0.58957800  0.40141400  1
  O  O64  1  0.44924800  0.82608500  0.83840600  1
  O  O65  1  0.04330100  0.85851100  0.70800400  1
  O  O66  1  0.09326900  0.63995800  0.97847200  1
  O  O67  1  0.44215300  0.98851200  0.04024100  1
  O  O68  1  0.97449800  0.33032100  0.46720900  1
  O  O69  1  0.05519400  0.51087400  0.74003600  1
  O  O70  1  0.14962500  0.17000500  0.37239900  1
  O  O71  1  0.35419000  0.20160200  0.10008700  1
  O  O72  1  0.02550200  0.66967900  0.53279100  1
  O  O73  1  0.44215300  0.51148800  0.54024100  1
  O  O74  1  0.84677100  0.77456900  0.30667000  1
  O  O75  1  0.07933500  0.49082100  0.41714800  1
  O  O76  1  0.81006200  0.81189800  0.49151100  1
  O  O77  1  0.85861700  0.42029200  0.66221300  1
  O  O78  1  0.18993800  0.18810200  0.50848900  1
  O  O79  1  0.41529300  0.97738100  0.69578300  1
  O  O80  1  0.41529300  0.52261900  0.19578300  1
  O  O81  1  0.66197500  0.75465300  0.25327700  1
  O  O82  1  0.42635500  0.01520000  0.36045700  1
  O  O83  1  0.59571500  0.10384900  0.75251400  1
  O  O84  1  0.73833600  0.02323300  0.22569100  1
  O  O85  1  0.64581000  0.79839800  0.89991300  1
  O  O86  1  0.10472200  0.63485600  0.65703400  1
  O  O87  1  0.35419000  0.29839800  0.60008700  1
  O  O88  1  0.85037500  0.82999500  0.62760100  1
  O  O89  1  0.61745800  0.11445700  0.08180300  1
  O  O90  1  0.85861700  0.07970800  0.16221300  1
  O  O91  1  0.05519400  0.98912600  0.24003600  1
  O  O92  1  0.84677100  0.72543100  0.80667000  1
  O  O93  1  0.14138300  0.57970800  0.33778700  1
  O  O94  1  0.53347200  0.34791600  0.99026500  1
  O  O95  1  0.15322900  0.22543100  0.69333000  1
  O  O96  1  0.94480600  0.01087400  0.75996400  1
  O  O97  1  0.96820300  0.31144400  0.14232300  1
  O  O98  1  0.91846800  0.50640500  0.92240200  1
  O  O99  1  0.08153200  0.00640500  0.57759800  1
  O  O100  1  0.58470700  0.02261900  0.30421700  1
  O  O101  1  0.46652800  0.84791600  0.50973500  1
  O  O102  1  0.04330100  0.64148900  0.20800400  1
  O  O103  1  0.95669900  0.35851100  0.79199600  1
  O  O104  1  0.44924800  0.67391500  0.33840600  1
  O  O105  1  0.66197500  0.74534700  0.75327700  1
  O  O106  1  0.81006200  0.68810200  0.99151100  1
  O  O107  1  0.90673100  0.13995800  0.52152800  1
  O  O108  1  0.55075200  0.32608500  0.66159400  1
  O  O109  1  0.55784700  0.01148800  0.95975900  1
  O  O110  1  0.18993800  0.31189800  0.00848900  1
  O  O111  1  0.38254200  0.88554300  0.91819700  1
  O  O112  1  0.57364500  0.98480000  0.63954300  1
  O  O113  1  0.10472200  0.86514400  0.15703400  1
  O  O114  1  0.33506100  0.28521000  0.94465200  1
  O  O115  1  0.61995700  0.09476500  0.42282600  1
  O  O116  1  0.46652800  0.65208400  0.00973500  1
  O  O117  1  0.03179700  0.68855600  0.85767700  1
  O  O118  1  0.40428500  0.60384900  0.74748600  1
  O  O119  1  0.64581000  0.70160200  0.39991300  1
  O  O120  1  0.25021500  0.18060600  0.32351200  1
  O  O121  1  0.66493900  0.78521000  0.55534800  1
  O  O122  1  0.92066500  0.99082100  0.08285200  1
  O  O123  1  0.94480600  0.48912600  0.25996400  1
  O  O124  1  0.42635500  0.48480000  0.86045700  1
  O  O125  1  0.73833600  0.47676700  0.72569100  1
  O  O126  1  0.14962500  0.32999500  0.87239900  1
  O  O127  1  0.47611300  0.66469200  0.67354200  1
  O  O128  1  0.61745800  0.38554300  0.58180300  1
  O  O129  1  0.47611300  0.83530800  0.17354200  1
  O  O130  1  0.38004300  0.59476500  0.07717400  1
  O  O131  1  0.55075200  0.17391500  0.16159400  1
  O  O132  1  0.20247300  0.41042200  0.59858600  1
  O  O133  1  0.02550200  0.83032100  0.03279100  1
  O  O134  1  0.08153200  0.49359500  0.07759800  1
  O  O135  1  0.38004300  0.90523500  0.57717400  1
  O  O136  1  0.14138300  0.92029200  0.83778700  1
  O  O137  1  0.38254200  0.61445700  0.41819700  1
  O  O138  1  0.74978500  0.81939400  0.67648800  1
  O  O139  1  0.40428500  0.89615100  0.24748600  1
  O  O140  1  0.07933500  0.00917900  0.91714800  1
  O  O141  1  0.26166400  0.97676700  0.77430900  1
  O  O142  1  0.59571500  0.39615100  0.25251400  1
  O  O143  1  0.33802500  0.24534700  0.74672300  1
  O  O144  1  0.33506100  0.21479000  0.44465200  1
  O  O145  1  0.89527800  0.36514400  0.34296600  1
  O  O146  1  0.03179700  0.81144400  0.35767700  1
  O  O147  1  0.85037500  0.67000500  0.12760100  1
  O  O148  1  0.61995700  0.40523500  0.92282600  1
  O  O149  1  0.91846800  0.99359500  0.42240200  1
  O  O150  1  0.96820300  0.18855600  0.64232300  1
  O  O151  1  0.15322900  0.27456900  0.19333000  1
  O  O152  1  0.33802500  0.25465300  0.24672300  1
  O  O153  1  0.66493900  0.71479000  0.05534800  1
  O  O154  1  0.09326900  0.86004200  0.47847200  1
  O  O155  1  0.58470700  0.47738100  0.80421700  1
  O  O156  1  0.25021500  0.31939400  0.82351200  1
  O  O157  1  0.95669900  0.14148900  0.29199600  1
  O  O158  1  0.20247300  0.08957800  0.09858600  1
  O  O159  1  0.53347200  0.15208400  0.49026500  1
  O  O160  1  0.52388700  0.33530800  0.32645800  1
  O  O161  1  0.79752700  0.91042200  0.90141400  1
  O  O162  1  0.90673100  0.36004200  0.02152800  1
  O  O163  1  0.92066500  0.50917900  0.58285200  1
  O  O164  1  0.74978500  0.68060600  0.17648800  1
  O  O165  1  0.55784700  0.48851200  0.45975900  1
  O  O166  1  0.89527800  0.13485600  0.84296600  1
  O  O167  1  0.97449800  0.16967900  0.96720900  1
