# generated using pymatgen
data_RbPHO3F
_symmetry_space_group_name_H-M   'P 1'
_cell_length_a   7.45940700
_cell_length_b   8.37069800
_cell_length_c   14.82191350
_cell_angle_alpha   90.00000000
_cell_angle_beta   98.91903603
_cell_angle_gamma   90.00000000
_symmetry_Int_Tables_number   1
_chemical_formula_structural   RbPHO3F
_chemical_formula_sum   'Rb8 P8 H8 O24 F8'
_cell_volume   914.29624138
_cell_formula_units_Z   8
loop_
 _symmetry_equiv_pos_site_id
 _symmetry_equiv_pos_as_xyz
  1  'x, y, z'
loop_
 _atom_site_type_symbol
 _atom_site_label
 _atom_site_symmetry_multiplicity
 _atom_site_fract_x
 _atom_site_fract_y
 _atom_site_fract_z
 _atom_site_occupancy
  Rb  Rb0  1  0.58882900  0.38186400  0.08969800  1
  Rb  Rb1  1  0.41117100  0.88186400  0.91030200  1
  Rb  Rb2  1  0.84707600  0.12420900  0.83920600  1
  Rb  Rb3  1  0.67779600  0.63757300  0.65942800  1
  Rb  Rb4  1  0.07464500  0.36474800  0.58942900  1
  Rb  Rb5  1  0.92535500  0.86474800  0.41057100  1
  Rb  Rb6  1  0.32220400  0.13757300  0.34057200  1
  Rb  Rb7  1  0.15292400  0.62420900  0.16079400  1
  P  P8  1  0.12063800  0.14502100  0.08561900  1
  P  P9  1  0.87936200  0.64502100  0.91438100  1
  P  P10  1  0.34521900  0.34237700  0.83794800  1
  P  P11  1  0.16742300  0.84414700  0.65677200  1
  P  P12  1  0.58497400  0.15562900  0.59222100  1
  P  P13  1  0.41502600  0.65562900  0.40777900  1
  P  P14  1  0.83257700  0.34414700  0.34322800  1
  P  P15  1  0.65478100  0.84237700  0.16205200  1
  H  H16  1  0.73433800  0.03888700  0.08062400  1
  H  H17  1  0.99476200  0.45336900  0.82927100  1
  H  H18  1  0.26566200  0.53888700  0.91937600  1
  H  H19  1  0.50745600  0.94941100  0.67509400  1
  H  H20  1  0.24576400  0.05250800  0.57551300  1
  H  H21  1  0.49254400  0.44941100  0.32490600  1
  H  H22  1  0.75423600  0.55250800  0.42448700  1
  H  H23  1  0.00523800  0.95336900  0.17072900  1
  O  O24  1  0.62138900  0.98179700  0.08600700  1
  O  O25  1  0.53356300  0.70448100  0.13246400  1
  O  O26  1  0.15321300  0.06762500  0.99894300  1
  O  O27  1  0.84678700  0.56762500  0.00105700  1
  O  O28  1  0.88408600  0.52296200  0.83170500  1
  O  O29  1  0.77914200  0.79173600  0.87769200  1
  O  O30  1  0.46643700  0.20448100  0.86753600  1
  O  O31  1  0.37861100  0.48179700  0.91399300  1
  O  O32  1  0.14403400  0.32573700  0.80551800  1
  O  O33  1  0.36773700  0.82752800  0.69347200  1
  O  O34  1  0.69925300  0.29866300  0.62127500  1
  O  O35  1  0.61951800  0.01808700  0.66657500  1
  O  O36  1  0.13311000  0.98350900  0.58365800  1
  O  O37  1  0.05415400  0.70123400  0.62592600  1
  O  O38  1  0.38375700  0.17320400  0.55693400  1
  O  O39  1  0.61624300  0.67320400  0.44306600  1
  O  O40  1  0.38048200  0.51808700  0.33342500  1
  O  O41  1  0.30074700  0.79866300  0.37872500  1
  O  O42  1  0.94584600  0.20123400  0.37407400  1
  O  O43  1  0.86689000  0.48350900  0.41634200  1
  O  O44  1  0.63226300  0.32752800  0.30652800  1
  O  O45  1  0.85596600  0.82573700  0.19448200  1
  O  O46  1  0.22085800  0.29173600  0.12230800  1
  O  O47  1  0.11591400  0.02296200  0.16829500  1
  F  F48  1  0.89965400  0.19115900  0.06589900  1
  F  F49  1  0.10034600  0.69115900  0.93410100  1
  F  F50  1  0.42489600  0.42601200  0.75472900  1
  F  F51  1  0.08129300  0.91999400  0.74114100  1
  F  F52  1  0.66753600  0.07652900  0.50799600  1
  F  F53  1  0.33246400  0.57652900  0.49200400  1
  F  F54  1  0.91870700  0.41999400  0.25885900  1
  F  F55  1  0.57510400  0.92601200  0.24527100  1
