# generated using pymatgen
data_Ba5Si8O21
_symmetry_space_group_name_H-M   'P 1'
_cell_length_a   33.32019800
_cell_length_b   4.77818400
_cell_length_c   14.08771753
_cell_angle_alpha   90.00000000
_cell_angle_beta   98.00277089
_cell_angle_gamma   90.00000000
_symmetry_Int_Tables_number   1
_chemical_formula_structural   Ba5Si8O21
_chemical_formula_sum   'Ba20 Si32 O84'
_cell_volume   2221.06312324
_cell_formula_units_Z   4
loop_
 _symmetry_equiv_pos_site_id
 _symmetry_equiv_pos_as_xyz
  1  'x, y, z'
loop_
 _atom_site_type_symbol
 _atom_site_label
 _atom_site_symmetry_multiplicity
 _atom_site_fract_x
 _atom_site_fract_y
 _atom_site_fract_z
 _atom_site_occupancy
  Ba  Ba0  1  0.71815050  0.51905550  0.88437700  1
  Ba  Ba1  1  0.61186600  0.02158800  0.94538200  1
  Ba  Ba2  1  0.78184950  0.98094450  0.11562300  1
  Ba  Ba3  1  0.88813400  0.47841200  0.05461800  1
  Ba  Ba4  1  0.61186600  0.97841200  0.44538200  1
  Ba  Ba5  1  0.00000000  0.00000000  0.50000000  1
  Ba  Ba6  1  0.71815050  0.48094450  0.38437700  1
  Ba  Ba7  1  0.00000000  0.00000000  0.00000000  1
  Ba  Ba8  1  0.78184950  0.01905550  0.61562300  1
  Ba  Ba9  1  0.88813400  0.52158800  0.55461800  1
  Ba  Ba10  1  0.21815050  0.01905550  0.88437700  1
  Ba  Ba11  1  0.11186600  0.52158800  0.94538200  1
  Ba  Ba12  1  0.28184950  0.48094450  0.11562300  1
  Ba  Ba13  1  0.38813400  0.97841200  0.05461800  1
  Ba  Ba14  1  0.11186600  0.47841200  0.44538200  1
  Ba  Ba15  1  0.50000000  0.50000000  0.50000000  1
  Ba  Ba16  1  0.21815050  0.98094450  0.38437700  1
  Ba  Ba17  1  0.50000000  0.50000000  0.00000000  1
  Ba  Ba18  1  0.28184950  0.51905550  0.61562300  1
  Ba  Ba19  1  0.38813400  0.02158800  0.55461800  1
  Si  Si20  1  0.69304500  0.44634900  0.10203200  1
  Si  Si21  1  0.69304500  0.55365100  0.60203200  1
  Si  Si22  1  0.83515350  0.55346050  0.79046500  1
  Si  Si23  1  0.92859450  0.42944650  0.33828300  1
  Si  Si24  1  0.83515350  0.44653950  0.29046500  1
  Si  Si25  1  0.92859450  0.57055350  0.83828300  1
  Si  Si26  1  0.95091250  0.07545050  0.72293900  1
  Si  Si27  1  0.66484650  0.94653950  0.20953500  1
  Si  Si28  1  0.57140550  0.07055350  0.66171700  1
  Si  Si29  1  0.80695500  0.94634900  0.39796800  1
  Si  Si30  1  0.95091250  0.92454950  0.22293900  1
  Si  Si31  1  0.57140550  0.92944650  0.16171700  1
  Si  Si32  1  0.54908750  0.57545050  0.77706100  1
  Si  Si33  1  0.54908750  0.42454950  0.27706100  1
  Si  Si34  1  0.66484650  0.05346050  0.70953500  1
  Si  Si35  1  0.80695500  0.05365100  0.89796800  1
  Si  Si36  1  0.19304500  0.94634900  0.10203200  1
  Si  Si37  1  0.19304500  0.05365100  0.60203200  1
  Si  Si38  1  0.33515350  0.05346050  0.79046500  1
  Si  Si39  1  0.42859450  0.92944650  0.33828300  1
  Si  Si40  1  0.33515350  0.94653950  0.29046500  1
  Si  Si41  1  0.42859450  0.07055350  0.83828300  1
  Si  Si42  1  0.45091250  0.57545050  0.72293900  1
  Si  Si43  1  0.16484650  0.44653950  0.20953500  1
  Si  Si44  1  0.07140550  0.57055350  0.66171700  1
  Si  Si45  1  0.30695500  0.44634900  0.39796800  1
  Si  Si46  1  0.45091250  0.42454950  0.22293900  1
  Si  Si47  1  0.07140550  0.42944650  0.16171700  1
  Si  Si48  1  0.04908750  0.07545050  0.77706100  1
  Si  Si49  1  0.04908750  0.92454950  0.27706100  1
  Si  Si50  1  0.16484650  0.55346050  0.70953500  1
  Si  Si51  1  0.30695500  0.55365100  0.89796800  1
  O  O52  1  0.93278900  0.90226800  0.80906200  1
  O  O53  1  0.93688650  0.59678550  0.23985000  1
  O  O54  1  0.88061250  0.47862950  0.35283200  1
  O  O55  1  0.00000000  0.94093700  0.25000000  1
  O  O56  1  0.69512250  0.87903350  0.64701800  1
  O  O57  1  0.93278900  0.09773200  0.30906200  1
  O  O58  1  0.93688650  0.40321450  0.73985000  1
  O  O59  1  0.68087500  0.37970700  0.69779500  1
  O  O60  1  0.69512250  0.12096650  0.14701800  1
  O  O61  1  0.84015700  0.01686300  0.99313900  1
  O  O62  1  0.93596400  0.00829200  0.11366000  1
  O  O63  1  0.61938750  0.97862950  0.14716800  1
  O  O64  1  0.81912500  0.12029300  0.30220500  1
  O  O65  1  0.76140200  0.01001000  0.41877300  1
  O  O66  1  0.93596400  0.99170800  0.61366000  1
  O  O67  1  0.56403600  0.49170800  0.88634000  1
  O  O68  1  0.56721100  0.40226800  0.69093800  1
  O  O69  1  0.81912500  0.87970700  0.80220500  1
  O  O70  1  0.54355750  0.99681950  0.56365600  1
  O  O71  1  0.00000000  0.05906300  0.75000000  1
  O  O72  1  0.65984300  0.51686300  0.50686100  1
  O  O73  1  0.80487750  0.37903350  0.85298200  1
  O  O74  1  0.56311350  0.90321450  0.76015000  1
  O  O75  1  0.73859800  0.51001000  0.08122700  1
  O  O76  1  0.95644250  0.49681950  0.93634400  1
  O  O77  1  0.66736900  0.01666300  0.32111500  1
  O  O78  1  0.56311350  0.09678550  0.26015000  1
  O  O79  1  0.88061250  0.52137050  0.85283200  1
  O  O80  1  0.95644250  0.50318050  0.43634400  1
  O  O81  1  0.73859800  0.48999000  0.58122700  1
  O  O82  1  0.61938750  0.02137050  0.64716800  1
  O  O83  1  0.65984300  0.48313700  0.00686100  1
  O  O84  1  0.54355750  0.00318050  0.06365600  1
  O  O85  1  0.83263100  0.48333700  0.67888500  1
  O  O86  1  0.83263100  0.51666300  0.17888500  1
  O  O87  1  0.68087500  0.62029300  0.19779500  1
  O  O88  1  0.56403600  0.50829200  0.38634000  1
  O  O89  1  0.84015700  0.98313700  0.49313900  1
  O  O90  1  0.66736900  0.98333700  0.82111500  1
  O  O91  1  0.56721100  0.59773200  0.19093800  1
  O  O92  1  0.80487750  0.62096650  0.35298200  1
  O  O93  1  0.76140200  0.98999000  0.91877300  1
  O  O94  1  0.43278900  0.40226800  0.80906200  1
  O  O95  1  0.43688650  0.09678550  0.23985000  1
  O  O96  1  0.38061250  0.97862950  0.35283200  1
  O  O97  1  0.50000000  0.44093700  0.25000000  1
  O  O98  1  0.19512250  0.37903350  0.64701800  1
  O  O99  1  0.43278900  0.59773200  0.30906200  1
  O  O100  1  0.43688650  0.90321450  0.73985000  1
  O  O101  1  0.18087500  0.87970700  0.69779500  1
  O  O102  1  0.19512250  0.62096650  0.14701800  1
  O  O103  1  0.34015700  0.51686300  0.99313900  1
  O  O104  1  0.43596400  0.50829200  0.11366000  1
  O  O105  1  0.11938750  0.47862950  0.14716800  1
  O  O106  1  0.31912500  0.62029300  0.30220500  1
  O  O107  1  0.26140200  0.51001000  0.41877300  1
  O  O108  1  0.43596400  0.49170800  0.61366000  1
  O  O109  1  0.06403600  0.99170800  0.88634000  1
  O  O110  1  0.06721100  0.90226800  0.69093800  1
  O  O111  1  0.31912500  0.37970700  0.80220500  1
  O  O112  1  0.04355750  0.49681950  0.56365600  1
  O  O113  1  0.50000000  0.55906300  0.75000000  1
  O  O114  1  0.15984300  0.01686300  0.50686100  1
  O  O115  1  0.30487750  0.87903350  0.85298200  1
  O  O116  1  0.06311350  0.40321450  0.76015000  1
  O  O117  1  0.23859800  0.01001000  0.08122700  1
  O  O118  1  0.45644250  0.99681950  0.93634400  1
  O  O119  1  0.16736900  0.51666300  0.32111500  1
  O  O120  1  0.06311350  0.59678550  0.26015000  1
  O  O121  1  0.38061250  0.02137050  0.85283200  1
  O  O122  1  0.45644250  0.00318050  0.43634400  1
  O  O123  1  0.23859800  0.98999000  0.58122700  1
  O  O124  1  0.11938750  0.52137050  0.64716800  1
  O  O125  1  0.15984300  0.98313700  0.00686100  1
  O  O126  1  0.04355750  0.50318050  0.06365600  1
  O  O127  1  0.33263100  0.98333700  0.67888500  1
  O  O128  1  0.33263100  0.01666300  0.17888500  1
  O  O129  1  0.18087500  0.12029300  0.19779500  1
  O  O130  1  0.06403600  0.00829200  0.38634000  1
  O  O131  1  0.34015700  0.48313700  0.49313900  1
  O  O132  1  0.16736900  0.48333700  0.82111500  1
  O  O133  1  0.06721100  0.09773200  0.19093800  1
  O  O134  1  0.30487750  0.12096650  0.35298200  1
  O  O135  1  0.26140200  0.48999000  0.91877300  1
