# generated using pymatgen
data_AsN2F7
_symmetry_space_group_name_H-M   'P 1'
_cell_length_a   8.95624200
_cell_length_b   5.80993600
_cell_length_c   26.26649709
_cell_angle_alpha   90.00000000
_cell_angle_beta   90.75012909
_cell_angle_gamma   90.00000000
_symmetry_Int_Tables_number   1
_chemical_formula_structural   AsN2F7
_chemical_formula_sum   'As10 N20 F70'
_cell_volume   1366.66510490
_cell_formula_units_Z   10
loop_
 _symmetry_equiv_pos_site_id
 _symmetry_equiv_pos_as_xyz
  1  'x, y, z'
loop_
 _atom_site_type_symbol
 _atom_site_label
 _atom_site_symmetry_multiplicity
 _atom_site_fract_x
 _atom_site_fract_y
 _atom_site_fract_z
 _atom_site_occupancy
  As  As0  1  0.00005600  0.00000000  0.90003800  1
  As  As1  1  0.00002100  0.00000000  0.70002600  1
  As  As2  1  0.00033600  0.00000000  0.50017300  1
  As  As3  1  0.00034300  0.00000000  0.30018000  1
  As  As4  1  0.00030200  0.00000000  0.10017100  1
  As  As5  1  0.50005600  0.50000000  0.90003800  1
  As  As6  1  0.50002100  0.50000000  0.70002600  1
  As  As7  1  0.50033600  0.50000000  0.50017300  1
  As  As8  1  0.50034300  0.50000000  0.30018000  1
  As  As9  1  0.50030200  0.50000000  0.10017100  1
  N  N10  1  0.37585300  0.00000000  0.98521200  1
  N  N11  1  0.62404800  0.00000000  0.81479200  1
  N  N12  1  0.50500900  0.00000000  0.80150100  1
  N  N13  1  0.49509300  0.00000000  0.59855600  1
  N  N14  1  0.37587000  0.00000000  0.58521300  1
  N  N15  1  0.49509200  0.00000000  0.39856100  1
  N  N16  1  0.37585500  0.00000000  0.38521500  1
  N  N17  1  0.49509700  0.00000000  0.19856200  1
  N  N18  1  0.37587400  0.00000000  0.18521700  1
  N  N19  1  0.49509200  0.00000000  0.99856300  1
  N  N20  1  0.87585300  0.50000000  0.98521200  1
  N  N21  1  0.12404800  0.50000000  0.81479200  1
  N  N22  1  0.00500900  0.50000000  0.80150100  1
  N  N23  1  0.99509300  0.50000000  0.59855600  1
  N  N24  1  0.87587000  0.50000000  0.58521300  1
  N  N25  1  0.99509200  0.50000000  0.39856100  1
  N  N26  1  0.87585500  0.50000000  0.38521500  1
  N  N27  1  0.99509700  0.50000000  0.19856200  1
  N  N28  1  0.87587400  0.50000000  0.18521700  1
  N  N29  1  0.99509200  0.50000000  0.99856300  1
  F  F30  1  0.86826000  0.00000000  0.94966300  1
  F  F31  1  0.60354350  0.71787950  0.93285500  1
  F  F32  1  0.60354350  0.28212050  0.93285500  1
  F  F33  1  0.39648250  0.71790650  0.86713000  1
  F  F34  1  0.39648250  0.28209350  0.86713000  1
  F  F35  1  0.13180200  0.00000000  0.85033200  1
  F  F36  1  0.37254900  0.00000000  0.78456000  1
  F  F37  1  0.86835400  0.00000000  0.74965100  1
  F  F38  1  0.60333950  0.71746950  0.73277300  1
  F  F39  1  0.60333950  0.28253050  0.73277300  1
  F  F40  1  0.39664400  0.71751300  0.66719300  1
  F  F41  1  0.39664400  0.28248700  0.66719300  1
  F  F42  1  0.13166900  0.00000000  0.65032700  1
  F  F43  1  0.62746400  0.00000000  0.61545400  1
  F  F44  1  0.86832300  0.00000000  0.54971000  1
  F  F45  1  0.60372150  0.71816950  0.53295300  1
  F  F46  1  0.60372150  0.28183050  0.53295300  1
  F  F47  1  0.39685900  0.71722400  0.46728300  1
  F  F48  1  0.39685900  0.28277600  0.46728300  1
  F  F49  1  0.13175300  0.00000000  0.45039700  1
  F  F50  1  0.62743900  0.00000000  0.41546700  1
  F  F51  1  0.86831000  0.00000000  0.34971500  1
  F  F52  1  0.60373100  0.71818400  0.33295200  1
  F  F53  1  0.60373100  0.28181600  0.33295200  1
  F  F54  1  0.39686150  0.71722150  0.26729100  1
  F  F55  1  0.39686150  0.28277850  0.26729100  1
  F  F56  1  0.13174200  0.00000000  0.25039600  1
  F  F57  1  0.62746100  0.00000000  0.21546600  1
  F  F58  1  0.86830200  0.00000000  0.14971400  1
  F  F59  1  0.60371250  0.71816950  0.13293900  1
  F  F60  1  0.60371250  0.28183050  0.13293900  1
  F  F61  1  0.39683600  0.71723200  0.06729000  1
  F  F62  1  0.39683600  0.28276800  0.06729000  1
  F  F63  1  0.13171800  0.00000000  0.05038000  1
  F  F64  1  0.62745200  0.00000000  0.01546700  1
  F  F65  1  0.36826000  0.50000000  0.94966300  1
  F  F66  1  0.10354350  0.21787950  0.93285500  1
  F  F67  1  0.10354350  0.78212050  0.93285500  1
  F  F68  1  0.89648250  0.21790650  0.86713000  1
  F  F69  1  0.89648250  0.78209350  0.86713000  1
  F  F70  1  0.63180200  0.50000000  0.85033200  1
  F  F71  1  0.87254900  0.50000000  0.78456000  1
  F  F72  1  0.36835400  0.50000000  0.74965100  1
  F  F73  1  0.10333950  0.21746950  0.73277300  1
  F  F74  1  0.10333950  0.78253050  0.73277300  1
  F  F75  1  0.89664400  0.21751300  0.66719300  1
  F  F76  1  0.89664400  0.78248700  0.66719300  1
  F  F77  1  0.63166900  0.50000000  0.65032700  1
  F  F78  1  0.12746400  0.50000000  0.61545400  1
  F  F79  1  0.36832300  0.50000000  0.54971000  1
  F  F80  1  0.10372150  0.21816950  0.53295300  1
  F  F81  1  0.10372150  0.78183050  0.53295300  1
  F  F82  1  0.89685900  0.21722400  0.46728300  1
  F  F83  1  0.89685900  0.78277600  0.46728300  1
  F  F84  1  0.63175300  0.50000000  0.45039700  1
  F  F85  1  0.12743900  0.50000000  0.41546700  1
  F  F86  1  0.36831000  0.50000000  0.34971500  1
  F  F87  1  0.10373100  0.21818400  0.33295200  1
  F  F88  1  0.10373100  0.78181600  0.33295200  1
  F  F89  1  0.89686150  0.21722150  0.26729100  1
  F  F90  1  0.89686150  0.78277850  0.26729100  1
  F  F91  1  0.63174200  0.50000000  0.25039600  1
  F  F92  1  0.12746100  0.50000000  0.21546600  1
  F  F93  1  0.36830200  0.50000000  0.14971400  1
  F  F94  1  0.10371250  0.21816950  0.13293900  1
  F  F95  1  0.10371250  0.78183050  0.13293900  1
  F  F96  1  0.89683600  0.21723200  0.06729000  1
  F  F97  1  0.89683600  0.78276800  0.06729000  1
  F  F98  1  0.63171800  0.50000000  0.05038000  1
  F  F99  1  0.12745200  0.50000000  0.01546700  1
