# generated using pymatgen
data_Ta4Te9I4O
_symmetry_space_group_name_H-M   'P 1'
_cell_length_a   22.59698800
_cell_length_b   6.27988800
_cell_length_c   20.67472910
_cell_angle_alpha   90.00000000
_cell_angle_beta   122.08283425
_cell_angle_gamma   90.00000000
_symmetry_Int_Tables_number   1
_chemical_formula_structural   Ta4Te9I4O
_chemical_formula_sum   'Ta16 Te36 I16 O4'
_cell_volume   2485.82066783
_cell_formula_units_Z   4
loop_
 _symmetry_equiv_pos_site_id
 _symmetry_equiv_pos_as_xyz
  1  'x, y, z'
loop_
 _atom_site_type_symbol
 _atom_site_label
 _atom_site_symmetry_multiplicity
 _atom_site_fract_x
 _atom_site_fract_y
 _atom_site_fract_z
 _atom_site_occupancy
  Ta  Ta0  1  0.42549900  0.79985600  0.76291000  1
  Ta  Ta1  1  0.57450100  0.79985600  0.73709000  1
  Ta  Ta2  1  0.56454700  0.56213500  0.86146900  1
  Ta  Ta3  1  0.43545300  0.56213500  0.63853100  1
  Ta  Ta4  1  0.42549900  0.20014400  0.26291000  1
  Ta  Ta5  1  0.57450100  0.20014400  0.23709000  1
  Ta  Ta6  1  0.43545300  0.43786500  0.13853100  1
  Ta  Ta7  1  0.56454700  0.43786500  0.36146900  1
  Ta  Ta8  1  0.92549900  0.29985600  0.76291000  1
  Ta  Ta9  1  0.07450100  0.29985600  0.73709000  1
  Ta  Ta10  1  0.06454700  0.06213500  0.86146900  1
  Ta  Ta11  1  0.93545300  0.06213500  0.63853100  1
  Ta  Ta12  1  0.92549900  0.70014400  0.26291000  1
  Ta  Ta13  1  0.07450100  0.70014400  0.23709000  1
  Ta  Ta14  1  0.93545300  0.93786500  0.13853100  1
  Ta  Ta15  1  0.06454700  0.93786500  0.36146900  1
  Te  Te16  1  0.47936800  0.13709300  0.07289500  1
  Te  Te17  1  0.82208000  0.99971300  0.66655600  1
  Te  Te18  1  0.44135300  0.49839400  0.87280000  1
  Te  Te19  1  0.33066800  0.13425600  0.09892700  1
  Te  Te20  1  0.44135300  0.50160600  0.37280000  1
  Te  Te21  1  0.66933200  0.86574400  0.90107300  1
  Te  Te22  1  0.50000000  0.15894800  0.75000000  1
  Te  Te23  1  0.33066800  0.86574400  0.59892700  1
  Te  Te24  1  0.32208000  0.50028700  0.16655600  1
  Te  Te25  1  0.67792000  0.49971300  0.83344400  1
  Te  Te26  1  0.52063200  0.86290700  0.92710500  1
  Te  Te27  1  0.50000000  0.84105200  0.25000000  1
  Te  Te28  1  0.52063200  0.13709300  0.42710500  1
  Te  Te29  1  0.17792000  0.00028700  0.33344400  1
  Te  Te30  1  0.55864700  0.50160600  0.12720000  1
  Te  Te31  1  0.47936800  0.86290700  0.57289500  1
  Te  Te32  1  0.66933200  0.13425600  0.40107300  1
  Te  Te33  1  0.55864700  0.49839400  0.62720000  1
  Te  Te34  1  0.97936800  0.63709300  0.07289500  1
  Te  Te35  1  0.32208000  0.49971300  0.66655600  1
  Te  Te36  1  0.94135300  0.99839400  0.87280000  1
  Te  Te37  1  0.83066800  0.63425600  0.09892700  1
  Te  Te38  1  0.94135300  0.00160600  0.37280000  1
  Te  Te39  1  0.16933200  0.36574400  0.90107300  1
  Te  Te40  1  0.00000000  0.65894800  0.75000000  1
  Te  Te41  1  0.83066800  0.36574400  0.59892700  1
  Te  Te42  1  0.82208000  0.00028700  0.16655600  1
  Te  Te43  1  0.17792000  0.99971300  0.83344400  1
  Te  Te44  1  0.02063200  0.36290700  0.92710500  1
  Te  Te45  1  0.00000000  0.34105200  0.25000000  1
  Te  Te46  1  0.02063200  0.63709300  0.42710500  1
  Te  Te47  1  0.67792000  0.50028700  0.33344400  1
  Te  Te48  1  0.05864700  0.00160600  0.12720000  1
  Te  Te49  1  0.97936800  0.36290700  0.57289500  1
  Te  Te50  1  0.16933200  0.63425600  0.40107300  1
  Te  Te51  1  0.05864700  0.99839400  0.62720000  1
  I  I52  1  0.83005200  0.55189300  0.77887700  1
  I  I53  1  0.36087100  0.69713400  0.00824600  1
  I  I54  1  0.16994800  0.44810700  0.22112300  1
  I  I55  1  0.63912900  0.69713400  0.49175400  1
  I  I56  1  0.63912900  0.30286600  0.99175400  1
  I  I57  1  0.33005200  0.94810700  0.27887700  1
  I  I58  1  0.66994800  0.05189300  0.72112300  1
  I  I59  1  0.36087100  0.30286600  0.50824600  1
  I  I60  1  0.33005200  0.05189300  0.77887700  1
  I  I61  1  0.86087100  0.19713400  0.00824600  1
  I  I62  1  0.66994800  0.94810700  0.22112300  1
  I  I63  1  0.13912900  0.19713400  0.49175400  1
  I  I64  1  0.13912900  0.80286600  0.99175400  1
  I  I65  1  0.83005200  0.44810700  0.27887700  1
  I  I66  1  0.16994800  0.55189300  0.72112300  1
  I  I67  1  0.86087100  0.80286600  0.50824600  1
  O  O68  1  0.50000000  0.61426900  0.75000000  1
  O  O69  1  0.50000000  0.38573100  0.25000000  1
  O  O70  1  0.00000000  0.11426900  0.75000000  1
  O  O71  1  0.00000000  0.88573100  0.25000000  1
