# generated using pymatgen
data_CaAl2Si(HO2)4
_symmetry_space_group_name_H-M   'P 1'
_cell_length_a   5.00847800
_cell_length_b   5.00847800
_cell_length_c   23.43578400
_cell_angle_alpha   90.00000000
_cell_angle_beta   90.00000000
_cell_angle_gamma   90.00000000
_symmetry_Int_Tables_number   1
_chemical_formula_structural   CaAl2Si(HO2)4
_chemical_formula_sum   'Ca4 Al8 Si4 H16 O32'
_cell_volume   587.88317025
_cell_formula_units_Z   4
loop_
 _symmetry_equiv_pos_site_id
 _symmetry_equiv_pos_as_xyz
  1  'x, y, z'
loop_
 _atom_site_type_symbol
 _atom_site_label
 _atom_site_symmetry_multiplicity
 _atom_site_fract_x
 _atom_site_fract_y
 _atom_site_fract_z
 _atom_site_occupancy
  Ca  Ca0  1  0.50000000  0.00000000  0.25000000  1
  Ca  Ca1  1  0.50000000  0.50000000  0.00000000  1
  Ca  Ca2  1  0.00000000  0.50000000  0.75000000  1
  Ca  Ca3  1  0.00000000  0.00000000  0.50000000  1
  Al  Al4  1  0.50000000  0.00000000  0.40966600  1
  Al  Al5  1  0.50000000  0.50000000  0.15966600  1
  Al  Al6  1  0.00000000  0.00000000  0.34033400  1
  Al  Al7  1  0.50000000  0.00000000  0.09033400  1
  Al  Al8  1  0.00000000  0.50000000  0.90966600  1
  Al  Al9  1  0.00000000  0.00000000  0.65966600  1
  Al  Al10  1  0.50000000  0.50000000  0.84033400  1
  Al  Al11  1  0.00000000  0.50000000  0.59033400  1
  Si  Si12  1  0.00000000  0.50000000  0.25000000  1
  Si  Si13  1  0.00000000  0.00000000  0.00000000  1
  Si  Si14  1  0.50000000  0.00000000  0.75000000  1
  Si  Si15  1  0.50000000  0.50000000  0.50000000  1
  H  H16  1  0.80958400  0.37992900  0.40910400  1
  H  H17  1  0.19041600  0.62007100  0.40910400  1
  H  H18  1  0.87992900  0.19041600  0.15910400  1
  H  H19  1  0.12007100  0.80958400  0.15910400  1
  H  H20  1  0.69041600  0.62007100  0.34089600  1
  H  H21  1  0.30958400  0.37992900  0.34089600  1
  H  H22  1  0.12007100  0.30958400  0.09089600  1
  H  H23  1  0.87992900  0.69041600  0.09089600  1
  H  H24  1  0.30958400  0.87992900  0.90910400  1
  H  H25  1  0.69041600  0.12007100  0.90910400  1
  H  H26  1  0.37992900  0.69041600  0.65910400  1
  H  H27  1  0.62007100  0.30958400  0.65910400  1
  H  H28  1  0.19041600  0.12007100  0.84089600  1
  H  H29  1  0.80958400  0.87992900  0.84089600  1
  H  H30  1  0.62007100  0.80958400  0.59089600  1
  H  H31  1  0.37992900  0.19041600  0.59089600  1
  O  O32  1  0.75589900  0.63202200  0.21158700  1
  O  O33  1  0.24410100  0.36797800  0.21158700  1
  O  O34  1  0.63202200  0.74410100  0.46158700  1
  O  O35  1  0.36797800  0.25589900  0.46158700  1
  O  O36  1  0.24410100  0.86797800  0.03841300  1
  O  O37  1  0.75589900  0.13202200  0.03841300  1
  O  O38  1  0.86797800  0.25589900  0.28841300  1
  O  O39  1  0.13202200  0.74410100  0.28841300  1
  O  O40  1  0.82769700  0.18701100  0.40520000  1
  O  O41  1  0.17230300  0.81298900  0.40520000  1
  O  O42  1  0.68701100  0.17230300  0.15520000  1
  O  O43  1  0.31298900  0.82769700  0.15520000  1
  O  O44  1  0.67230300  0.81298900  0.34480000  1
  O  O45  1  0.32769700  0.18701100  0.34480000  1
  O  O46  1  0.31298900  0.32769700  0.09480000  1
  O  O47  1  0.68701100  0.67230300  0.09480000  1
  O  O48  1  0.25589900  0.13202200  0.71158700  1
  O  O49  1  0.74410100  0.86797800  0.71158700  1
  O  O50  1  0.13202200  0.24410100  0.96158700  1
  O  O51  1  0.86797800  0.75589900  0.96158700  1
  O  O52  1  0.74410100  0.36797800  0.53841300  1
  O  O53  1  0.25589900  0.63202200  0.53841300  1
  O  O54  1  0.36797800  0.75589900  0.78841300  1
  O  O55  1  0.63202200  0.24410100  0.78841300  1
  O  O56  1  0.32769700  0.68701100  0.90520000  1
  O  O57  1  0.67230300  0.31298900  0.90520000  1
  O  O58  1  0.18701100  0.67230300  0.65520000  1
  O  O59  1  0.81298900  0.32769700  0.65520000  1
  O  O60  1  0.17230300  0.31298900  0.84480000  1
  O  O61  1  0.82769700  0.68701100  0.84480000  1
  O  O62  1  0.81298900  0.82769700  0.59480000  1
  O  O63  1  0.18701100  0.17230300  0.59480000  1
