# generated using pymatgen
data_Ca(H8O5)2
_symmetry_space_group_name_H-M   'P 1'
_cell_length_a   6.26318900
_cell_length_b   6.26432341
_cell_length_c   10.79101555
_cell_angle_alpha   89.90057156
_cell_angle_beta   89.69112951
_cell_angle_gamma   89.71885795
_symmetry_Int_Tables_number   1
_chemical_formula_structural   Ca(H8O5)2
_chemical_formula_sum   'Ca2 H32 O20'
_cell_volume   423.36975972
_cell_formula_units_Z   2
loop_
 _symmetry_equiv_pos_site_id
 _symmetry_equiv_pos_as_xyz
  1  'x, y, z'
loop_
 _atom_site_type_symbol
 _atom_site_label
 _atom_site_symmetry_multiplicity
 _atom_site_fract_x
 _atom_site_fract_y
 _atom_site_fract_z
 _atom_site_occupancy
  Ca  Ca0  1  0.98871200  0.99362300  0.76162400  1
  Ca  Ca1  1  0.98906600  0.99048600  0.25956600  1
  H  H2  1  0.26276000  0.65780100  0.63969500  1
  H  H3  1  0.03154100  0.56558600  0.63036300  1
  H  H4  1  0.75177000  0.38607700  0.65402200  1
  H  H5  1  0.88057100  0.30719200  0.53677300  1
  H  H6  1  0.62735800  0.75975800  0.64532300  1
  H  H7  1  0.68414100  0.89385800  0.50945600  1
  H  H8  1  0.29417000  0.13006100  0.54306600  1
  H  H9  1  0.46124300  0.03977400  0.63831200  1
  H  H10  1  0.75514500  0.63278400  0.14331600  1
  H  H11  1  0.89038500  0.68782200  0.00662200  1
  H  H12  1  0.13099800  0.30030600  0.04234600  1
  H  H13  1  0.03660100  0.46587700  0.13758200  1
  H  H14  1  0.38598300  0.74826500  0.15545000  1
  H  H15  1  0.31040600  0.87560200  0.03668900  1
  H  H16  1  0.56122200  0.03154200  0.13414800  1
  H  H17  1  0.64366400  0.26578500  0.15084300  1
  H  H18  1  0.95519100  0.44908300  0.36674700  1
  H  H19  1  0.71458500  0.37173400  0.36224700  1
  H  H20  1  0.26076200  0.60674200  0.35685900  1
  H  H21  1  0.10665400  0.70196000  0.46086500  1
  H  H22  1  0.44525600  0.01433000  0.38447800  1
  H  H23  1  0.36344100  0.25123600  0.36432000  1
  H  H24  1  0.62618100  0.74392900  0.37324100  1
  H  H25  1  0.01781800  0.44908200  0.88372300  1
  H  H26  1  0.25478400  0.36827800  0.86223500  1
  H  H27  1  0.74489800  0.62774200  0.86932200  1
  H  H28  1  0.60815500  0.27112500  0.85885600  1
  H  H29  1  0.69841300  0.12375700  0.96789300  1
  H  H30  1  0.37532700  0.72103400  0.85819800  1
  H  H31  1  0.44993900  0.96250900  0.86914900  1
  H  H32  1  0.41568100  0.34803500  0.66524400  1
  H  H33  1  0.34376900  0.41625400  0.16852500  1
  O  O34  1  0.11460900  0.70180700  0.61994500  1
  O  O35  1  0.89480100  0.33131400  0.62849600  1
  O  O36  1  0.67689000  0.90261200  0.62168800  1
  O  O37  1  0.32422900  0.13158100  0.63488700  1
  O  O38  1  0.89721200  0.68267600  0.11890000  1
  O  O39  1  0.12873700  0.32929900  0.13452300  1
  O  O40  1  0.33139700  0.89032200  0.12863500  1
  O  O41  1  0.69393800  0.12114600  0.12645800  1
  O  O42  1  0.86503700  0.31836600  0.37818100  1
  O  O43  1  0.11225000  0.67097700  0.37044300  1
  O  O44  1  0.30844200  0.10547900  0.38771300  1
  O  O45  1  0.67649300  0.88878600  0.39326000  1
  O  O46  1  0.11003400  0.31322300  0.88787700  1
  O  O47  1  0.88892700  0.67877700  0.89057600  1
  O  O48  1  0.67244100  0.12447600  0.87667900  1
  O  O49  1  0.32047400  0.87016700  0.87792300  1
  O  O50  1  0.49316400  0.49030300  0.68754100  1
  O  O51  1  0.48709500  0.49106000  0.19261500  1
  O  O52  1  0.48131000  0.48345400  0.33019400  1
  O  O53  1  0.48416500  0.48960500  0.82514000  1
