# generated using pymatgen
data_H4SO5
_symmetry_space_group_name_H-M   'P 1'
_cell_length_a   7.51292900
_cell_length_b   6.99884200
_cell_length_c   8.43967833
_cell_angle_alpha   90.00000000
_cell_angle_beta   104.08223298
_cell_angle_gamma   90.00000000
_symmetry_Int_Tables_number   1
_chemical_formula_structural   H4SO5
_chemical_formula_sum   'H16 S4 O20'
_cell_volume   430.43700577
_cell_formula_units_Z   4
loop_
 _symmetry_equiv_pos_site_id
 _symmetry_equiv_pos_as_xyz
  1  'x, y, z'
loop_
 _atom_site_type_symbol
 _atom_site_label
 _atom_site_symmetry_multiplicity
 _atom_site_fract_x
 _atom_site_fract_y
 _atom_site_fract_z
 _atom_site_occupancy
  H  H0  1  0.45250600  0.15095700  0.58710600  1
  H  H1  1  0.54749400  0.65095700  0.91289400  1
  H  H2  1  0.54749400  0.84904300  0.41289400  1
  H  H3  1  0.45250600  0.34904300  0.08710600  1
  H  H4  1  0.85910400  0.30775000  0.95579800  1
  H  H5  1  0.73936500  0.12974700  0.81345300  1
  H  H6  1  0.80320600  0.38924800  0.77624300  1
  H  H7  1  0.26063500  0.62974700  0.68654700  1
  H  H8  1  0.14089600  0.80775000  0.54420200  1
  H  H9  1  0.19679400  0.88924800  0.72375700  1
  H  H10  1  0.19679400  0.61075200  0.22375700  1
  H  H11  1  0.26063500  0.87025300  0.18654700  1
  H  H12  1  0.14089600  0.69225000  0.04420200  1
  H  H13  1  0.85910400  0.19225000  0.45579800  1
  H  H14  1  0.80320600  0.11075200  0.27624300  1
  H  H15  1  0.73936500  0.37025300  0.31345300  1
  S  S16  1  0.23848900  0.35837800  0.55043700  1
  S  S17  1  0.76151100  0.85837800  0.94956300  1
  S  S18  1  0.76151100  0.64162200  0.44956300  1
  S  S19  1  0.23848900  0.14162200  0.05043700  1
  O  O20  1  0.18147300  0.01025100  0.91639200  1
  O  O21  1  0.81852700  0.51025100  0.58360800  1
  O  O22  1  0.81852700  0.98974900  0.08360800  1
  O  O23  1  0.18147300  0.48974900  0.41639200  1
  O  O24  1  0.28226600  0.46785400  0.71195000  1
  O  O25  1  0.71773400  0.96785400  0.78805000  1
  O  O26  1  0.71773400  0.53214600  0.28805000  1
  O  O27  1  0.28226600  0.03214600  0.21195000  1
  O  O28  1  0.43264900  0.27715800  0.53495500  1
  O  O29  1  0.56735100  0.77715800  0.96504500  1
  O  O30  1  0.56735100  0.72284200  0.46504500  1
  O  O31  1  0.43264900  0.22284200  0.03495500  1
  O  O32  1  0.12252600  0.19519500  0.55949300  1
  O  O33  1  0.87747400  0.69519500  0.94050700  1
  O  O34  1  0.87747400  0.80480500  0.44050700  1
  O  O35  1  0.12252600  0.30480500  0.05949300  1
  O  O36  1  0.76102800  0.30558500  0.85415700  1
  O  O37  1  0.23897200  0.80558500  0.64584300  1
  O  O38  1  0.23897200  0.69441500  0.14584300  1
  O  O39  1  0.76102800  0.19441500  0.35415700  1
