# generated using pymatgen
data_Na4Al3Ge3NO15
_symmetry_space_group_name_H-M   'P 1'
_cell_length_a   9.23742100
_cell_length_b   9.21317200
_cell_length_c   9.27341307
_cell_angle_alpha   90.00000000
_cell_angle_beta   90.05369735
_cell_angle_gamma   90.00000000
_symmetry_Int_Tables_number   1
_chemical_formula_structural   Na4Al3Ge3NO15
_chemical_formula_sum   'Na8 Al6 Ge6 N2 O30'
_cell_volume   789.22226886
_cell_formula_units_Z   2
loop_
 _symmetry_equiv_pos_site_id
 _symmetry_equiv_pos_as_xyz
  1  'x, y, z'
loop_
 _atom_site_type_symbol
 _atom_site_label
 _atom_site_symmetry_multiplicity
 _atom_site_fract_x
 _atom_site_fract_y
 _atom_site_fract_z
 _atom_site_occupancy
  Na  Na0  1  0.18669100  0.81604700  0.18794900  1
  Na  Na1  1  0.81330900  0.81604700  0.81205100  1
  Na  Na2  1  0.31742200  0.68348600  0.68558200  1
  Na  Na3  1  0.68257800  0.68348600  0.31441800  1
  Na  Na4  1  0.31897600  0.31375600  0.31514600  1
  Na  Na5  1  0.68102400  0.31375600  0.68485400  1
  Na  Na6  1  0.18934300  0.19098800  0.81269900  1
  Na  Na7  1  0.81065700  0.19098800  0.18730100  1
  Al  Al8  1  0.25054100  0.00008000  0.50012500  1
  Al  Al9  1  0.74945900  0.00008000  0.49987500  1
  Al  Al10  1  0.50000000  0.75066300  0.00000000  1
  Al  Al11  1  0.99954800  0.50018000  0.75006300  1
  Al  Al12  1  0.00045200  0.50018000  0.24993700  1
  Al  Al13  1  0.50000000  0.25009000  0.00000000  1
  Ge  Ge14  1  0.50008200  0.99998500  0.25038000  1
  Ge  Ge15  1  0.49991800  0.99998500  0.74962000  1
  Ge  Ge16  1  0.00000000  0.74983800  0.50000000  1
  Ge  Ge17  1  0.75013400  0.50051600  0.99981900  1
  Ge  Ge18  1  0.24986600  0.50051600  0.00018100  1
  Ge  Ge19  1  0.00000000  0.25057600  0.50000000  1
  N  N20  1  0.00000000  0.99124900  0.00000000  1
  N  N21  1  0.50000000  0.53863600  0.50000000  1
  O  O22  1  0.35458800  0.93247400  0.64560000  1
  O  O23  1  0.64541200  0.93247400  0.35440000  1
  O  O24  1  0.14718900  0.85229000  0.43531800  1
  O  O25  1  0.85281100  0.85229000  0.56468200  1
  O  O26  1  0.43443000  0.85314500  0.14729600  1
  O  O27  1  0.56557000  0.85314500  0.85270400  1
  O  O28  1  0.35335800  0.64660400  0.93396300  1
  O  O29  1  0.64664200  0.64660400  0.06603700  1
  O  O30  1  0.06744000  0.64563200  0.64539100  1
  O  O31  1  0.93256000  0.64563200  0.35460900  1
  O  O32  1  0.14577000  0.56823400  0.14535600  1
  O  O33  1  0.85423000  0.56823400  0.85464400  1
  O  O34  1  0.46010200  0.46534000  0.60984100  1
  O  O35  1  0.53989800  0.46534000  0.39015900  1
  O  O36  1  0.14432400  0.43323900  0.85591700  1
  O  O37  1  0.85567600  0.43323900  0.14408300  1
  O  O38  1  0.06909200  0.35644600  0.35662800  1
  O  O39  1  0.93090800  0.35644600  0.64337200  1
  O  O40  1  0.35472200  0.35547000  0.06699100  1
  O  O41  1  0.64527800  0.35547000  0.93300900  1
  O  O42  1  0.56598200  0.14563500  0.14587500  1
  O  O43  1  0.43401800  0.14563500  0.85412500  1
  O  O44  1  0.14607100  0.14672400  0.56588900  1
  O  O45  1  0.85392900  0.14672400  0.43411100  1
  O  O46  1  0.35554700  0.06731500  0.35529200  1
  O  O47  1  0.64445300  0.06731500  0.64470800  1
  O  O48  1  0.01564100  0.02163700  0.15782300  1
  O  O49  1  0.98435900  0.02163700  0.84217700  1
  O  O50  1  0.84521100  0.02385400  0.98146000  1
  O  O51  1  0.15478900  0.02385400  0.01854000  1
