# generated using pymatgen
data_RbHO
_symmetry_space_group_name_H-M   'P 1'
_cell_length_a   4.26771100
_cell_length_b   4.22056900
_cell_length_c   5.99164545
_cell_angle_alpha   90.00000000
_cell_angle_beta   106.57759554
_cell_angle_gamma   90.00000000
_symmetry_Int_Tables_number   1
_chemical_formula_structural   RbHO
_chemical_formula_sum   'Rb2 H2 O2'
_cell_volume   103.43664423
_cell_formula_units_Z   2
loop_
 _symmetry_equiv_pos_site_id
 _symmetry_equiv_pos_as_xyz
  1  'x, y, z'
loop_
 _atom_site_type_symbol
 _atom_site_label
 _atom_site_symmetry_multiplicity
 _atom_site_fract_x
 _atom_site_fract_y
 _atom_site_fract_z
 _atom_site_occupancy
  Rb  Rb0  1  0.16249100  0.23951900  0.28372200  1
  Rb  Rb1  1  0.83750900  0.73951900  0.71627800  1
  H  H2  1  0.43882400  0.10893000  0.91253200  1
  H  H3  1  0.56117600  0.60893000  0.08746800  1
  O  O4  1  0.34211100  0.25351400  0.78220900  1
  O  O5  1  0.65788900  0.75351400  0.21779100  1
