# generated using pymatgen
data_BaNd2Ti3O10
_symmetry_space_group_name_H-M   'P 1'
_cell_length_a   3.92799200
_cell_length_b   28.49112600
_cell_length_c   7.69400400
_cell_angle_alpha   90.00000000
_cell_angle_beta   90.00000000
_cell_angle_gamma   90.00000000
_symmetry_Int_Tables_number   1
_chemical_formula_structural   BaNd2Ti3O10
_chemical_formula_sum   'Ba4 Nd8 Ti12 O40'
_cell_volume   861.05841565
_cell_formula_units_Z   4
loop_
 _symmetry_equiv_pos_site_id
 _symmetry_equiv_pos_as_xyz
  1  'x, y, z'
loop_
 _atom_site_type_symbol
 _atom_site_label
 _atom_site_symmetry_multiplicity
 _atom_site_fract_x
 _atom_site_fract_y
 _atom_site_fract_z
 _atom_site_occupancy
  Ba  Ba0  1  0.00000000  0.74297900  0.75000000  1
  Ba  Ba1  1  0.50000000  0.75702100  0.25000000  1
  Ba  Ba2  1  0.50000000  0.24297900  0.75000000  1
  Ba  Ba3  1  0.00000000  0.25702100  0.25000000  1
  Nd  Nd4  1  0.00000000  0.58019700  0.25000000  1
  Nd  Nd5  1  0.50000000  0.91980300  0.75000000  1
  Nd  Nd6  1  0.00000000  0.57271600  0.75000000  1
  Nd  Nd7  1  0.50000000  0.92728400  0.25000000  1
  Nd  Nd8  1  0.50000000  0.08019700  0.25000000  1
  Nd  Nd9  1  0.00000000  0.41980300  0.75000000  1
  Nd  Nd10  1  0.50000000  0.07271600  0.75000000  1
  Nd  Nd11  1  0.00000000  0.42728400  0.25000000  1
  Ti  Ti12  1  0.00000000  0.85420600  0.49493900  1
  Ti  Ti13  1  0.50000000  0.64579400  0.50506100  1
  Ti  Ti14  1  0.50000000  0.64579400  0.99493900  1
  Ti  Ti15  1  0.00000000  0.85420600  0.00506100  1
  Ti  Ti16  1  0.00000000  0.00000000  0.50000000  1
  Ti  Ti17  1  0.00000000  0.00000000  0.00000000  1
  Ti  Ti18  1  0.50000000  0.35420600  0.49493900  1
  Ti  Ti19  1  0.00000000  0.14579400  0.50506100  1
  Ti  Ti20  1  0.00000000  0.14579400  0.99493900  1
  Ti  Ti21  1  0.50000000  0.35420600  0.00506100  1
  Ti  Ti22  1  0.50000000  0.50000000  0.50000000  1
  Ti  Ti23  1  0.50000000  0.50000000  0.00000000  1
  O  O24  1  0.50000000  0.86957000  0.49263500  1
  O  O25  1  0.00000000  0.63043000  0.50736500  1
  O  O26  1  0.00000000  0.63043000  0.99263500  1
  O  O27  1  0.50000000  0.86957000  0.00736500  1
  O  O28  1  0.00000000  0.79306500  0.45279900  1
  O  O29  1  0.50000000  0.70693500  0.54720100  1
  O  O30  1  0.50000000  0.70693500  0.95279900  1
  O  O31  1  0.00000000  0.79306500  0.04720100  1
  O  O32  1  0.00000000  0.93361900  0.55548200  1
  O  O33  1  0.50000000  0.56638100  0.44451800  1
  O  O34  1  0.50000000  0.56638100  0.05548200  1
  O  O35  1  0.00000000  0.93361900  0.94451800  1
  O  O36  1  0.50000000  0.00000000  0.00000000  1
  O  O37  1  0.50000000  0.00000000  0.50000000  1
  O  O38  1  0.50000000  0.51759300  0.75000000  1
  O  O39  1  0.00000000  0.98240700  0.25000000  1
  O  O40  1  0.50000000  0.62232100  0.75000000  1
  O  O41  1  0.00000000  0.87767900  0.25000000  1
  O  O42  1  0.00000000  0.85319900  0.75000000  1
  O  O43  1  0.50000000  0.64680100  0.25000000  1
  O  O44  1  0.00000000  0.36957000  0.49263500  1
  O  O45  1  0.50000000  0.13043000  0.50736500  1
  O  O46  1  0.50000000  0.13043000  0.99263500  1
  O  O47  1  0.00000000  0.36957000  0.00736500  1
  O  O48  1  0.50000000  0.29306500  0.45279900  1
  O  O49  1  0.00000000  0.20693500  0.54720100  1
  O  O50  1  0.00000000  0.20693500  0.95279900  1
  O  O51  1  0.50000000  0.29306500  0.04720100  1
  O  O52  1  0.50000000  0.43361900  0.55548200  1
  O  O53  1  0.00000000  0.06638100  0.44451800  1
  O  O54  1  0.00000000  0.06638100  0.05548200  1
  O  O55  1  0.50000000  0.43361900  0.94451800  1
  O  O56  1  0.00000000  0.50000000  0.00000000  1
  O  O57  1  0.00000000  0.50000000  0.50000000  1
  O  O58  1  0.00000000  0.01759300  0.75000000  1
  O  O59  1  0.50000000  0.48240700  0.25000000  1
  O  O60  1  0.00000000  0.12232100  0.75000000  1
  O  O61  1  0.50000000  0.37767900  0.25000000  1
  O  O62  1  0.50000000  0.35319900  0.75000000  1
  O  O63  1  0.00000000  0.14680100  0.25000000  1
