# generated using pymatgen
data_LiSn2P3O10
_symmetry_space_group_name_H-M   'P 1'
_cell_length_a   12.21812800
_cell_length_b   10.21656000
_cell_length_c   9.84828127
_cell_angle_alpha   90.00000000
_cell_angle_beta   120.10530724
_cell_angle_gamma   90.00000000
_symmetry_Int_Tables_number   1
_chemical_formula_structural   LiSn2P3O10
_chemical_formula_sum   'Li4 Sn8 P12 O40'
_cell_volume   1063.50272612
_cell_formula_units_Z   4
loop_
 _symmetry_equiv_pos_site_id
 _symmetry_equiv_pos_as_xyz
  1  'x, y, z'
loop_
 _atom_site_type_symbol
 _atom_site_label
 _atom_site_symmetry_multiplicity
 _atom_site_fract_x
 _atom_site_fract_y
 _atom_site_fract_z
 _atom_site_occupancy
  Li  Li0  1  0.00000000  0.77621500  0.75000000  1
  Li  Li1  1  0.00000000  0.22378500  0.25000000  1
  Li  Li2  1  0.50000000  0.27621500  0.75000000  1
  Li  Li3  1  0.50000000  0.72378500  0.25000000  1
  Sn  Sn4  1  0.82228700  0.43472600  0.43698100  1
  Sn  Sn5  1  0.17771300  0.56527400  0.56301900  1
  Sn  Sn6  1  0.82228700  0.56527400  0.93698100  1
  Sn  Sn7  1  0.17771300  0.43472600  0.06301900  1
  Sn  Sn8  1  0.32228700  0.93472600  0.43698100  1
  Sn  Sn9  1  0.67771300  0.06527400  0.56301900  1
  Sn  Sn10  1  0.32228700  0.06527400  0.93698100  1
  Sn  Sn11  1  0.67771300  0.93472600  0.06301900  1
  P  P12  1  0.86035850  0.27138650  0.87216800  1
  P  P13  1  0.13964150  0.27138650  0.62783200  1
  P  P14  1  0.00000000  0.10841200  0.75000000  1
  P  P15  1  0.86035850  0.72861350  0.37216800  1
  P  P16  1  0.00000000  0.89158800  0.25000000  1
  P  P17  1  0.13964150  0.72861350  0.12783200  1
  P  P18  1  0.36035850  0.77138650  0.87216800  1
  P  P19  1  0.63964150  0.77138650  0.62783200  1
  P  P20  1  0.50000000  0.60841200  0.75000000  1
  P  P21  1  0.36035850  0.22861350  0.37216800  1
  P  P22  1  0.50000000  0.39158800  0.25000000  1
  P  P23  1  0.63964150  0.22861350  0.12783200  1
  O  O24  1  0.38252850  0.47320850  0.15083100  1
  O  O25  1  0.15758150  0.40978150  0.70109900  1
  O  O26  1  0.24503600  0.68506700  0.77316900  1
  O  O27  1  0.09236500  0.27948100  0.45433200  1
  O  O28  1  0.15758150  0.59021850  0.20109900  1
  O  O29  1  0.84241850  0.59021850  0.29890100  1
  O  O30  1  0.90763500  0.27948100  0.04566800  1
  O  O31  1  0.61747150  0.47320850  0.34916900  1
  O  O32  1  0.75496400  0.31493300  0.22683100  1
  O  O33  1  0.01934050  0.20467350  0.63686800  1
  O  O34  1  0.01934050  0.79532650  0.13686800  1
  O  O35  1  0.38252850  0.52679150  0.65083100  1
  O  O36  1  0.75496400  0.68506700  0.72683100  1
  O  O37  1  0.98065950  0.20467350  0.86313200  1
  O  O38  1  0.24503600  0.31493300  0.27316900  1
  O  O39  1  0.09236500  0.72051900  0.95433200  1
  O  O40  1  0.90763500  0.72051900  0.54566800  1
  O  O41  1  0.61747150  0.52679150  0.84916900  1
  O  O42  1  0.98065950  0.79532650  0.36313200  1
  O  O43  1  0.84241850  0.40978150  0.79890100  1
  O  O44  1  0.88252850  0.97320850  0.15083100  1
  O  O45  1  0.65758150  0.90978150  0.70109900  1
  O  O46  1  0.74503600  0.18506700  0.77316900  1
  O  O47  1  0.59236500  0.77948100  0.45433200  1
  O  O48  1  0.65758150  0.09021850  0.20109900  1
  O  O49  1  0.34241850  0.09021850  0.29890100  1
  O  O50  1  0.40763500  0.77948100  0.04566800  1
  O  O51  1  0.11747150  0.97320850  0.34916900  1
  O  O52  1  0.25496400  0.81493300  0.22683100  1
  O  O53  1  0.51934050  0.70467350  0.63686800  1
  O  O54  1  0.51934050  0.29532650  0.13686800  1
  O  O55  1  0.88252850  0.02679150  0.65083100  1
  O  O56  1  0.25496400  0.18506700  0.72683100  1
  O  O57  1  0.48065950  0.70467350  0.86313200  1
  O  O58  1  0.74503600  0.81493300  0.27316900  1
  O  O59  1  0.59236500  0.22051900  0.95433200  1
  O  O60  1  0.40763500  0.22051900  0.54566800  1
  O  O61  1  0.11747150  0.02679150  0.84916900  1
  O  O62  1  0.48065950  0.29532650  0.36313200  1
  O  O63  1  0.34241850  0.90978150  0.79890100  1
