# generated using pymatgen
data_Er4Si2S3O7
_symmetry_space_group_name_H-M   'P 1'
_cell_length_a   11.66523800
_cell_length_b   11.66523800
_cell_length_c   13.56395000
_cell_angle_alpha   90.00000000
_cell_angle_beta   90.00000000
_cell_angle_gamma   90.00000000
_symmetry_Int_Tables_number   1
_chemical_formula_structural   Er4Si2S3O7
_chemical_formula_sum   'Er32 Si16 S24 O56'
_cell_volume   1845.75217143
_cell_formula_units_Z   8
loop_
 _symmetry_equiv_pos_site_id
 _symmetry_equiv_pos_as_xyz
  1  'x, y, z'
loop_
 _atom_site_type_symbol
 _atom_site_label
 _atom_site_symmetry_multiplicity
 _atom_site_fract_x
 _atom_site_fract_y
 _atom_site_fract_z
 _atom_site_occupancy
  Er  Er0  1  0.17241150  0.67241150  0.25000000  1
  Er  Er1  1  0.32758850  0.67241150  0.50000000  1
  Er  Er2  1  0.67241150  0.32758850  0.50000000  1
  Er  Er3  1  0.82758850  0.32758850  0.25000000  1
  Er  Er4  1  0.32758850  0.32758850  0.50000000  1
  Er  Er5  1  0.17241150  0.32758850  0.25000000  1
  Er  Er6  1  0.82758850  0.67241150  0.25000000  1
  Er  Er7  1  0.17241150  0.17241150  0.00000000  1
  Er  Er8  1  0.26454200  0.50000000  0.03382400  1
  Er  Er9  1  0.23545800  0.00000000  0.53382400  1
  Er  Er10  1  0.00000000  0.23545800  0.46617600  1
  Er  Er11  1  0.50000000  0.23545800  0.28382400  1
  Er  Er12  1  0.50000000  0.76454200  0.28382400  1
  Er  Er13  1  0.26454200  0.00000000  0.21617600  1
  Er  Er14  1  0.73545800  0.00000000  0.21617600  1
  Er  Er15  1  0.50000000  0.26454200  0.96617600  1
  Er  Er16  1  0.67241150  0.17241150  0.75000000  1
  Er  Er17  1  0.82758850  0.17241150  0.00000000  1
  Er  Er18  1  0.17241150  0.82758850  0.00000000  1
  Er  Er19  1  0.32758850  0.82758850  0.75000000  1
  Er  Er20  1  0.82758850  0.82758850  0.00000000  1
  Er  Er21  1  0.67241150  0.82758850  0.75000000  1
  Er  Er22  1  0.32758850  0.17241150  0.75000000  1
  Er  Er23  1  0.67241150  0.67241150  0.50000000  1
  Er  Er24  1  0.76454200  0.00000000  0.53382400  1
  Er  Er25  1  0.73545800  0.50000000  0.03382400  1
  Er  Er26  1  0.50000000  0.73545800  0.96617600  1
  Er  Er27  1  0.00000000  0.73545800  0.78382400  1
  Er  Er28  1  0.00000000  0.26454200  0.78382400  1
  Er  Er29  1  0.76454200  0.50000000  0.71617600  1
  Er  Er30  1  0.23545800  0.50000000  0.71617600  1
  Er  Er31  1  0.00000000  0.76454200  0.46617600  1
  Si  Si32  1  0.12520100  0.00000000  0.77944500  1
  Si  Si33  1  0.37479900  0.50000000  0.27944500  1
  Si  Si34  1  0.50000000  0.37479900  0.72055500  1
  Si  Si35  1  0.00000000  0.37479900  0.02944500  1
  Si  Si36  1  0.00000000  0.62520100  0.02944500  1
  Si  Si37  1  0.12520100  0.50000000  0.47055500  1
  Si  Si38  1  0.87479900  0.50000000  0.47055500  1
  Si  Si39  1  0.00000000  0.12520100  0.22055500  1
  Si  Si40  1  0.62520100  0.50000000  0.27944500  1
  Si  Si41  1  0.87479900  0.00000000  0.77944500  1
  Si  Si42  1  0.00000000  0.87479900  0.22055500  1
  Si  Si43  1  0.50000000  0.87479900  0.52944500  1
  Si  Si44  1  0.50000000  0.12520100  0.52944500  1
  Si  Si45  1  0.62520100  0.00000000  0.97055500  1
  Si  Si46  1  0.37479900  0.00000000  0.97055500  1
  Si  Si47  1  0.50000000  0.62520100  0.72055500  1
  S  S48  1  0.00000000  0.00000000  0.00000000  1
  S  S49  1  0.00000000  0.50000000  0.25000000  1
  S  S50  1  0.50000000  0.00000000  0.25000000  1
  S  S51  1  0.00000000  0.00000000  0.50000000  1
  S  S52  1  0.35433700  0.25000000  0.12500000  1
  S  S53  1  0.25000000  0.35433700  0.87500000  1
  S  S54  1  0.25000000  0.14566300  0.37500000  1
  S  S55  1  0.14566300  0.25000000  0.62500000  1
  S  S56  1  0.64566300  0.25000000  0.12500000  1
  S  S57  1  0.25000000  0.64566300  0.87500000  1
  S  S58  1  0.25000000  0.85433700  0.37500000  1
  S  S59  1  0.85433700  0.25000000  0.62500000  1
  S  S60  1  0.50000000  0.50000000  0.50000000  1
  S  S61  1  0.50000000  0.00000000  0.75000000  1
  S  S62  1  0.00000000  0.50000000  0.75000000  1
  S  S63  1  0.50000000  0.50000000  0.00000000  1
  S  S64  1  0.85433700  0.75000000  0.62500000  1
  S  S65  1  0.75000000  0.85433700  0.37500000  1
  S  S66  1  0.75000000  0.64566300  0.87500000  1
  S  S67  1  0.64566300  0.75000000  0.12500000  1
  S  S68  1  0.14566300  0.75000000  0.62500000  1
  S  S69  1  0.75000000  0.14566300  0.37500000  1
  S  S70  1  0.75000000  0.35433700  0.87500000  1
  S  S71  1  0.35433700  0.75000000  0.12500000  1
  O  O72  1  0.00000000  0.00000000  0.27488800  1
  O  O73  1  0.50000000  0.00000000  0.02488800  1
  O  O74  1  0.50000000  0.00000000  0.47511200  1
  O  O75  1  0.00000000  0.00000000  0.72511200  1
  O  O76  1  0.26627800  0.50000000  0.20103300  1
  O  O77  1  0.23372200  0.00000000  0.70103300  1
  O  O78  1  0.00000000  0.23372200  0.29896700  1
  O  O79  1  0.50000000  0.23372200  0.45103300  1
  O  O80  1  0.50000000  0.76627800  0.45103300  1
  O  O81  1  0.26627800  0.00000000  0.04896700  1
  O  O82  1  0.73372200  0.00000000  0.04896700  1
  O  O83  1  0.50000000  0.26627800  0.79896700  1
  O  O84  1  0.14141600  0.37560800  0.41614500  1
  O  O85  1  0.35858400  0.12439200  0.91614500  1
  O  O86  1  0.12439200  0.35858400  0.08385500  1
  O  O87  1  0.37560800  0.35858400  0.66614500  1
  O  O88  1  0.12439200  0.14141600  0.16614500  1
  O  O89  1  0.14141600  0.12439200  0.83385500  1
  O  O90  1  0.35858400  0.37560800  0.33385500  1
  O  O91  1  0.37560800  0.14141600  0.58385500  1
  O  O92  1  0.35858400  0.62439200  0.33385500  1
  O  O93  1  0.14141600  0.87560800  0.83385500  1
  O  O94  1  0.87560800  0.14141600  0.16614500  1
  O  O95  1  0.12439200  0.64141600  0.08385500  1
  O  O96  1  0.37560800  0.85858400  0.58385500  1
  O  O97  1  0.85858400  0.37560800  0.41614500  1
  O  O98  1  0.64141600  0.12439200  0.91614500  1
  O  O99  1  0.62439200  0.35858400  0.66614500  1
  O  O100  1  0.50000000  0.50000000  0.77488800  1
  O  O101  1  0.00000000  0.50000000  0.52488800  1
  O  O102  1  0.00000000  0.50000000  0.97511200  1
  O  O103  1  0.50000000  0.50000000  0.22511200  1
  O  O104  1  0.76627800  0.00000000  0.70103300  1
  O  O105  1  0.73372200  0.50000000  0.20103300  1
  O  O106  1  0.50000000  0.73372200  0.79896700  1
  O  O107  1  0.00000000  0.73372200  0.95103300  1
  O  O108  1  0.00000000  0.26627800  0.95103300  1
  O  O109  1  0.76627800  0.50000000  0.54896700  1
  O  O110  1  0.23372200  0.50000000  0.54896700  1
  O  O111  1  0.00000000  0.76627800  0.29896700  1
  O  O112  1  0.64141600  0.87560800  0.91614500  1
  O  O113  1  0.85858400  0.62439200  0.41614500  1
  O  O114  1  0.62439200  0.85858400  0.58385500  1
  O  O115  1  0.87560800  0.85858400  0.16614500  1
  O  O116  1  0.62439200  0.64141600  0.66614500  1
  O  O117  1  0.64141600  0.62439200  0.33385500  1
  O  O118  1  0.85858400  0.87560800  0.83385500  1
  O  O119  1  0.87560800  0.64141600  0.08385500  1
  O  O120  1  0.85858400  0.12439200  0.83385500  1
  O  O121  1  0.64141600  0.37560800  0.33385500  1
  O  O122  1  0.37560800  0.64141600  0.66614500  1
  O  O123  1  0.62439200  0.14141600  0.58385500  1
  O  O124  1  0.87560800  0.35858400  0.08385500  1
  O  O125  1  0.35858400  0.87560800  0.91614500  1
  O  O126  1  0.14141600  0.62439200  0.41614500  1
  O  O127  1  0.12439200  0.85858400  0.16614500  1
