# generated using pymatgen
data_Tl8(CdN14)3
_symmetry_space_group_name_H-M   'P 1'
_cell_length_a   8.71037400
_cell_length_b   10.67920364
_cell_length_c   11.85925809
_cell_angle_alpha   100.27349044
_cell_angle_beta   107.49532594
_cell_angle_gamma   113.43165275
_symmetry_Int_Tables_number   1
_chemical_formula_structural   Tl8(CdN14)3
_chemical_formula_sum   'Tl8 Cd3 N42'
_cell_volume   907.69880870
_cell_formula_units_Z   1
loop_
 _symmetry_equiv_pos_site_id
 _symmetry_equiv_pos_as_xyz
  1  'x, y, z'
loop_
 _atom_site_type_symbol
 _atom_site_label
 _atom_site_symmetry_multiplicity
 _atom_site_fract_x
 _atom_site_fract_y
 _atom_site_fract_z
 _atom_site_occupancy
  Tl  Tl0  1  0.49511400  0.76277900  0.81943800  1
  Tl  Tl1  1  0.24049200  0.49806000  0.48915700  1
  Tl  Tl2  1  0.02966500  0.79732500  0.84793500  1
  Tl  Tl3  1  0.75950800  0.50194000  0.51084300  1
  Tl  Tl4  1  0.15034000  0.14433800  0.68402600  1
  Tl  Tl5  1  0.50488600  0.23722100  0.18056200  1
  Tl  Tl6  1  0.84966000  0.85566200  0.31597400  1
  Tl  Tl7  1  0.97033500  0.20267500  0.15206500  1
  Cd  Cd8  1  0.19784100  0.64027500  0.13604100  1
  Cd  Cd9  1  0.80215900  0.35972500  0.86395900  1
  Cd  Cd10  1  0.50000000  0.00000000  0.50000000  1
  N  N11  1  0.32934600  0.19442100  0.45130000  1
  N  N12  1  0.89789100  0.59875600  0.99963900  1
  N  N13  1  0.93009500  0.53098400  0.26146300  1
  N  N14  1  0.52927300  0.12778400  0.92195200  1
  N  N15  1  0.05579100  0.51463600  0.25422200  1
  N  N16  1  0.52117700  0.34895400  0.74761200  1
  N  N17  1  0.79406800  0.64203800  0.01375800  1
  N  N18  1  0.20593200  0.35796200  0.98624200  1
  N  N19  1  0.15306600  0.72566400  0.61816800  1
  N  N20  1  0.40451100  0.43656900  0.30553400  1
  N  N21  1  0.27317300  0.86695900  0.27616900  1
  N  N22  1  0.46987000  0.19760700  0.45577200  1
  N  N23  1  0.55840100  0.45723500  0.72209900  1
  N  N24  1  0.30440200  0.31258300  0.97407200  1
  N  N25  1  0.10210900  0.40124400  0.00036100  1
  N  N26  1  0.32096100  0.76967100  0.01438900  1
  N  N27  1  0.47072700  0.87221600  0.07804800  1
  N  N28  1  0.06990500  0.46901600  0.73853700  1
  N  N29  1  0.80974700  0.80856000  0.55459600  1
  N  N30  1  0.75533300  0.06636500  0.44384400  1
  N  N31  1  0.94420900  0.48536400  0.74577800  1
  N  N32  1  0.61688800  0.97334800  0.13688900  1
  N  N33  1  0.19025300  0.19144000  0.44540400  1
  N  N34  1  0.19358500  0.45521600  0.72955100  1
  N  N35  1  0.19959700  0.82893000  0.58671100  1
  N  N36  1  0.15330000  0.98549900  0.15179700  1
  N  N37  1  0.24466700  0.93363500  0.55615600  1
  N  N38  1  0.44159900  0.54276500  0.27790100  1
  N  N39  1  0.59548900  0.56343100  0.69446600  1
  N  N40  1  0.53013000  0.80239300  0.54422800  1
  N  N41  1  0.47882300  0.65104600  0.25238800  1
  N  N42  1  0.72682700  0.13304100  0.72383100  1
  N  N43  1  0.80641500  0.54478400  0.27044900  1
  N  N44  1  0.38311200  0.02665200  0.86311100  1
  N  N45  1  0.84670000  0.01450100  0.84820300  1
  N  N46  1  0.67903900  0.23032900  0.98561100  1
  N  N47  1  0.67065400  0.80557900  0.54870000  1
  N  N48  1  0.80040300  0.17107000  0.41328900  1
  N  N49  1  0.84693400  0.27433600  0.38183200  1
  N  N50  1  0.69559800  0.68741700  0.02592800  1
  N  N51  1  0.78637200  0.07133900  0.78548500  1
  N  N52  1  0.21362800  0.92866100  0.21451500  1
