# generated using pymatgen
data_K4PH5Se3O16
_symmetry_space_group_name_H-M   'P 1'
_cell_length_a   7.78463500
_cell_length_b   7.84754464
_cell_length_c   15.18190280
_cell_angle_alpha   87.97994267
_cell_angle_beta   86.01129648
_cell_angle_gamma   71.06925501
_symmetry_Int_Tables_number   1
_chemical_formula_structural   K4PH5Se3O16
_chemical_formula_sum   'K8 P2 H10 Se6 O32'
_cell_volume   875.09713001
_cell_formula_units_Z   2
loop_
 _symmetry_equiv_pos_site_id
 _symmetry_equiv_pos_as_xyz
  1  'x, y, z'
loop_
 _atom_site_type_symbol
 _atom_site_label
 _atom_site_symmetry_multiplicity
 _atom_site_fract_x
 _atom_site_fract_y
 _atom_site_fract_z
 _atom_site_occupancy
  K  K0  1  0.73969400  0.22061100  0.01434300  1
  K  K1  1  0.80607400  0.66852800  0.16821200  1
  K  K2  1  0.18877600  0.33706500  0.32977800  1
  K  K3  1  0.25860400  0.77974300  0.48238800  1
  K  K4  1  0.74139600  0.22025700  0.51761200  1
  K  K5  1  0.81122400  0.66293500  0.67022200  1
  K  K6  1  0.19392600  0.33147200  0.83178800  1
  K  K7  1  0.26030600  0.77938900  0.98565700  1
  P  P8  1  0.27592900  0.80887800  0.23138300  1
  P  P9  1  0.72407100  0.19112200  0.76861700  1
  H  H10  1  0.42600900  0.02297200  0.13014100  1
  H  H11  1  0.99248900  0.91816300  0.18284600  1
  H  H12  1  0.46968600  0.53096700  0.25223600  1
  H  H13  1  0.06565600  0.03516600  0.31302900  1
  H  H14  1  0.57088700  0.97166100  0.37161700  1
  H  H15  1  0.42911300  0.02833900  0.62838300  1
  H  H16  1  0.93434400  0.96483400  0.68697100  1
  H  H17  1  0.53031400  0.46903300  0.74776400  1
  H  H18  1  0.00751100  0.08183700  0.81715400  1
  H  H19  1  0.57399100  0.97702800  0.86985900  1
  Se  Se20  1  0.21850400  0.27508600  0.06498700  1
  Se  Se21  1  0.72405400  0.19935400  0.26623400  1
  Se  Se22  1  0.78207100  0.72260300  0.43607700  1
  Se  Se23  1  0.21792900  0.27739700  0.56392300  1
  Se  Se24  1  0.27594600  0.80064600  0.73376600  1
  Se  Se25  1  0.78149600  0.72491400  0.93501300  1
  O  O26  1  0.13471700  0.15118200  0.00475100  1
  O  O27  1  0.27212200  0.43182900  0.00435300  1
  O  O28  1  0.43541800  0.13833100  0.09747300  1
  O  O29  1  0.09118100  0.34734600  0.15637900  1
  O  O30  1  0.11338000  0.81134800  0.17407900  1
  O  O31  1  0.42863100  0.84501100  0.17500600  1
  O  O32  1  0.79992900  0.04427500  0.18677500  1
  O  O33  1  0.64836700  0.40332500  0.21732600  1
  O  O34  1  0.34373800  0.61693300  0.27641300  1
  O  O35  1  0.19875000  0.94379400  0.30958800  1
  O  O36  1  0.55441100  0.16500000  0.33021900  1
  O  O37  1  0.89439900  0.18665500  0.33134700  1
  O  O38  1  0.90820000  0.65267100  0.34391500  1
  O  O39  1  0.56313000  0.85699000  0.40379100  1
  O  O40  1  0.13550400  0.15164200  0.50454200  1
  O  O41  1  0.27064300  0.43407200  0.50324300  1
  O  O42  1  0.72935700  0.56592800  0.49675700  1
  O  O43  1  0.86449600  0.84835800  0.49545800  1
  O  O44  1  0.43687000  0.14301000  0.59620900  1
  O  O45  1  0.09180000  0.34732900  0.65608500  1
  O  O46  1  0.10560100  0.81334500  0.66865300  1
  O  O47  1  0.44558900  0.83500000  0.66978100  1
  O  O48  1  0.80125000  0.05620600  0.69041200  1
  O  O49  1  0.65626200  0.38306700  0.72358700  1
  O  O50  1  0.35163300  0.59667500  0.78267400  1
  O  O51  1  0.20007100  0.95572500  0.81322500  1
  O  O52  1  0.57136900  0.15498900  0.82499400  1
  O  O53  1  0.88662000  0.18865200  0.82592100  1
  O  O54  1  0.90881900  0.65265400  0.84362100  1
  O  O55  1  0.56458200  0.86166900  0.90252700  1
  O  O56  1  0.72787800  0.56817100  0.99564700  1
  O  O57  1  0.86528300  0.84881800  0.99524900  1
