# generated using pymatgen
data_SiO2
_symmetry_space_group_name_H-M   'P 1'
_cell_length_a   25.32451600
_cell_length_b   8.63672400
_cell_length_c   16.94002090
_cell_angle_alpha   90.00000000
_cell_angle_beta   120.18567632
_cell_angle_gamma   90.00000000
_symmetry_Int_Tables_number   1
_chemical_formula_structural   SiO2
_chemical_formula_sum   'Si56 O112'
_cell_volume   3202.72138893
_cell_formula_units_Z   56
loop_
 _symmetry_equiv_pos_site_id
 _symmetry_equiv_pos_as_xyz
  1  'x, y, z'
loop_
 _atom_site_type_symbol
 _atom_site_label
 _atom_site_symmetry_multiplicity
 _atom_site_fract_x
 _atom_site_fract_y
 _atom_site_fract_z
 _atom_site_occupancy
  Si  Si0  1  0.05703000  0.18458600  0.21327000  1
  Si  Si1  1  0.37469100  0.18432500  0.88750200  1
  Si  Si2  1  0.92502100  0.31588300  0.09814000  1
  Si  Si3  1  0.76146800  0.68253300  0.22052400  1
  Si  Si4  1  0.84342250  0.31401950  0.59809300  1
  Si  Si5  1  0.62530900  0.81567500  0.11249800  1
  Si  Si6  1  0.84342250  0.68598050  0.59809300  1
  Si  Si7  1  0.23853200  0.68253300  0.77947600  1
  Si  Si8  1  0.21951700  0.18477800  0.59787700  1
  Si  Si9  1  0.94297000  0.81541400  0.78673000  1
  Si  Si10  1  0.23853200  0.31746700  0.77947600  1
  Si  Si11  1  0.21951700  0.81522200  0.59787700  1
  Si  Si12  1  0.62530900  0.18432500  0.11249800  1
  Si  Si13  1  0.05703000  0.81541400  0.21327000  1
  Si  Si14  1  0.15657750  0.31401950  0.40190700  1
  Si  Si15  1  0.78048300  0.81522200  0.40212300  1
  Si  Si16  1  0.37469100  0.81567500  0.88750200  1
  Si  Si17  1  0.19308700  0.18426300  0.90605000  1
  Si  Si18  1  0.07497900  0.31588300  0.90186000  1
  Si  Si19  1  0.07497900  0.68411700  0.90186000  1
  Si  Si20  1  0.78048300  0.18477800  0.40212300  1
  Si  Si21  1  0.80691300  0.18426300  0.09395000  1
  Si  Si22  1  0.94297000  0.18458600  0.78673000  1
  Si  Si23  1  0.19308700  0.81573700  0.90605000  1
  Si  Si24  1  0.92502100  0.68411700  0.09814000  1
  Si  Si25  1  0.80691300  0.81573700  0.09395000  1
  Si  Si26  1  0.15657750  0.68598050  0.40190700  1
  Si  Si27  1  0.76146800  0.31746700  0.22052400  1
  Si  Si28  1  0.55703000  0.68458600  0.21327000  1
  Si  Si29  1  0.87469100  0.68432500  0.88750200  1
  Si  Si30  1  0.42502100  0.81588300  0.09814000  1
  Si  Si31  1  0.26146800  0.18253300  0.22052400  1
  Si  Si32  1  0.34342250  0.81401950  0.59809300  1
  Si  Si33  1  0.12530900  0.31567500  0.11249800  1
  Si  Si34  1  0.34342250  0.18598050  0.59809300  1
  Si  Si35  1  0.73853200  0.18253300  0.77947600  1
  Si  Si36  1  0.71951700  0.68477800  0.59787700  1
  Si  Si37  1  0.44297000  0.31541400  0.78673000  1
  Si  Si38  1  0.73853200  0.81746700  0.77947600  1
  Si  Si39  1  0.71951700  0.31522200  0.59787700  1
  Si  Si40  1  0.12530900  0.68432500  0.11249800  1
  Si  Si41  1  0.55703000  0.31541400  0.21327000  1
  Si  Si42  1  0.65657750  0.81401950  0.40190700  1
  Si  Si43  1  0.28048300  0.31522200  0.40212300  1
  Si  Si44  1  0.87469100  0.31567500  0.88750200  1
  Si  Si45  1  0.69308700  0.68426300  0.90605000  1
  Si  Si46  1  0.57497900  0.81588300  0.90186000  1
  Si  Si47  1  0.57497900  0.18411700  0.90186000  1
  Si  Si48  1  0.28048300  0.68477800  0.40212300  1
  Si  Si49  1  0.30691300  0.68426300  0.09395000  1
  Si  Si50  1  0.44297000  0.68458600  0.78673000  1
  Si  Si51  1  0.69308700  0.31573700  0.90605000  1
  Si  Si52  1  0.42502100  0.18411700  0.09814000  1
  Si  Si53  1  0.30691300  0.31573700  0.09395000  1
  Si  Si54  1  0.65657750  0.18598050  0.40190700  1
  Si  Si55  1  0.26146800  0.81746700  0.22052400  1
  O  O56  1  0.79196050  0.72350850  0.32851000  1
  O  O57  1  0.16683600  0.76512600  0.49570500  1
  O  O58  1  0.71299200  0.76882900  0.38539700  1
  O  O59  1  0.15267500  0.50000000  0.40992900  1
  O  O60  1  0.59117800  0.76973300  0.00497000  1
  O  O61  1  0.21599600  0.00000000  0.61120100  1
  O  O62  1  0.09330400  0.75106200  0.31762000  1
  O  O63  1  0.20803950  0.27649150  0.67149000  1
  O  O64  1  0.90669600  0.24893800  0.68238000  1
  O  O65  1  0.13127750  0.72711050  0.88621000  1
  O  O66  1  0.86872250  0.72711050  0.11379000  1
  O  O67  1  0.06829200  0.00000000  0.21311800  1
  O  O68  1  0.79534300  0.78509400  0.17864400  1
  O  O69  1  0.41911900  0.22782600  0.84787300  1
  O  O70  1  0.01520350  0.78055850  0.82916700  1
  O  O71  1  0.31126650  0.27973150  0.83269800  1
  O  O72  1  0.78400400  0.00000000  0.38879900  1
  O  O73  1  0.20803950  0.72350850  0.67149000  1
  O  O74  1  0.16683600  0.23487400  0.49570500  1
  O  O75  1  0.13127750  0.27288950  0.88621000  1
  O  O76  1  0.64040600  0.00000000  0.12558000  1
  O  O77  1  0.71299200  0.23117100  0.38539700  1
  O  O78  1  0.86872250  0.27288950  0.11379000  1
  O  O79  1  0.98479650  0.78055850  0.17083300  1
  O  O80  1  0.79534300  0.21490600  0.17864400  1
  O  O81  1  0.58088100  0.22782600  0.15212700  1
  O  O82  1  0.58088100  0.77217400  0.15212700  1
  O  O83  1  0.84732500  0.50000000  0.59007100  1
  O  O84  1  0.06097000  0.50000000  0.88491600  1
  O  O85  1  0.01520350  0.21944150  0.82916700  1
  O  O86  1  0.93903000  0.50000000  0.11508400  1
  O  O87  1  0.83316400  0.76512600  0.50429500  1
  O  O88  1  0.77108500  0.50000000  0.20850000  1
  O  O89  1  0.68873350  0.72026850  0.16730200  1
  O  O90  1  0.40882200  0.76973300  0.99503000  1
  O  O91  1  0.31126650  0.72026850  0.83269800  1
  O  O92  1  0.18570600  0.00000000  0.91592800  1
  O  O93  1  0.93170800  0.00000000  0.78688200  1
  O  O94  1  0.81429400  0.00000000  0.08407200  1
  O  O95  1  0.75000000  0.25000000  0.00000000  1
  O  O96  1  0.79196050  0.27649150  0.32851000  1
  O  O97  1  0.90669600  0.75106200  0.68238000  1
  O  O98  1  0.20465700  0.21490600  0.82135600  1
  O  O99  1  0.20465700  0.78509400  0.82135600  1
  O  O100  1  0.35959400  0.00000000  0.87442000  1
  O  O101  1  0.22891500  0.50000000  0.79150000  1
  O  O102  1  0.28700800  0.23117100  0.61460300  1
  O  O103  1  0.40882200  0.23026700  0.99503000  1
  O  O104  1  0.75000000  0.75000000  0.00000000  1
  O  O105  1  0.59117800  0.23026700  0.00497000  1
  O  O106  1  0.83316400  0.23487400  0.50429500  1
  O  O107  1  0.41911900  0.77217400  0.84787300  1
  O  O108  1  0.98479650  0.21944150  0.17083300  1
  O  O109  1  0.09330400  0.24893800  0.31762000  1
  O  O110  1  0.68873350  0.27973150  0.16730200  1
  O  O111  1  0.28700800  0.76882900  0.61460300  1
  O  O112  1  0.29196050  0.22350850  0.32851000  1
  O  O113  1  0.66683600  0.26512600  0.49570500  1
  O  O114  1  0.21299200  0.26882900  0.38539700  1
  O  O115  1  0.65267500  0.00000000  0.40992900  1
  O  O116  1  0.09117800  0.26973300  0.00497000  1
  O  O117  1  0.71599600  0.50000000  0.61120100  1
  O  O118  1  0.59330400  0.25106200  0.31762000  1
  O  O119  1  0.70803950  0.77649150  0.67149000  1
  O  O120  1  0.40669600  0.74893800  0.68238000  1
  O  O121  1  0.63127750  0.22711050  0.88621000  1
  O  O122  1  0.36872250  0.22711050  0.11379000  1
  O  O123  1  0.56829200  0.50000000  0.21311800  1
  O  O124  1  0.29534300  0.28509400  0.17864400  1
  O  O125  1  0.91911900  0.72782600  0.84787300  1
  O  O126  1  0.51520350  0.28055850  0.82916700  1
  O  O127  1  0.81126650  0.77973150  0.83269800  1
  O  O128  1  0.28400400  0.50000000  0.38879900  1
  O  O129  1  0.70803950  0.22350850  0.67149000  1
  O  O130  1  0.66683600  0.73487400  0.49570500  1
  O  O131  1  0.63127750  0.77288950  0.88621000  1
  O  O132  1  0.14040600  0.50000000  0.12558000  1
  O  O133  1  0.21299200  0.73117100  0.38539700  1
  O  O134  1  0.36872250  0.77288950  0.11379000  1
  O  O135  1  0.48479650  0.28055850  0.17083300  1
  O  O136  1  0.29534300  0.71490600  0.17864400  1
  O  O137  1  0.08088100  0.72782600  0.15212700  1
  O  O138  1  0.08088100  0.27217400  0.15212700  1
  O  O139  1  0.34732500  0.00000000  0.59007100  1
  O  O140  1  0.56097000  0.00000000  0.88491600  1
  O  O141  1  0.51520350  0.71944150  0.82916700  1
  O  O142  1  0.43903000  0.00000000  0.11508400  1
  O  O143  1  0.33316400  0.26512600  0.50429500  1
  O  O144  1  0.27108500  0.00000000  0.20850000  1
  O  O145  1  0.18873350  0.22026850  0.16730200  1
  O  O146  1  0.90882200  0.26973300  0.99503000  1
  O  O147  1  0.81126650  0.22026850  0.83269800  1
  O  O148  1  0.68570600  0.50000000  0.91592800  1
  O  O149  1  0.43170800  0.50000000  0.78688200  1
  O  O150  1  0.31429400  0.50000000  0.08407200  1
  O  O151  1  0.25000000  0.75000000  0.00000000  1
  O  O152  1  0.29196050  0.77649150  0.32851000  1
  O  O153  1  0.40669600  0.25106200  0.68238000  1
  O  O154  1  0.70465700  0.71490600  0.82135600  1
  O  O155  1  0.70465700  0.28509400  0.82135600  1
  O  O156  1  0.85959400  0.50000000  0.87442000  1
  O  O157  1  0.72891500  0.00000000  0.79150000  1
  O  O158  1  0.78700800  0.73117100  0.61460300  1
  O  O159  1  0.90882200  0.73026700  0.99503000  1
  O  O160  1  0.25000000  0.25000000  0.00000000  1
  O  O161  1  0.09117800  0.73026700  0.00497000  1
  O  O162  1  0.33316400  0.73487400  0.50429500  1
  O  O163  1  0.91911900  0.27217400  0.84787300  1
  O  O164  1  0.48479650  0.71944150  0.17083300  1
  O  O165  1  0.59330400  0.74893800  0.31762000  1
  O  O166  1  0.18873350  0.77973150  0.16730200  1
  O  O167  1  0.78700800  0.26882900  0.61460300  1
