# generated using pymatgen
data_LiGd(PO3)4
_symmetry_space_group_name_H-M   'P 1'
_cell_length_a   16.55378600
_cell_length_b   7.15567200
_cell_length_c   9.79258010
_cell_angle_alpha   90.00000000
_cell_angle_beta   126.21172285
_cell_angle_gamma   90.00000000
_symmetry_Int_Tables_number   1
_chemical_formula_structural   LiGd(PO3)4
_chemical_formula_sum   'Li4 Gd4 P16 O48'
_cell_volume   935.90554910
_cell_formula_units_Z   4
loop_
 _symmetry_equiv_pos_site_id
 _symmetry_equiv_pos_as_xyz
  1  'x, y, z'
loop_
 _atom_site_type_symbol
 _atom_site_label
 _atom_site_symmetry_multiplicity
 _atom_site_fract_x
 _atom_site_fract_y
 _atom_site_fract_z
 _atom_site_occupancy
  Li  Li0  1  0.00000000  0.79498900  0.75000000  1
  Li  Li1  1  0.00000000  0.20501100  0.25000000  1
  Li  Li2  1  0.50000000  0.29498900  0.75000000  1
  Li  Li3  1  0.50000000  0.70501100  0.25000000  1
  Gd  Gd4  1  0.00000000  0.29735300  0.75000000  1
  Gd  Gd5  1  0.00000000  0.70264700  0.25000000  1
  Gd  Gd6  1  0.50000000  0.79735300  0.75000000  1
  Gd  Gd7  1  0.50000000  0.20264700  0.25000000  1
  P  P8  1  0.85368150  0.34700150  0.30461100  1
  P  P9  1  0.64631850  0.84700150  0.19538900  1
  P  P10  1  0.14631850  0.65299850  0.69538900  1
  P  P11  1  0.35368150  0.15299850  0.80461100  1
  P  P12  1  0.13761600  0.05304900  0.61549100  1
  P  P13  1  0.36238400  0.55304900  0.88450900  1
  P  P14  1  0.86238400  0.94695100  0.38450900  1
  P  P15  1  0.63761600  0.44695100  0.11549100  1
  P  P16  1  0.35368150  0.84700150  0.30461100  1
  P  P17  1  0.14631850  0.34700150  0.19538900  1
  P  P18  1  0.64631850  0.15299850  0.69538900  1
  P  P19  1  0.85368150  0.65299850  0.80461100  1
  P  P20  1  0.63761600  0.55304900  0.61549100  1
  P  P21  1  0.86238400  0.05304900  0.88450900  1
  P  P22  1  0.36238400  0.44695100  0.38450900  1
  P  P23  1  0.13761600  0.94695100  0.11549100  1
  O  O24  1  0.87403450  0.38402050  0.47294000  1
  O  O25  1  0.62596550  0.88402050  0.02706000  1
  O  O26  1  0.12596550  0.61597950  0.52706000  1
  O  O27  1  0.37403450  0.11597950  0.97294000  1
  O  O28  1  0.92689100  0.41199200  0.27120600  1
  O  O29  1  0.07310900  0.41199200  0.22879400  1
  O  O30  1  0.07310900  0.58800800  0.72879400  1
  O  O31  1  0.92689100  0.58800800  0.77120600  1
  O  O32  1  0.61234250  0.28688550  0.18292700  1
  O  O33  1  0.88765750  0.78688550  0.31707300  1
  O  O34  1  0.38765750  0.71311450  0.81707300  1
  O  O35  1  0.11234250  0.21311450  0.68292700  1
  O  O36  1  0.34309000  0.37561200  0.76825900  1
  O  O37  1  0.15691000  0.87561200  0.73174100  1
  O  O38  1  0.65691000  0.62438800  0.23174100  1
  O  O39  1  0.84309000  0.12438800  0.26825900  1
  O  O40  1  0.74502700  0.41790000  0.15081700  1
  O  O41  1  0.75497300  0.91790000  0.34918300  1
  O  O42  1  0.25497300  0.58210000  0.84918300  1
  O  O43  1  0.24502700  0.08210000  0.65081700  1
  O  O44  1  0.93302100  0.00573900  0.07044400  1
  O  O45  1  0.06697900  0.00573900  0.42955600  1
  O  O46  1  0.06697900  0.99426100  0.92955600  1
  O  O47  1  0.93302100  0.99426100  0.57044400  1
  O  O48  1  0.37403450  0.88402050  0.47294000  1
  O  O49  1  0.12596550  0.38402050  0.02706000  1
  O  O50  1  0.62596550  0.11597950  0.52706000  1
  O  O51  1  0.87403450  0.61597950  0.97294000  1
  O  O52  1  0.42689100  0.91199200  0.27120600  1
  O  O53  1  0.57310900  0.91199200  0.22879400  1
  O  O54  1  0.57310900  0.08800800  0.72879400  1
  O  O55  1  0.42689100  0.08800800  0.77120600  1
  O  O56  1  0.11234250  0.78688550  0.18292700  1
  O  O57  1  0.38765750  0.28688550  0.31707300  1
  O  O58  1  0.88765750  0.21311450  0.81707300  1
  O  O59  1  0.61234250  0.71311450  0.68292700  1
  O  O60  1  0.84309000  0.87561200  0.76825900  1
  O  O61  1  0.65691000  0.37561200  0.73174100  1
  O  O62  1  0.15691000  0.12438800  0.23174100  1
  O  O63  1  0.34309000  0.62438800  0.26825900  1
  O  O64  1  0.24502700  0.91790000  0.15081700  1
  O  O65  1  0.25497300  0.41790000  0.34918300  1
  O  O66  1  0.75497300  0.08210000  0.84918300  1
  O  O67  1  0.74502700  0.58210000  0.65081700  1
  O  O68  1  0.43302100  0.50573900  0.07044400  1
  O  O69  1  0.56697900  0.50573900  0.42955600  1
  O  O70  1  0.56697900  0.49426100  0.92955600  1
  O  O71  1  0.43302100  0.49426100  0.57044400  1
