# generated using pymatgen
data_Sr3InRhO6
_symmetry_space_group_name_H-M   'P 1'
_cell_length_a   9.73915724
_cell_length_b   9.73915724
_cell_length_c   11.58616336
_cell_angle_alpha   90.00000000
_cell_angle_beta   90.00000000
_cell_angle_gamma   120.00000000
_symmetry_Int_Tables_number   1
_chemical_formula_structural   Sr3InRhO6
_chemical_formula_sum   'Sr18 In6 Rh6 O36'
_cell_volume   951.72841150
_cell_formula_units_Z   6
loop_
 _symmetry_equiv_pos_site_id
 _symmetry_equiv_pos_as_xyz
  1  'x, y, z'
loop_
 _atom_site_type_symbol
 _atom_site_label
 _atom_site_symmetry_multiplicity
 _atom_site_fract_x
 _atom_site_fract_y
 _atom_site_fract_z
 _atom_site_occupancy
  Sr  Sr0  1  0.66666667  0.70206333  0.58333333  1
  Sr  Sr1  1  0.03539667  0.33333333  0.58333333  1
  Sr  Sr2  1  0.70206333  0.03539667  0.41666667  1
  Sr  Sr3  1  0.96460333  0.66666667  0.41666667  1
  Sr  Sr4  1  0.33333333  0.29793667  0.41666667  1
  Sr  Sr5  1  0.29793667  0.96460333  0.58333333  1
  Sr  Sr6  1  0.33333333  0.03539667  0.91666667  1
  Sr  Sr7  1  0.70206333  0.66666667  0.91666667  1
  Sr  Sr8  1  0.36873000  0.36873000  0.75000000  1
  Sr  Sr9  1  0.63127000  0.00000000  0.75000000  1
  Sr  Sr10  1  0.00000000  0.63127000  0.75000000  1
  Sr  Sr11  1  0.96460333  0.29793667  0.91666667  1
  Sr  Sr12  1  0.00000000  0.36873000  0.25000000  1
  Sr  Sr13  1  0.36873000  0.00000000  0.25000000  1
  Sr  Sr14  1  0.03539667  0.70206333  0.08333333  1
  Sr  Sr15  1  0.29793667  0.33333333  0.08333333  1
  Sr  Sr16  1  0.66666667  0.96460333  0.08333333  1
  Sr  Sr17  1  0.63127000  0.63127000  0.25000000  1
  In  In18  1  0.00000000  0.00000000  0.25000000  1
  In  In19  1  0.00000000  0.00000000  0.75000000  1
  In  In20  1  0.66666667  0.33333333  0.58333333  1
  In  In21  1  0.66666667  0.33333333  0.08333333  1
  In  In22  1  0.33333333  0.66666667  0.91666667  1
  In  In23  1  0.33333333  0.66666667  0.41666667  1
  Rh  Rh24  1  0.00000000  0.00000000  0.50000000  1
  Rh  Rh25  1  0.00000000  0.00000000  0.00000000  1
  Rh  Rh26  1  0.66666667  0.33333333  0.83333333  1
  Rh  Rh27  1  0.66666667  0.33333333  0.33333333  1
  Rh  Rh28  1  0.33333333  0.66666667  0.16666667  1
  Rh  Rh29  1  0.33333333  0.66666667  0.66666667  1
  O  O30  1  0.48823767  0.84180633  0.55198733  1
  O  O31  1  0.64643133  0.48823767  0.44801267  1
  O  O32  1  0.97976467  0.82486033  0.61467933  1
  O  O33  1  0.84509567  0.02023533  0.61467933  1
  O  O34  1  0.17513967  0.15490433  0.61467933  1
  O  O35  1  0.35356867  0.51176233  0.55198733  1
  O  O36  1  0.15490433  0.97976467  0.38532067  1
  O  O37  1  0.51176233  0.15819367  0.44801267  1
  O  O38  1  0.02023533  0.17513967  0.38532067  1
  O  O39  1  0.82486033  0.84509567  0.38532067  1
  O  O40  1  0.15819367  0.64643133  0.55198733  1
  O  O41  1  0.84180633  0.35356867  0.44801267  1
  O  O42  1  0.15490433  0.17513967  0.88532067  1
  O  O43  1  0.31309800  0.82157100  0.78134600  1
  O  O44  1  0.64643133  0.15819367  0.94801267  1
  O  O45  1  0.51176233  0.35356867  0.94801267  1
  O  O46  1  0.84180633  0.48823767  0.94801267  1
  O  O47  1  0.02023533  0.84509567  0.88532067  1
  O  O48  1  0.82157100  0.31309800  0.71865400  1
  O  O49  1  0.17842900  0.49152700  0.78134600  1
  O  O50  1  0.68690200  0.50847300  0.71865400  1
  O  O51  1  0.49152700  0.17842900  0.71865400  1
  O  O52  1  0.82486033  0.97976467  0.88532067  1
  O  O53  1  0.50847300  0.68690200  0.78134600  1
  O  O54  1  0.82157100  0.50847300  0.21865400  1
  O  O55  1  0.97976467  0.15490433  0.11467933  1
  O  O56  1  0.31309800  0.49152700  0.28134600  1
  O  O57  1  0.17842900  0.68690200  0.28134600  1
  O  O58  1  0.50847300  0.82157100  0.28134600  1
  O  O59  1  0.68690200  0.17842900  0.21865400  1
  O  O60  1  0.48823767  0.64643133  0.05198733  1
  O  O61  1  0.84509567  0.82486033  0.11467933  1
  O  O62  1  0.35356867  0.84180633  0.05198733  1
  O  O63  1  0.15819367  0.51176233  0.05198733  1
  O  O64  1  0.49152700  0.31309800  0.21865400  1
  O  O65  1  0.17513967  0.02023533  0.11467933  1
