# generated using pymatgen
data_Sr2B5H2O11
_symmetry_space_group_name_H-M   'P 1'
_cell_length_a   10.27661400
_cell_length_b   8.15807800
_cell_length_c   6.40882017
_cell_angle_alpha   90.00000000
_cell_angle_beta   127.44636254
_cell_angle_gamma   90.00000000
_symmetry_Int_Tables_number   1
_chemical_formula_structural   Sr2B5H2O11
_chemical_formula_sum   'Sr4 B10 H4 O22'
_cell_volume   426.57392405
_cell_formula_units_Z   2
loop_
 _symmetry_equiv_pos_site_id
 _symmetry_equiv_pos_as_xyz
  1  'x, y, z'
loop_
 _atom_site_type_symbol
 _atom_site_label
 _atom_site_symmetry_multiplicity
 _atom_site_fract_x
 _atom_site_fract_y
 _atom_site_fract_z
 _atom_site_occupancy
  Sr  Sr0  1  0.70771550  0.53879050  0.91914600  1
  Sr  Sr1  1  0.29228450  0.53879050  0.08085400  1
  Sr  Sr2  1  0.20771550  0.03879050  0.91914600  1
  Sr  Sr3  1  0.79228450  0.03879050  0.08085400  1
  B  B4  1  0.07466550  0.82566650  0.25565800  1
  B  B5  1  0.92533450  0.82566650  0.74434200  1
  B  B6  1  0.00000000  0.65917900  0.50000000  1
  B  B7  1  0.76779400  0.57381800  0.50722100  1
  B  B8  1  0.23220600  0.57381800  0.49277900  1
  B  B9  1  0.57466550  0.32566650  0.25565800  1
  B  B10  1  0.42533450  0.32566650  0.74434200  1
  B  B11  1  0.50000000  0.15917900  0.50000000  1
  B  B12  1  0.26779400  0.07381800  0.50722100  1
  B  B13  1  0.73220600  0.07381800  0.49277900  1
  H  H14  1  0.03034100  0.32777800  0.28033000  1
  H  H15  1  0.96965900  0.32777800  0.71967000  1
  H  H16  1  0.53034100  0.82777800  0.28033000  1
  H  H17  1  0.46965900  0.82777800  0.71967000  1
  O  O18  1  0.14275200  0.55059400  0.58414200  1
  O  O19  1  0.85724800  0.55059400  0.41585800  1
  O  O20  1  0.64676350  0.46676450  0.45171400  1
  O  O21  1  0.35323650  0.46676450  0.54828600  1
  O  O22  1  0.05189250  0.75192750  0.73484800  1
  O  O23  1  0.94810750  0.75192750  0.26515200  1
  O  O24  1  0.00000000  0.90108600  0.00000000  1
  O  O25  1  0.79693400  0.70259100  0.67160900  1
  O  O26  1  0.20306600  0.70259100  0.32839100  1
  O  O27  1  0.92979300  0.31151800  0.10172100  1
  O  O28  1  0.07020700  0.31151800  0.89827900  1
  O  O29  1  0.64275200  0.05059400  0.58414200  1
  O  O30  1  0.35724800  0.05059400  0.41585800  1
  O  O31  1  0.14676350  0.96676450  0.45171400  1
  O  O32  1  0.85323650  0.96676450  0.54828600  1
  O  O33  1  0.55189250  0.25192750  0.73484800  1
  O  O34  1  0.44810750  0.25192750  0.26515200  1
  O  O35  1  0.50000000  0.40108600  0.00000000  1
  O  O36  1  0.29693400  0.20259100  0.67160900  1
  O  O37  1  0.70306600  0.20259100  0.32839100  1
  O  O38  1  0.42979300  0.81151800  0.10172100  1
  O  O39  1  0.57020700  0.81151800  0.89827900  1
