# generated using pymatgen
data_Li3H4Rh
_symmetry_space_group_name_H-M   'P 1'
_cell_length_a   3.77351600
_cell_length_b   9.01572800
_cell_length_c   8.84649700
_cell_angle_alpha   90.00000000
_cell_angle_beta   90.00000000
_cell_angle_gamma   90.00000000
_symmetry_Int_Tables_number   1
_chemical_formula_structural   Li3H4Rh
_chemical_formula_sum   'Li12 H16 Rh4'
_cell_volume   300.96662012
_cell_formula_units_Z   4
loop_
 _symmetry_equiv_pos_site_id
 _symmetry_equiv_pos_as_xyz
  1  'x, y, z'
loop_
 _atom_site_type_symbol
 _atom_site_label
 _atom_site_symmetry_multiplicity
 _atom_site_fract_x
 _atom_site_fract_y
 _atom_site_fract_z
 _atom_site_occupancy
  Li  Li0  1  0.50000000  0.33460200  0.92963800  1
  Li  Li1  1  0.00000000  0.16539800  0.07036200  1
  Li  Li2  1  0.50000000  0.33460200  0.57036200  1
  Li  Li3  1  0.00000000  0.16539800  0.42963800  1
  Li  Li4  1  0.50000000  0.01243000  0.75000000  1
  Li  Li5  1  0.00000000  0.48757000  0.25000000  1
  Li  Li6  1  0.00000000  0.83460200  0.92963800  1
  Li  Li7  1  0.50000000  0.66539800  0.07036200  1
  Li  Li8  1  0.00000000  0.83460200  0.57036200  1
  Li  Li9  1  0.50000000  0.66539800  0.42963800  1
  Li  Li10  1  0.00000000  0.51243000  0.75000000  1
  Li  Li11  1  0.50000000  0.98757000  0.25000000  1
  H  H12  1  0.00000000  0.06755300  0.62317100  1
  H  H13  1  0.50000000  0.43244700  0.37682900  1
  H  H14  1  0.00000000  0.06755300  0.87682900  1
  H  H15  1  0.50000000  0.43244700  0.12317100  1
  H  H16  1  0.00000000  0.33567600  0.88683700  1
  H  H17  1  0.50000000  0.16432400  0.11316300  1
  H  H18  1  0.00000000  0.33567600  0.61316300  1
  H  H19  1  0.50000000  0.16432400  0.38683700  1
  H  H20  1  0.50000000  0.56755300  0.62317100  1
  H  H21  1  0.00000000  0.93244700  0.37682900  1
  H  H22  1  0.50000000  0.56755300  0.87682900  1
  H  H23  1  0.00000000  0.93244700  0.12317100  1
  H  H24  1  0.50000000  0.83567600  0.88683700  1
  H  H25  1  0.00000000  0.66432400  0.11316300  1
  H  H26  1  0.50000000  0.83567600  0.61316300  1
  H  H27  1  0.00000000  0.66432400  0.38683700  1
  Rh  Rh28  1  0.00000000  0.20583700  0.75000000  1
  Rh  Rh29  1  0.50000000  0.29416300  0.25000000  1
  Rh  Rh30  1  0.50000000  0.70583700  0.75000000  1
  Rh  Rh31  1  0.00000000  0.79416300  0.25000000  1
