# generated using pymatgen
data_Li3Nd3(TeO6)2
_symmetry_space_group_name_H-M   'P 1'
_cell_length_a   12.70770200
_cell_length_b   12.70770200
_cell_length_c   12.70770200
_cell_angle_alpha   90.00000000
_cell_angle_beta   90.00000000
_cell_angle_gamma   90.00000000
_symmetry_Int_Tables_number   1
_chemical_formula_structural   Li3Nd3(TeO6)2
_chemical_formula_sum   'Li24 Nd24 Te16 O96'
_cell_volume   2052.11202732
_cell_formula_units_Z   8
loop_
 _symmetry_equiv_pos_site_id
 _symmetry_equiv_pos_as_xyz
  1  'x, y, z'
loop_
 _atom_site_type_symbol
 _atom_site_label
 _atom_site_symmetry_multiplicity
 _atom_site_fract_x
 _atom_site_fract_y
 _atom_site_fract_z
 _atom_site_occupancy
  Li  Li0  1  0.12500000  0.00000000  0.75000000  1
  Li  Li1  1  0.75000000  0.37500000  0.50000000  1
  Li  Li2  1  0.00000000  0.25000000  0.37500000  1
  Li  Li3  1  0.50000000  0.75000000  0.37500000  1
  Li  Li4  1  0.25000000  0.12500000  0.50000000  1
  Li  Li5  1  0.37500000  0.00000000  0.25000000  1
  Li  Li6  1  0.12500000  0.50000000  0.25000000  1
  Li  Li7  1  0.25000000  0.37500000  0.00000000  1
  Li  Li8  1  0.00000000  0.75000000  0.12500000  1
  Li  Li9  1  0.50000000  0.25000000  0.12500000  1
  Li  Li10  1  0.75000000  0.12500000  0.00000000  1
  Li  Li11  1  0.37500000  0.50000000  0.75000000  1
  Li  Li12  1  0.62500000  0.50000000  0.25000000  1
  Li  Li13  1  0.25000000  0.87500000  0.00000000  1
  Li  Li14  1  0.50000000  0.75000000  0.87500000  1
  Li  Li15  1  0.00000000  0.25000000  0.87500000  1
  Li  Li16  1  0.75000000  0.62500000  0.00000000  1
  Li  Li17  1  0.87500000  0.50000000  0.75000000  1
  Li  Li18  1  0.62500000  0.00000000  0.75000000  1
  Li  Li19  1  0.75000000  0.87500000  0.50000000  1
  Li  Li20  1  0.50000000  0.25000000  0.62500000  1
  Li  Li21  1  0.00000000  0.75000000  0.62500000  1
  Li  Li22  1  0.25000000  0.62500000  0.50000000  1
  Li  Li23  1  0.87500000  0.00000000  0.25000000  1
  Nd  Nd24  1  0.50000000  0.25000000  0.87500000  1
  Nd  Nd25  1  0.25000000  0.37500000  0.50000000  1
  Nd  Nd26  1  0.25000000  0.62500000  0.00000000  1
  Nd  Nd27  1  0.12500000  0.00000000  0.25000000  1
  Nd  Nd28  1  0.50000000  0.25000000  0.37500000  1
  Nd  Nd29  1  0.62500000  0.00000000  0.25000000  1
  Nd  Nd30  1  0.87500000  0.50000000  0.25000000  1
  Nd  Nd31  1  0.00000000  0.25000000  0.12500000  1
  Nd  Nd32  1  0.37500000  0.50000000  0.25000000  1
  Nd  Nd33  1  0.25000000  0.87500000  0.50000000  1
  Nd  Nd34  1  0.25000000  0.12500000  0.00000000  1
  Nd  Nd35  1  0.00000000  0.25000000  0.62500000  1
  Nd  Nd36  1  0.00000000  0.75000000  0.37500000  1
  Nd  Nd37  1  0.75000000  0.87500000  0.00000000  1
  Nd  Nd38  1  0.75000000  0.12500000  0.50000000  1
  Nd  Nd39  1  0.62500000  0.50000000  0.75000000  1
  Nd  Nd40  1  0.00000000  0.75000000  0.87500000  1
  Nd  Nd41  1  0.12500000  0.50000000  0.75000000  1
  Nd  Nd42  1  0.37500000  0.00000000  0.75000000  1
  Nd  Nd43  1  0.50000000  0.75000000  0.62500000  1
  Nd  Nd44  1  0.87500000  0.00000000  0.75000000  1
  Nd  Nd45  1  0.75000000  0.37500000  0.00000000  1
  Nd  Nd46  1  0.75000000  0.62500000  0.50000000  1
  Nd  Nd47  1  0.50000000  0.75000000  0.12500000  1
  Te  Te48  1  0.00000000  0.00000000  0.50000000  1
  Te  Te49  1  0.75000000  0.25000000  0.25000000  1
  Te  Te50  1  0.25000000  0.75000000  0.25000000  1
  Te  Te51  1  0.00000000  0.00000000  0.00000000  1
  Te  Te52  1  0.25000000  0.25000000  0.25000000  1
  Te  Te53  1  0.50000000  0.00000000  0.00000000  1
  Te  Te54  1  0.00000000  0.50000000  0.00000000  1
  Te  Te55  1  0.25000000  0.25000000  0.75000000  1
  Te  Te56  1  0.50000000  0.50000000  0.00000000  1
  Te  Te57  1  0.25000000  0.75000000  0.75000000  1
  Te  Te58  1  0.75000000  0.25000000  0.75000000  1
  Te  Te59  1  0.50000000  0.50000000  0.50000000  1
  Te  Te60  1  0.75000000  0.75000000  0.75000000  1
  Te  Te61  1  0.00000000  0.50000000  0.50000000  1
  Te  Te62  1  0.50000000  0.00000000  0.50000000  1
  Te  Te63  1  0.75000000  0.75000000  0.25000000  1
  O  O64  1  0.60644300  0.79968600  0.27660900  1
  O  O65  1  0.47339100  0.95031400  0.14355700  1
  O  O66  1  0.20031400  0.22339100  0.60644300  1
  O  O67  1  0.54968600  0.35644300  0.02660900  1
  O  O68  1  0.04968600  0.35644300  0.47339100  1
  O  O69  1  0.77660900  0.89355700  0.20031400  1
  O  O70  1  0.70031400  0.22339100  0.89355700  1
  O  O71  1  0.47339100  0.45031400  0.85644300  1
  O  O72  1  0.64355700  0.02660900  0.04968600  1
  O  O73  1  0.29968600  0.22339100  0.39355700  1
  O  O74  1  0.04968600  0.64355700  0.02660900  1
  O  O75  1  0.14355700  0.47339100  0.95031400  1
  O  O76  1  0.47339100  0.04968600  0.35644300  1
  O  O77  1  0.60644300  0.29968600  0.72339100  1
  O  O78  1  0.14355700  0.02660900  0.45031400  1
  O  O79  1  0.45031400  0.35644300  0.52660900  1
  O  O80  1  0.22339100  0.39355700  0.29968600  1
  O  O81  1  0.27660900  0.89355700  0.29968600  1
  O  O82  1  0.97339100  0.04968600  0.14355700  1
  O  O83  1  0.89355700  0.29968600  0.27660900  1
  O  O84  1  0.22339100  0.89355700  0.70031400  1
  O  O85  1  0.29968600  0.72339100  0.60644300  1
  O  O86  1  0.35644300  0.52660900  0.45031400  1
  O  O87  1  0.39355700  0.29968600  0.22339100  1
  O  O88  1  0.10644300  0.20031400  0.27660900  1
  O  O89  1  0.14355700  0.97339100  0.04968600  1
  O  O90  1  0.20031400  0.77660900  0.89355700  1
  O  O91  1  0.27660900  0.60644300  0.79968600  1
  O  O92  1  0.60644300  0.20031400  0.22339100  1
  O  O93  1  0.52660900  0.45031400  0.35644300  1
  O  O94  1  0.22339100  0.60644300  0.20031400  1
  O  O95  1  0.27660900  0.10644300  0.20031400  1
  O  O96  1  0.04968600  0.14355700  0.97339100  1
  O  O97  1  0.35644300  0.47339100  0.04968600  1
  O  O98  1  0.89355700  0.20031400  0.77660900  1
  O  O99  1  0.02660900  0.45031400  0.14355700  1
  O  O100  1  0.35644300  0.02660900  0.54968600  1
  O  O101  1  0.45031400  0.85644300  0.47339100  1
  O  O102  1  0.20031400  0.27660900  0.10644300  1
  O  O103  1  0.85644300  0.47339100  0.45031400  1
  O  O104  1  0.02660900  0.04968600  0.64355700  1
  O  O105  1  0.79968600  0.27660900  0.60644300  1
  O  O106  1  0.72339100  0.60644300  0.29968600  1
  O  O107  1  0.45031400  0.14355700  0.02660900  1
  O  O108  1  0.95031400  0.14355700  0.47339100  1
  O  O109  1  0.29968600  0.27660900  0.89355700  1
  O  O110  1  0.02660900  0.54968600  0.35644300  1
  O  O111  1  0.89355700  0.70031400  0.22339100  1
  O  O112  1  0.10644300  0.29968600  0.77660900  1
  O  O113  1  0.97339100  0.45031400  0.64355700  1
  O  O114  1  0.70031400  0.72339100  0.10644300  1
  O  O115  1  0.04968600  0.85644300  0.52660900  1
  O  O116  1  0.54968600  0.85644300  0.97339100  1
  O  O117  1  0.27660900  0.39355700  0.70031400  1
  O  O118  1  0.20031400  0.72339100  0.39355700  1
  O  O119  1  0.97339100  0.95031400  0.35644300  1
  O  O120  1  0.14355700  0.52660900  0.54968600  1
  O  O121  1  0.79968600  0.72339100  0.89355700  1
  O  O122  1  0.54968600  0.14355700  0.52660900  1
  O  O123  1  0.64355700  0.97339100  0.45031400  1
  O  O124  1  0.97339100  0.54968600  0.85644300  1
  O  O125  1  0.10644300  0.79968600  0.22339100  1
  O  O126  1  0.64355700  0.52660900  0.95031400  1
  O  O127  1  0.95031400  0.85644300  0.02660900  1
  O  O128  1  0.72339100  0.89355700  0.79968600  1
  O  O129  1  0.77660900  0.39355700  0.79968600  1
  O  O130  1  0.47339100  0.54968600  0.64355700  1
  O  O131  1  0.39355700  0.79968600  0.77660900  1
  O  O132  1  0.72339100  0.39355700  0.20031400  1
  O  O133  1  0.79968600  0.22339100  0.10644300  1
  O  O134  1  0.85644300  0.02660900  0.95031400  1
  O  O135  1  0.89355700  0.79968600  0.72339100  1
  O  O136  1  0.60644300  0.70031400  0.77660900  1
  O  O137  1  0.64355700  0.47339100  0.54968600  1
  O  O138  1  0.70031400  0.27660900  0.39355700  1
  O  O139  1  0.77660900  0.10644300  0.29968600  1
  O  O140  1  0.10644300  0.70031400  0.72339100  1
  O  O141  1  0.02660900  0.95031400  0.85644300  1
  O  O142  1  0.72339100  0.10644300  0.70031400  1
  O  O143  1  0.77660900  0.60644300  0.70031400  1
  O  O144  1  0.54968600  0.64355700  0.47339100  1
  O  O145  1  0.85644300  0.97339100  0.54968600  1
  O  O146  1  0.39355700  0.70031400  0.27660900  1
  O  O147  1  0.52660900  0.95031400  0.64355700  1
  O  O148  1  0.85644300  0.52660900  0.04968600  1
  O  O149  1  0.95031400  0.35644300  0.97339100  1
  O  O150  1  0.70031400  0.77660900  0.60644300  1
  O  O151  1  0.35644300  0.97339100  0.95031400  1
  O  O152  1  0.52660900  0.54968600  0.14355700  1
  O  O153  1  0.29968600  0.77660900  0.10644300  1
  O  O154  1  0.22339100  0.10644300  0.79968600  1
  O  O155  1  0.95031400  0.64355700  0.52660900  1
  O  O156  1  0.45031400  0.64355700  0.97339100  1
  O  O157  1  0.79968600  0.77660900  0.39355700  1
  O  O158  1  0.52660900  0.04968600  0.85644300  1
  O  O159  1  0.39355700  0.20031400  0.72339100  1
