# generated using pymatgen
data_K2PtN4(ClO4)2
_symmetry_space_group_name_H-M   'P 1'
_cell_length_a   7.60145100
_cell_length_b   9.76146100
_cell_length_c   9.65701441
_cell_angle_alpha   90.00000000
_cell_angle_beta   120.10889217
_cell_angle_gamma   90.00000000
_symmetry_Int_Tables_number   1
_chemical_formula_structural   K2PtN4(ClO4)2
_chemical_formula_sum   'K4 Pt2 N8 Cl4 O16'
_cell_volume   619.87946616
_cell_formula_units_Z   2
loop_
 _symmetry_equiv_pos_site_id
 _symmetry_equiv_pos_as_xyz
  1  'x, y, z'
loop_
 _atom_site_type_symbol
 _atom_site_label
 _atom_site_symmetry_multiplicity
 _atom_site_fract_x
 _atom_site_fract_y
 _atom_site_fract_z
 _atom_site_occupancy
  K  K0  1  0.67437500  0.54674900  0.83343600  1
  K  K1  1  0.67437500  0.95325100  0.33343600  1
  K  K2  1  0.32562500  0.45325100  0.16656400  1
  K  K3  1  0.32562500  0.04674900  0.66656400  1
  Pt  Pt4  1  0.00000000  0.00000000  0.00000000  1
  Pt  Pt5  1  0.00000000  0.50000000  0.50000000  1
  N  N6  1  0.14119400  0.47334500  0.75346300  1
  N  N7  1  0.84840100  0.30353000  0.46235300  1
  N  N8  1  0.15159900  0.80353000  0.03764700  1
  N  N9  1  0.84840100  0.19647000  0.96235300  1
  N  N10  1  0.85880600  0.97334500  0.74653700  1
  N  N11  1  0.85880600  0.52665500  0.24653700  1
  N  N12  1  0.14119400  0.02665500  0.25346300  1
  N  N13  1  0.15159900  0.69647000  0.53764700  1
  Cl  Cl14  1  0.71991600  0.60822600  0.49674700  1
  Cl  Cl15  1  0.28008400  0.10822600  0.00325300  1
  Cl  Cl16  1  0.71991600  0.89177400  0.99674700  1
  Cl  Cl17  1  0.28008400  0.39177400  0.50325300  1
  O  O18  1  0.94924100  0.01511600  0.67835200  1
  O  O19  1  0.31184900  0.41938500  0.82887500  1
  O  O20  1  0.93713200  0.20148700  0.45052000  1
  O  O21  1  0.94924100  0.48488400  0.17835200  1
  O  O22  1  0.93713200  0.29851300  0.95052000  1
  O  O23  1  0.32184200  0.70418700  0.55132200  1
  O  O24  1  0.67815800  0.20418700  0.94867800  1
  O  O25  1  0.06286800  0.70148700  0.04948000  1
  O  O26  1  0.68815100  0.91938500  0.67112500  1
  O  O27  1  0.06286800  0.79851300  0.54948000  1
  O  O28  1  0.32184200  0.79581300  0.05132200  1
  O  O29  1  0.31184900  0.08061500  0.32887500  1
  O  O30  1  0.05075900  0.51511600  0.82164800  1
  O  O31  1  0.05075900  0.98488400  0.32164800  1
  O  O32  1  0.67815800  0.29581300  0.44867800  1
  O  O33  1  0.68815100  0.58061500  0.17112500  1
