# generated using pymatgen
data_Li3In2(PO4)3
_symmetry_space_group_name_H-M   'P 1'
_cell_length_a   8.65137617
_cell_length_b   8.65137617
_cell_length_c   23.56806757
_cell_angle_alpha   90.00000000
_cell_angle_beta   90.00000000
_cell_angle_gamma   120.00000000
_symmetry_Int_Tables_number   1
_chemical_formula_structural   Li3In2(PO4)3
_chemical_formula_sum   'Li18 In12 P18 O72'
_cell_volume   1527.65398889
_cell_formula_units_Z   6
loop_
 _symmetry_equiv_pos_site_id
 _symmetry_equiv_pos_as_xyz
  1  'x, y, z'
loop_
 _atom_site_type_symbol
 _atom_site_label
 _atom_site_symmetry_multiplicity
 _atom_site_fract_x
 _atom_site_fract_y
 _atom_site_fract_z
 _atom_site_occupancy
  Li  Li0  1  0.02543933  0.31421867  0.04704467  1
  Li  Li1  1  0.28877933  0.97456067  0.04704467  1
  Li  Li2  1  0.68578133  0.71122067  0.04704467  1
  Li  Li3  1  0.64122733  0.01911467  0.28628867  1
  Li  Li4  1  0.37788733  0.35877267  0.28628867  1
  Li  Li5  1  0.98088533  0.62211267  0.28628867  1
  Li  Li6  1  0.69210600  0.64755200  0.38037800  1
  Li  Li7  1  0.95544600  0.30789400  0.38037800  1
  Li  Li8  1  0.35244800  0.04455400  0.38037800  1
  Li  Li9  1  0.30789400  0.35244800  0.61962200  1
  Li  Li10  1  0.04455400  0.69210600  0.61962200  1
  Li  Li11  1  0.64755200  0.95544600  0.61962200  1
  Li  Li12  1  0.35877267  0.98088533  0.71371133  1
  Li  Li13  1  0.62211267  0.64122733  0.71371133  1
  Li  Li14  1  0.01911467  0.37788733  0.71371133  1
  Li  Li15  1  0.97456067  0.68578133  0.95295533  1
  Li  Li16  1  0.71122067  0.02543933  0.95295533  1
  Li  Li17  1  0.31421867  0.28877933  0.95295533  1
  In  In18  1  0.33333333  0.66666667  0.32115367  1
  In  In19  1  0.33333333  0.66666667  0.01217967  1
  In  In20  1  0.00000000  0.00000000  0.14658100  1
  In  In21  1  0.66666667  0.33333333  0.18675233  1
  In  In22  1  0.00000000  0.00000000  0.65448700  1
  In  In23  1  0.00000000  0.00000000  0.34551300  1
  In  In24  1  0.66666667  0.33333333  0.47991433  1
  In  In25  1  0.33333333  0.66666667  0.52008567  1
  In  In26  1  0.66666667  0.33333333  0.98782033  1
  In  In27  1  0.66666667  0.33333333  0.67884633  1
  In  In28  1  0.33333333  0.66666667  0.81324767  1
  In  In29  1  0.00000000  0.00000000  0.85341900  1
  P  P30  1  0.70296433  0.70238067  0.25100367  1
  P  P31  1  0.99941633  0.29703567  0.25100367  1
  P  P32  1  0.29761933  0.00058367  0.25100367  1
  P  P33  1  0.96370233  0.63095267  0.08232967  1
  P  P34  1  0.66725033  0.03629767  0.08232967  1
  P  P35  1  0.36904733  0.33274967  0.08232967  1
  P  P36  1  0.36963100  0.03571400  0.58433700  1
  P  P37  1  0.66608300  0.63036900  0.58433700  1
  P  P38  1  0.96428600  0.33391700  0.58433700  1
  P  P39  1  0.63036900  0.96428600  0.41566300  1
  P  P40  1  0.33391700  0.36963100  0.41566300  1
  P  P41  1  0.03571400  0.66608300  0.41566300  1
  P  P42  1  0.03629767  0.36904733  0.91767033  1
  P  P43  1  0.33274967  0.96370233  0.91767033  1
  P  P44  1  0.63095267  0.66725033  0.91767033  1
  P  P45  1  0.29703567  0.29761933  0.74899633  1
  P  P46  1  0.00058367  0.70296433  0.74899633  1
  P  P47  1  0.70238067  0.99941633  0.74899633  1
  O  O48  1  0.06397367  0.83792233  0.08811833  1
  O  O49  1  0.77394867  0.93602633  0.08811833  1
  O  O50  1  0.16207767  0.22605133  0.08811833  1
  O  O51  1  0.60269300  0.49541100  0.24521500  1
  O  O52  1  0.46042800  0.32864900  0.13643700  1
  O  O53  1  0.67135100  0.13177900  0.13643700  1
  O  O54  1  0.86822100  0.53957200  0.13643700  1
  O  O55  1  0.20623867  0.00468433  0.19689633  1
  O  O56  1  0.99531567  0.20155433  0.19689633  1
  O  O57  1  0.79844567  0.79376133  0.19689633  1
  O  O58  1  0.25571500  0.09716900  0.30145400  1
  O  O59  1  0.90283100  0.15854600  0.30145400  1
  O  O60  1  0.84145400  0.74428500  0.30145400  1
  O  O61  1  0.41095167  0.23616433  0.03187933  1
  O  O62  1  0.76383567  0.17478733  0.03187933  1
  O  O63  1  0.82521267  0.58904833  0.03187933  1
  O  O64  1  0.43391633  0.52786867  0.06340967  1
  O  O65  1  0.47213133  0.90604767  0.06340967  1
  O  O66  1  0.09395233  0.56608367  0.06340967  1
  O  O67  1  0.23275033  0.80546467  0.26992367  1
  O  O68  1  0.19453533  0.42728567  0.26992367  1
  O  O69  1  0.57271433  0.76724967  0.26992367  1
  O  O70  1  0.50458900  0.10728200  0.24521500  1
  O  O71  1  0.89271800  0.39730700  0.24521500  1
  O  O72  1  0.73064033  0.17125567  0.42145167  1
  O  O73  1  0.44061533  0.26935967  0.42145167  1
  O  O74  1  0.82874433  0.55938467  0.42145167  1
  O  O75  1  0.26935967  0.82874433  0.57854833  1
  O  O76  1  0.12709467  0.66198233  0.46977033  1
  O  O77  1  0.33801767  0.46511233  0.46977033  1
  O  O78  1  0.53488767  0.87290533  0.46977033  1
  O  O79  1  0.87290533  0.33801767  0.53022967  1
  O  O80  1  0.66198233  0.53488767  0.53022967  1
  O  O81  1  0.46511233  0.12709467  0.53022967  1
  O  O82  1  0.92238167  0.43050233  0.63478733  1
  O  O83  1  0.56949767  0.49187933  0.63478733  1
  O  O84  1  0.50812067  0.07761833  0.63478733  1
  O  O85  1  0.07761833  0.56949767  0.36521267  1
  O  O86  1  0.43050233  0.50812067  0.36521267  1
  O  O87  1  0.49187933  0.92238167  0.36521267  1
  O  O88  1  0.10058300  0.86120200  0.39674300  1
  O  O89  1  0.13879800  0.23938100  0.39674300  1
  O  O90  1  0.76061900  0.89941700  0.39674300  1
  O  O91  1  0.89941700  0.13879800  0.60325700  1
  O  O92  1  0.86120200  0.76061900  0.60325700  1
  O  O93  1  0.23938100  0.10058300  0.60325700  1
  O  O94  1  0.17125567  0.44061533  0.57854833  1
  O  O95  1  0.55938467  0.73064033  0.57854833  1
  O  O96  1  0.39730700  0.50458900  0.75478500  1
  O  O97  1  0.10728200  0.60269300  0.75478500  1
  O  O98  1  0.49541100  0.89271800  0.75478500  1
  O  O99  1  0.93602633  0.16207767  0.91188167  1
  O  O100  1  0.79376133  0.99531567  0.80310367  1
  O  O101  1  0.00468433  0.79844567  0.80310367  1
  O  O102  1  0.20155433  0.20623867  0.80310367  1
  O  O103  1  0.53957200  0.67135100  0.86356300  1
  O  O104  1  0.32864900  0.86822100  0.86356300  1
  O  O105  1  0.13177900  0.46042800  0.86356300  1
  O  O106  1  0.58904833  0.76383567  0.96812067  1
  O  O107  1  0.23616433  0.82521267  0.96812067  1
  O  O108  1  0.17478733  0.41095167  0.96812067  1
  O  O109  1  0.74428500  0.90283100  0.69854600  1
  O  O110  1  0.09716900  0.84145400  0.69854600  1
  O  O111  1  0.15854600  0.25571500  0.69854600  1
  O  O112  1  0.76724967  0.19453533  0.73007633  1
  O  O113  1  0.80546467  0.57271433  0.73007633  1
  O  O114  1  0.42728567  0.23275033  0.73007633  1
  O  O115  1  0.56608367  0.47213133  0.93659033  1
  O  O116  1  0.52786867  0.09395233  0.93659033  1
  O  O117  1  0.90604767  0.43391633  0.93659033  1
  O  O118  1  0.83792233  0.77394867  0.91188167  1
  O  O119  1  0.22605133  0.06397367  0.91188167  1
