# generated using pymatgen
data_MgZr4O9
_symmetry_space_group_name_H-M   'P 1'
_cell_length_a   32.52243600
_cell_length_b   3.46523000
_cell_length_c   6.07601460
_cell_angle_alpha   90.00000000
_cell_angle_beta   91.59954451
_cell_angle_gamma   90.00000000
_symmetry_Int_Tables_number   1
_chemical_formula_structural   MgZr4O9
_chemical_formula_sum   'Mg4 Zr16 O36'
_cell_volume   684.48617445
_cell_formula_units_Z   4
loop_
 _symmetry_equiv_pos_site_id
 _symmetry_equiv_pos_as_xyz
  1  'x, y, z'
loop_
 _atom_site_type_symbol
 _atom_site_label
 _atom_site_symmetry_multiplicity
 _atom_site_fract_x
 _atom_site_fract_y
 _atom_site_fract_z
 _atom_site_occupancy
  Mg  Mg0  1  0.00000000  0.00000000  0.50000000  1
  Mg  Mg1  1  0.00000000  0.50000000  0.00000000  1
  Mg  Mg2  1  0.50000000  0.50000000  0.50000000  1
  Mg  Mg3  1  0.50000000  0.00000000  0.00000000  1
  Zr  Zr4  1  0.57988300  0.00000000  0.68800100  1
  Zr  Zr5  1  0.60005100  0.50000000  0.18778400  1
  Zr  Zr6  1  0.92011700  0.50000000  0.31199900  1
  Zr  Zr7  1  0.79397000  0.00000000  0.11117600  1
  Zr  Zr8  1  0.89994900  0.00000000  0.81221600  1
  Zr  Zr9  1  0.70603000  0.50000000  0.88882400  1
  Zr  Zr10  1  0.81174500  0.50000000  0.59628900  1
  Zr  Zr11  1  0.68825500  0.00000000  0.40371100  1
  Zr  Zr12  1  0.07988300  0.50000000  0.68800100  1
  Zr  Zr13  1  0.10005100  0.00000000  0.18778400  1
  Zr  Zr14  1  0.42011700  0.00000000  0.31199900  1
  Zr  Zr15  1  0.29397000  0.50000000  0.11117600  1
  Zr  Zr16  1  0.39994900  0.50000000  0.81221600  1
  Zr  Zr17  1  0.20603000  0.00000000  0.88882400  1
  Zr  Zr18  1  0.31174500  0.00000000  0.59628900  1
  Zr  Zr19  1  0.18825500  0.50000000  0.40371100  1
  O  O20  1  0.56138600  0.50000000  0.45995700  1
  O  O21  1  0.98308100  0.50000000  0.29660700  1
  O  O22  1  0.56532400  0.00000000  0.06687000  1
  O  O23  1  0.89428100  0.00000000  0.16675700  1
  O  O24  1  0.93467600  0.50000000  0.93313000  1
  O  O25  1  0.77099700  0.50000000  0.87911700  1
  O  O26  1  0.51691900  0.00000000  0.70339300  1
  O  O27  1  0.87682200  0.50000000  0.59568000  1
  O  O28  1  0.67877400  0.00000000  0.76393600  1
  O  O29  1  0.93861400  0.00000000  0.54004300  1
  O  O30  1  0.83441300  0.00000000  0.82825500  1
  O  O31  1  0.78487900  0.00000000  0.47036900  1
  O  O32  1  0.66558700  0.50000000  0.17174500  1
  O  O33  1  0.71512100  0.50000000  0.52963100  1
  O  O34  1  0.82122600  0.50000000  0.23606400  1
  O  O35  1  0.62317800  0.00000000  0.40432000  1
  O  O36  1  0.72900300  0.00000000  0.12088300  1
  O  O37  1  0.60571900  0.50000000  0.83324300  1
  O  O38  1  0.06138600  0.00000000  0.45995700  1
  O  O39  1  0.48308100  0.00000000  0.29660700  1
  O  O40  1  0.06532400  0.50000000  0.06687000  1
  O  O41  1  0.39428100  0.50000000  0.16675700  1
  O  O42  1  0.43467600  0.00000000  0.93313000  1
  O  O43  1  0.27099700  0.00000000  0.87911700  1
  O  O44  1  0.01691900  0.50000000  0.70339300  1
  O  O45  1  0.37682200  0.00000000  0.59568000  1
  O  O46  1  0.17877400  0.50000000  0.76393600  1
  O  O47  1  0.43861400  0.50000000  0.54004300  1
  O  O48  1  0.33441300  0.50000000  0.82825500  1
  O  O49  1  0.28487900  0.50000000  0.47036900  1
  O  O50  1  0.16558700  0.00000000  0.17174500  1
  O  O51  1  0.21512100  0.00000000  0.52963100  1
  O  O52  1  0.32122600  0.00000000  0.23606400  1
  O  O53  1  0.12317800  0.50000000  0.40432000  1
  O  O54  1  0.22900300  0.50000000  0.12088300  1
  O  O55  1  0.10571900  0.00000000  0.83324300  1
