# generated using pymatgen
data_CdI2
_symmetry_space_group_name_H-M   'P 1'
_cell_length_a   4.34616362
_cell_length_b   4.34616362
_cell_length_c   80.83904800
_cell_angle_alpha   90.00000000
_cell_angle_beta   90.00000000
_cell_angle_gamma   120.00000000
_symmetry_Int_Tables_number   1
_chemical_formula_structural   CdI2
_chemical_formula_sum   'Cd11 I22'
_cell_volume   1322.40343132
_cell_formula_units_Z   11
loop_
 _symmetry_equiv_pos_site_id
 _symmetry_equiv_pos_as_xyz
  1  'x, y, z'
loop_
 _atom_site_type_symbol
 _atom_site_label
 _atom_site_symmetry_multiplicity
 _atom_site_fract_x
 _atom_site_fract_y
 _atom_site_fract_z
 _atom_site_occupancy
  Cd  Cd0  1  0.00000000  0.00000000  0.93181200  1
  Cd  Cd1  1  0.00000000  0.00000000  0.02273400  1
  Cd  Cd2  1  0.00000000  0.00000000  0.84090000  1
  Cd  Cd3  1  0.00000000  0.00000000  0.38639400  1
  Cd  Cd4  1  0.00000000  0.00000000  0.74999500  1
  Cd  Cd5  1  0.33333333  0.66666667  0.20454800  1
  Cd  Cd6  1  0.33333333  0.66666667  0.11364000  1
  Cd  Cd7  1  0.00000000  0.00000000  0.47727900  1
  Cd  Cd8  1  0.00000000  0.00000000  0.29546500  1
  Cd  Cd9  1  0.00000000  0.00000000  0.65907100  1
  Cd  Cd10  1  0.00000000  0.00000000  0.56817500  1
  I  I11  1  0.66666667  0.33333333  0.58955000  1
  I  I12  1  0.33333333  0.66666667  0.54678500  1
  I  I13  1  0.33333333  0.66666667  0.45588300  1
  I  I14  1  0.66666667  0.33333333  0.40778300  1
  I  I15  1  0.33333333  0.66666667  0.63768700  1
  I  I16  1  0.66666667  0.33333333  0.86229300  1
  I  I17  1  0.66666667  0.33333333  0.95319900  1
  I  I18  1  0.33333333  0.66666667  0.72859200  1
  I  I19  1  0.66666667  0.33333333  0.77137900  1
  I  I20  1  0.33333333  0.66666667  0.81951900  1
  I  I21  1  0.66666667  0.33333333  0.04412700  1
  I  I22  1  0.00000000  0.00000000  0.18314100  1
  I  I23  1  0.66666667  0.33333333  0.22592400  1
  I  I24  1  0.00000000  0.00000000  0.09224400  1
  I  I25  1  0.33333333  0.66666667  0.91039700  1
  I  I26  1  0.33333333  0.66666667  0.27408100  1
  I  I27  1  0.33333333  0.66666667  0.00137100  1
  I  I28  1  0.66666667  0.33333333  0.31686700  1
  I  I29  1  0.33333333  0.66666667  0.36500800  1
  I  I30  1  0.66666667  0.33333333  0.68046100  1
  I  I31  1  0.66666667  0.33333333  0.13503600  1
  I  I32  1  0.66666667  0.33333333  0.49866000  1
