# generated using pymatgen
data_Sb8Pb7S19
_symmetry_space_group_name_H-M   'P 1'
_cell_length_a   13.82927000
_cell_length_b   11.98271400
_cell_length_c   22.05846383
_cell_angle_alpha   90.00000000
_cell_angle_beta   92.20154897
_cell_angle_gamma   90.00000000
_symmetry_Int_Tables_number   1
_chemical_formula_structural   Sb8Pb7S19
_chemical_formula_sum   'Sb32 Pb28 S76'
_cell_volume   3652.65819074
_cell_formula_units_Z   4
loop_
 _symmetry_equiv_pos_site_id
 _symmetry_equiv_pos_as_xyz
  1  'x, y, z'
loop_
 _atom_site_type_symbol
 _atom_site_label
 _atom_site_symmetry_multiplicity
 _atom_site_fract_x
 _atom_site_fract_y
 _atom_site_fract_z
 _atom_site_occupancy
  Sb  Sb0  1  0.41066550  0.31460650  0.17770500  1
  Sb  Sb1  1  0.87683350  0.09719950  0.49748500  1
  Sb  Sb2  1  0.35272350  0.88287050  0.39494000  1
  Sb  Sb3  1  0.64727650  0.88287050  0.10506000  1
  Sb  Sb4  1  0.38403150  0.98534250  0.05308200  1
  Sb  Sb5  1  0.58933450  0.31460650  0.32229500  1
  Sb  Sb6  1  0.12316650  0.09719950  0.00251500  1
  Sb  Sb7  1  0.58933450  0.68539350  0.82229500  1
  Sb  Sb8  1  0.38403150  0.01465750  0.55308200  1
  Sb  Sb9  1  0.87683350  0.90280050  0.99748500  1
  Sb  Sb10  1  0.41066550  0.68539350  0.67770500  1
  Sb  Sb11  1  0.64727650  0.11712950  0.60506000  1
  Sb  Sb12  1  0.61596850  0.98534250  0.44691800  1
  Sb  Sb13  1  0.12316650  0.90280050  0.50251500  1
  Sb  Sb14  1  0.61596850  0.01465750  0.94691800  1
  Sb  Sb15  1  0.35272350  0.11712950  0.89494000  1
  Sb  Sb16  1  0.91066550  0.81460650  0.17770500  1
  Sb  Sb17  1  0.37683350  0.59719950  0.49748500  1
  Sb  Sb18  1  0.85272350  0.38287050  0.39494000  1
  Sb  Sb19  1  0.14727650  0.38287050  0.10506000  1
  Sb  Sb20  1  0.88403150  0.48534250  0.05308200  1
  Sb  Sb21  1  0.08933450  0.81460650  0.32229500  1
  Sb  Sb22  1  0.62316650  0.59719950  0.00251500  1
  Sb  Sb23  1  0.08933450  0.18539350  0.82229500  1
  Sb  Sb24  1  0.88403150  0.51465750  0.55308200  1
  Sb  Sb25  1  0.37683350  0.40280050  0.99748500  1
  Sb  Sb26  1  0.91066550  0.18539350  0.67770500  1
  Sb  Sb27  1  0.14727650  0.61712950  0.60506000  1
  Sb  Sb28  1  0.11596850  0.48534250  0.44691800  1
  Sb  Sb29  1  0.62316650  0.40280050  0.50251500  1
  Sb  Sb30  1  0.11596850  0.51465750  0.94691800  1
  Sb  Sb31  1  0.85272350  0.61712950  0.89494000  1
  Pb  Pb32  1  0.64952450  0.72349450  0.56984600  1
  Pb  Pb33  1  0.35047550  0.27650550  0.43015400  1
  Pb  Pb34  1  0.50000000  0.00390600  0.25000000  1
  Pb  Pb35  1  0.58018650  0.67496350  0.37246800  1
  Pb  Pb36  1  0.58018650  0.32503650  0.87246800  1
  Pb  Pb37  1  0.35047550  0.72349450  0.93015400  1
  Pb  Pb38  1  0.19775950  0.06997550  0.18827400  1
  Pb  Pb39  1  0.50000000  0.99609400  0.75000000  1
  Pb  Pb40  1  0.19775950  0.93002450  0.68827400  1
  Pb  Pb41  1  0.80224050  0.93002450  0.81172600  1
  Pb  Pb42  1  0.41981350  0.67496350  0.12753200  1
  Pb  Pb43  1  0.41981350  0.32503650  0.62753200  1
  Pb  Pb44  1  0.64952450  0.27650550  0.06984600  1
  Pb  Pb45  1  0.80224050  0.06997550  0.31172600  1
  Pb  Pb46  1  0.14952450  0.22349450  0.56984600  1
  Pb  Pb47  1  0.85047550  0.77650550  0.43015400  1
  Pb  Pb48  1  0.00000000  0.50390600  0.25000000  1
  Pb  Pb49  1  0.08018650  0.17496350  0.37246800  1
  Pb  Pb50  1  0.08018650  0.82503650  0.87246800  1
  Pb  Pb51  1  0.85047550  0.22349450  0.93015400  1
  Pb  Pb52  1  0.69775950  0.56997550  0.18827400  1
  Pb  Pb53  1  0.00000000  0.49609400  0.75000000  1
  Pb  Pb54  1  0.69775950  0.43002450  0.68827400  1
  Pb  Pb55  1  0.30224050  0.43002450  0.81172600  1
  Pb  Pb56  1  0.91981350  0.17496350  0.12753200  1
  Pb  Pb57  1  0.91981350  0.82503650  0.62753200  1
  Pb  Pb58  1  0.14952450  0.77650550  0.06984600  1
  Pb  Pb59  1  0.30224050  0.56997550  0.31172600  1
  S  S60  1  0.77487900  0.09819300  0.02201700  1
  S  S61  1  0.04296650  0.00733850  0.58217000  1
  S  S62  1  0.78520450  0.96104150  0.17793100  1
  S  S63  1  0.49882850  0.22648350  0.52648000  1
  S  S64  1  0.49882850  0.77351650  0.02648000  1
  S  S65  1  0.54112550  0.94969850  0.61855300  1
  S  S66  1  0.04296650  0.99266150  0.08217000  1
  S  S67  1  0.54112550  0.05030150  0.11855300  1
  S  S68  1  0.22512100  0.09819300  0.47798300  1
  S  S69  1  0.27032800  0.83995600  0.57320000  1
  S  S70  1  0.41422450  0.77527050  0.30999500  1
  S  S71  1  0.64429300  0.18119700  0.24744900  1
  S  S72  1  0.95703350  0.00733850  0.91783000  1
  S  S73  1  0.35570700  0.18119700  0.25255100  1
  S  S74  1  0.50000000  0.44325500  0.25000000  1
  S  S75  1  0.27032800  0.16004400  0.07320000  1
  S  S76  1  0.50000000  0.55674500  0.75000000  1
  S  S77  1  0.22512100  0.90180700  0.97798300  1
  S  S78  1  0.78520450  0.03895850  0.67793100  1
  S  S79  1  0.58577550  0.77527050  0.19000500  1
  S  S80  1  0.72967200  0.83995600  0.92680000  1
  S  S81  1  0.95703350  0.99266150  0.41783000  1
  S  S82  1  0.64429300  0.81880300  0.74744900  1
  S  S83  1  0.45887450  0.05030150  0.38144700  1
  S  S84  1  0.50117150  0.77351650  0.47352000  1
  S  S85  1  0.67703400  0.11076800  0.85880900  1
  S  S86  1  0.32296600  0.11076800  0.64119100  1
  S  S87  1  0.41422450  0.22472950  0.80999500  1
  S  S88  1  0.58577550  0.22472950  0.69000500  1
  S  S89  1  0.45887450  0.94969850  0.88144700  1
  S  S90  1  0.32296600  0.88923200  0.14119100  1
  S  S91  1  0.72967200  0.16004400  0.42680000  1
  S  S92  1  0.50117150  0.22648350  0.97352000  1
  S  S93  1  0.77487900  0.90180700  0.52201700  1
  S  S94  1  0.67703400  0.88923200  0.35880900  1
  S  S95  1  0.35570700  0.81880300  0.75255100  1
  S  S96  1  0.21479550  0.96104150  0.32206900  1
  S  S97  1  0.21479550  0.03895850  0.82206900  1
  S  S98  1  0.27487900  0.59819300  0.02201700  1
  S  S99  1  0.54296650  0.50733850  0.58217000  1
  S  S100  1  0.28520450  0.46104150  0.17793100  1
  S  S101  1  0.99882850  0.72648350  0.52648000  1
  S  S102  1  0.99882850  0.27351650  0.02648000  1
  S  S103  1  0.04112550  0.44969850  0.61855300  1
  S  S104  1  0.54296650  0.49266150  0.08217000  1
  S  S105  1  0.04112550  0.55030150  0.11855300  1
  S  S106  1  0.72512100  0.59819300  0.47798300  1
  S  S107  1  0.77032800  0.33995600  0.57320000  1
  S  S108  1  0.91422450  0.27527050  0.30999500  1
  S  S109  1  0.14429300  0.68119700  0.24744900  1
  S  S110  1  0.45703350  0.50733850  0.91783000  1
  S  S111  1  0.85570700  0.68119700  0.25255100  1
  S  S112  1  0.00000000  0.94325500  0.25000000  1
  S  S113  1  0.77032800  0.66004400  0.07320000  1
  S  S114  1  0.00000000  0.05674500  0.75000000  1
  S  S115  1  0.72512100  0.40180700  0.97798300  1
  S  S116  1  0.28520450  0.53895850  0.67793100  1
  S  S117  1  0.08577550  0.27527050  0.19000500  1
  S  S118  1  0.22967200  0.33995600  0.92680000  1
  S  S119  1  0.45703350  0.49266150  0.41783000  1
  S  S120  1  0.14429300  0.31880300  0.74744900  1
  S  S121  1  0.95887450  0.55030150  0.38144700  1
  S  S122  1  0.00117150  0.27351650  0.47352000  1
  S  S123  1  0.17703400  0.61076800  0.85880900  1
  S  S124  1  0.82296600  0.61076800  0.64119100  1
  S  S125  1  0.91422450  0.72472950  0.80999500  1
  S  S126  1  0.08577550  0.72472950  0.69000500  1
  S  S127  1  0.95887450  0.44969850  0.88144700  1
  S  S128  1  0.82296600  0.38923200  0.14119100  1
  S  S129  1  0.22967200  0.66004400  0.42680000  1
  S  S130  1  0.00117150  0.72648350  0.97352000  1
  S  S131  1  0.27487900  0.40180700  0.52201700  1
  S  S132  1  0.17703400  0.38923200  0.35880900  1
  S  S133  1  0.85570700  0.31880300  0.75255100  1
  S  S134  1  0.71479550  0.46104150  0.32206900  1
  S  S135  1  0.71479550  0.53895850  0.82206900  1
