# generated using pymatgen
data_InH5NOF4
_symmetry_space_group_name_H-M   'P 1'
_cell_length_a   5.88776800
_cell_length_b   6.33989780
_cell_length_c   6.85355593
_cell_angle_alpha   110.60039910
_cell_angle_beta   88.69672964
_cell_angle_gamma   100.62741140
_symmetry_Int_Tables_number   1
_chemical_formula_structural   InH5NOF4
_chemical_formula_sum   'In2 H10 N2 O2 F8'
_cell_volume   235.11542015
_cell_formula_units_Z   2
loop_
 _symmetry_equiv_pos_site_id
 _symmetry_equiv_pos_as_xyz
  1  'x, y, z'
loop_
 _atom_site_type_symbol
 _atom_site_label
 _atom_site_symmetry_multiplicity
 _atom_site_fract_x
 _atom_site_fract_y
 _atom_site_fract_z
 _atom_site_occupancy
  In  In0  1  0.56576900  0.58617100  0.27698800  1
  In  In1  1  0.43423100  0.41382900  0.72301200  1
  H  H2  1  0.24357400  0.86474800  0.43974900  1
  H  H3  1  0.75642600  0.13525200  0.56025100  1
  H  H4  1  0.10572200  0.61678700  0.28285300  1
  H  H5  1  0.89427800  0.38321300  0.71714700  1
  H  H6  1  0.04041900  0.06479600  0.81534400  1
  H  H7  1  0.95958100  0.93520400  0.18465600  1
  H  H8  1  0.87978900  0.18807300  0.02907400  1
  H  H9  1  0.12021100  0.81192700  0.97092600  1
  H  H10  1  0.79175600  0.90451100  0.86673300  1
  H  H11  1  0.20824400  0.09548900  0.13326700  1
  N  N12  1  0.93354500  0.03608400  0.93409200  1
  N  N13  1  0.06645500  0.96391600  0.06590800  1
  O  O14  1  0.25313200  0.73197500  0.30633000  1
  O  O15  1  0.74686800  0.26802500  0.69367000  1
  F  F16  1  0.86210100  0.43246200  0.21528000  1
  F  F17  1  0.13789900  0.56753800  0.78472000  1
  F  F18  1  0.37687700  0.31932200  0.00890500  1
  F  F19  1  0.62312300  0.68067800  0.99109500  1
  F  F20  1  0.78271400  0.92051400  0.36511000  1
  F  F21  1  0.21728600  0.07948600  0.63489000  1
  F  F22  1  0.61536300  0.69014600  0.61693100  1
  F  F23  1  0.38463700  0.30985400  0.38306900  1
