# generated using pymatgen
data_LiMnPO4
_symmetry_space_group_name_H-M   'P 1'
_cell_length_a   8.01127600
_cell_length_b   4.91916700
_cell_length_c   8.58073670
_cell_angle_alpha   90.00000000
_cell_angle_beta   99.30264668
_cell_angle_gamma   90.00000000
_symmetry_Int_Tables_number   1
_chemical_formula_structural   LiMnPO4
_chemical_formula_sum   'Li4 Mn4 P4 O16'
_cell_volume   333.70922472
_cell_formula_units_Z   4
loop_
 _symmetry_equiv_pos_site_id
 _symmetry_equiv_pos_as_xyz
  1  'x, y, z'
loop_
 _atom_site_type_symbol
 _atom_site_label
 _atom_site_symmetry_multiplicity
 _atom_site_fract_x
 _atom_site_fract_y
 _atom_site_fract_z
 _atom_site_occupancy
  Li  Li0  1  0.16747900  0.99782700  0.57683600  1
  Li  Li1  1  0.63192500  0.98406700  0.93589000  1
  Li  Li2  1  0.36807500  0.48406700  0.06411000  1
  Li  Li3  1  0.83252100  0.49782700  0.42316400  1
  Mn  Mn4  1  0.47761300  0.42513300  0.71591200  1
  Mn  Mn5  1  0.00643500  0.99149600  0.18163400  1
  Mn  Mn6  1  0.99356500  0.49149600  0.81836600  1
  Mn  Mn7  1  0.52238700  0.92513300  0.28408800  1
  P  P8  1  0.22133600  0.51885300  0.38772800  1
  P  P9  1  0.77866400  0.01885300  0.61227200  1
  P  P10  1  0.26218100  0.01542500  0.93171300  1
  P  P11  1  0.73781900  0.51542500  0.06828700  1
  O  O12  1  0.11810600  0.17367700  0.99440400  1
  O  O13  1  0.70381700  0.11485500  0.44180000  1
  O  O14  1  0.95272800  0.16259800  0.65541300  1
  O  O15  1  0.21832400  0.71197800  0.90815900  1
  O  O16  1  0.57493700  0.55922700  0.94352600  1
  O  O17  1  0.80425800  0.70561100  0.62223400  1
  O  O18  1  0.65478200  0.10901600  0.72487300  1
  O  O19  1  0.29618300  0.61485500  0.55820000  1
  O  O20  1  0.78167600  0.21197800  0.09184100  1
  O  O21  1  0.70201100  0.64262200  0.22397300  1
  O  O22  1  0.29798900  0.14262200  0.77602700  1
  O  O23  1  0.88189400  0.67367700  0.00559600  1
  O  O24  1  0.04727200  0.66259800  0.34458700  1
  O  O25  1  0.42506300  0.05922700  0.05647400  1
  O  O26  1  0.34521800  0.60901600  0.27512700  1
  O  O27  1  0.19574200  0.20561100  0.37776600  1
