# generated using pymatgen
data_Li4H6Ru
_symmetry_space_group_name_H-M   'P 1'
_cell_length_a   8.14146216
_cell_length_b   8.14146216
_cell_length_c   9.95250181
_cell_angle_alpha   90.00000000
_cell_angle_beta   90.00000000
_cell_angle_gamma   120.00000000
_symmetry_Int_Tables_number   1
_chemical_formula_structural   Li4H6Ru
_chemical_formula_sum   'Li24 H36 Ru6'
_cell_volume   571.30459158
_cell_formula_units_Z   6
loop_
 _symmetry_equiv_pos_site_id
 _symmetry_equiv_pos_as_xyz
  1  'x, y, z'
loop_
 _atom_site_type_symbol
 _atom_site_label
 _atom_site_symmetry_multiplicity
 _atom_site_fract_x
 _atom_site_fract_y
 _atom_site_fract_z
 _atom_site_occupancy
  Li  Li0  1  0.00000000  0.00000000  0.25000000  1
  Li  Li1  1  0.00000000  0.00000000  0.75000000  1
  Li  Li2  1  0.05181867  0.71848533  0.58333333  1
  Li  Li3  1  0.28151467  0.33333333  0.58333333  1
  Li  Li4  1  0.66666667  0.94818133  0.58333333  1
  Li  Li5  1  0.71848533  0.66666667  0.41666667  1
  Li  Li6  1  0.33333333  0.05181867  0.41666667  1
  Li  Li7  1  0.94818133  0.28151467  0.41666667  1
  Li  Li8  1  0.66666667  0.33333333  0.58333333  1
  Li  Li9  1  0.66666667  0.33333333  0.08333333  1
  Li  Li10  1  0.71848533  0.05181867  0.91666667  1
  Li  Li11  1  0.94818133  0.66666667  0.91666667  1
  Li  Li12  1  0.33333333  0.28151467  0.91666667  1
  Li  Li13  1  0.38515200  0.00000000  0.75000000  1
  Li  Li14  1  1.00000000  0.38515200  0.75000000  1
  Li  Li15  1  0.61484800  0.61484800  0.75000000  1
  Li  Li16  1  0.33333333  0.66666667  0.91666667  1
  Li  Li17  1  0.33333333  0.66666667  0.41666667  1
  Li  Li18  1  0.38515200  0.38515200  0.25000000  1
  Li  Li19  1  0.61484800  1.00000000  0.25000000  1
  Li  Li20  1  0.00000000  0.61484800  0.25000000  1
  Li  Li21  1  0.05181867  0.33333333  0.08333333  1
  Li  Li22  1  0.66666667  0.71848533  0.08333333  1
  Li  Li23  1  0.28151467  0.94818133  0.08333333  1
  H  H24  1  0.14790267  0.18834933  0.39969833  1
  H  H25  1  0.81165067  0.95955333  0.39969833  1
  H  H26  1  0.04044667  0.85209733  0.39969833  1
  H  H27  1  0.48123600  0.62622000  0.56636500  1
  H  H28  1  0.37378000  0.85501600  0.56636500  1
  H  H29  1  0.14498400  0.51876400  0.56636500  1
  H  H30  1  0.85209733  0.81165067  0.60030167  1
  H  H31  1  0.18834933  0.04044667  0.60030167  1
  H  H32  1  0.95955333  0.14790267  0.60030167  1
  H  H33  1  0.51876400  0.37378000  0.43363500  1
  H  H34  1  0.62622000  0.14498400  0.43363500  1
  H  H35  1  0.85501600  0.48123600  0.43363500  1
  H  H36  1  0.81456933  0.52168267  0.73303167  1
  H  H37  1  0.47831733  0.29288667  0.73303167  1
  H  H38  1  0.70711333  0.18543067  0.73303167  1
  H  H39  1  0.14790267  0.95955333  0.89969833  1
  H  H40  1  0.04044667  0.18834933  0.89969833  1
  H  H41  1  0.81165067  0.85209733  0.89969833  1
  H  H42  1  0.51876400  0.14498400  0.93363500  1
  H  H43  1  0.85501600  0.37378000  0.93363500  1
  H  H44  1  0.62622000  0.48123600  0.93363500  1
  H  H45  1  0.18543067  0.70711333  0.76696833  1
  H  H46  1  0.29288667  0.47831733  0.76696833  1
  H  H47  1  0.52168267  0.81456933  0.76696833  1
  H  H48  1  0.48123600  0.85501600  0.06636500  1
  H  H49  1  0.14498400  0.62622000  0.06636500  1
  H  H50  1  0.37378000  0.51876400  0.06636500  1
  H  H51  1  0.81456933  0.29288667  0.23303167  1
  H  H52  1  0.70711333  0.52168267  0.23303167  1
  H  H53  1  0.47831733  0.18543067  0.23303167  1
  H  H54  1  0.18543067  0.47831733  0.26696833  1
  H  H55  1  0.52168267  0.70711333  0.26696833  1
  H  H56  1  0.29288667  0.81456933  0.26696833  1
  H  H57  1  0.85209733  0.04044667  0.10030167  1
  H  H58  1  0.95955333  0.81165067  0.10030167  1
  H  H59  1  0.18834933  0.14790267  0.10030167  1
  Ru  Ru60  1  0.00000000  0.00000000  0.50000000  1
  Ru  Ru61  1  0.00000000  0.00000000  0.00000000  1
  Ru  Ru62  1  0.66666667  0.33333333  0.83333333  1
  Ru  Ru63  1  0.66666667  0.33333333  0.33333333  1
  Ru  Ru64  1  0.33333333  0.66666667  0.16666667  1
  Ru  Ru65  1  0.33333333  0.66666667  0.66666667  1
