# generated using pymatgen
data_Y6Pb8OF32
_symmetry_space_group_name_H-M   'P 1'
_cell_length_a   11.04451052
_cell_length_b   11.04451052
_cell_length_c   20.34201411
_cell_angle_alpha   90.00000000
_cell_angle_beta   90.00000000
_cell_angle_gamma   120.00000000
_symmetry_Int_Tables_number   1
_chemical_formula_structural   Y6Pb8OF32
_chemical_formula_sum   'Y18 Pb24 O3 F96'
_cell_volume   2148.90654818
_cell_formula_units_Z   3
loop_
 _symmetry_equiv_pos_site_id
 _symmetry_equiv_pos_as_xyz
  1  'x, y, z'
loop_
 _atom_site_type_symbol
 _atom_site_label
 _atom_site_symmetry_multiplicity
 _atom_site_fract_x
 _atom_site_fract_y
 _atom_site_fract_z
 _atom_site_occupancy
  Y  Y0  1  0.27402533  0.86161067  0.25238067  1
  Y  Y1  1  0.39264133  0.47172267  0.08095267  1
  Y  Y2  1  0.52827733  0.92091867  0.08095267  1
  Y  Y3  1  0.58758533  0.72597467  0.25238067  1
  Y  Y4  1  0.07908133  0.60735867  0.08095267  1
  Y  Y5  1  0.13838933  0.41241467  0.25238067  1
  Y  Y6  1  0.94069200  0.19494400  0.58571400  1
  Y  Y7  1  0.05930800  0.80505600  0.41428600  1
  Y  Y8  1  0.19494400  0.25425200  0.41428600  1
  Y  Y9  1  0.25425200  0.05930800  0.58571400  1
  Y  Y10  1  0.74574800  0.94069200  0.41428600  1
  Y  Y11  1  0.80505600  0.74574800  0.58571400  1
  Y  Y12  1  0.60735867  0.52827733  0.91904733  1
  Y  Y13  1  0.72597467  0.13838933  0.74761933  1
  Y  Y14  1  0.86161067  0.58758533  0.74761933  1
  Y  Y15  1  0.92091867  0.39264133  0.91904733  1
  Y  Y16  1  0.41241467  0.27402533  0.74761933  1
  Y  Y17  1  0.47172267  0.07908133  0.91904733  1
  Pb  Pb18  1  0.82245500  0.78802000  0.07813200  1
  Pb  Pb19  1  0.21198000  0.03443500  0.07813200  1
  Pb  Pb20  1  0.45468667  0.29889833  0.25520133  1
  Pb  Pb21  1  0.84421167  0.54531333  0.25520133  1
  Pb  Pb22  1  0.33333333  0.66666667  0.92930567  1
  Pb  Pb23  1  0.70110167  0.15578833  0.25520133  1
  Pb  Pb24  1  0.33333333  0.66666667  0.40402767  1
  Pb  Pb25  1  0.96556500  0.17754500  0.07813200  1
  Pb  Pb26  1  0.48912167  0.12135333  0.41146533  1
  Pb  Pb27  1  0.87864667  0.36776833  0.41146533  1
  Pb  Pb28  1  0.12135333  0.63223167  0.58853467  1
  Pb  Pb29  1  0.51087833  0.87864667  0.58853467  1
  Pb  Pb30  1  0.00000000  0.00000000  0.26263900  1
  Pb  Pb31  1  0.36776833  0.48912167  0.58853467  1
  Pb  Pb32  1  0.00000000  0.00000000  0.73736100  1
  Pb  Pb33  1  0.63223167  0.51087833  0.41146533  1
  Pb  Pb34  1  0.15578833  0.45468667  0.74479867  1
  Pb  Pb35  1  0.54531333  0.70110167  0.74479867  1
  Pb  Pb36  1  0.78802000  0.96556500  0.92186800  1
  Pb  Pb37  1  0.17754500  0.21198000  0.92186800  1
  Pb  Pb38  1  0.66666667  0.33333333  0.59597233  1
  Pb  Pb39  1  0.03443500  0.82245500  0.92186800  1
  Pb  Pb40  1  0.66666667  0.33333333  0.07069433  1
  Pb  Pb41  1  0.29889833  0.84421167  0.74479867  1
  O  O42  1  0.00000000  0.00000000  0.00000000  1
  O  O43  1  0.66666667  0.33333333  0.33333333  1
  O  O44  1  0.33333333  0.66666667  0.66666667  1
  F  F45  1  0.37146267  0.47204033  0.44855433  1
  F  F46  1  0.21924333  0.25701267  0.04260567  1
  F  F47  1  0.13697067  0.75785233  0.16591333  1
  F  F48  1  0.52573767  0.91825433  0.96437333  1
  F  F49  1  0.03776933  0.78075667  0.04260567  1
  F  F50  1  0.21166100  0.50786200  0.05634800  1
  F  F51  1  0.17452867  0.62953433  0.27698533  1
  F  F52  1  0.37046567  0.54499433  0.27698533  1
  F  F53  1  0.29620100  0.78833900  0.05634800  1
  F  F54  1  0.33333333  0.66666667  0.52616767  1
  F  F55  1  0.29520400  0.86129300  0.88477900  1
  F  F56  1  0.62088167  0.86302933  0.16591333  1
  F  F57  1  0.39251667  0.47426233  0.96437333  1
  F  F58  1  0.10057767  0.62853733  0.44855433  1
  F  F59  1  0.04578500  0.47030400  0.16742000  1
  F  F60  1  0.92367933  0.37110267  0.29072767  1
  F  F61  1  0.52795967  0.89942233  0.44855433  1
  F  F62  1  0.08174567  0.60748333  0.96437333  1
  F  F63  1  0.44742333  0.07632067  0.29072767  1
  F  F64  1  0.27415000  0.85907100  0.36896000  1
  F  F65  1  0.24214767  0.37911833  0.16591333  1
  F  F66  1  0.58492100  0.72585000  0.36896000  1
  F  F67  1  0.14092900  0.41507900  0.36896000  1
  F  F68  1  0.45500567  0.82547133  0.27698533  1
  F  F69  1  0.42451900  0.95421500  0.16742000  1
  F  F70  1  0.49213800  0.70379900  0.05634800  1
  F  F71  1  0.56608900  0.70479600  0.88477900  1
  F  F72  1  0.13870700  0.43391100  0.88477900  1
  F  F73  1  0.74298733  0.96223067  0.04260567  1
  F  F74  1  0.33333333  0.66666667  0.80716567  1
  F  F75  1  0.52969600  0.57548100  0.16742000  1
  F  F76  1  0.62889733  0.55257667  0.29072767  1
  F  F77  1  0.03812933  0.80537367  0.78188767  1
  F  F78  1  0.88591000  0.59034600  0.37593900  1
  F  F79  1  0.80363733  0.09118567  0.49924667  1
  F  F80  1  0.19240433  0.25158767  0.29770667  1
  F  F81  1  0.70443600  0.11409000  0.37593900  1
  F  F82  1  0.87832767  0.84119533  0.38968133  1
  F  F83  1  0.84119533  0.96286767  0.61031867  1
  F  F84  1  0.03713233  0.87832767  0.61031867  1
  F  F85  1  0.96286767  0.12167233  0.38968133  1
  F  F86  1  0.00000000  0.00000000  0.85950100  1
  F  F87  1  0.96187067  0.19462633  0.21811233  1
  F  F88  1  0.28754833  0.19636267  0.49924667  1
  F  F89  1  0.05918333  0.80759567  0.29770667  1
  F  F90  1  0.76724433  0.96187067  0.78188767  1
  F  F91  1  0.71245167  0.80363733  0.50075333  1
  F  F92  1  0.59034600  0.70443600  0.62406100  1
  F  F93  1  0.19462633  0.23275567  0.78188767  1
  F  F94  1  0.74841233  0.94081667  0.29770667  1
  F  F95  1  0.11409000  0.40965400  0.62406100  1
  F  F96  1  0.94081667  0.19240433  0.70229333  1
  F  F97  1  0.90881433  0.71245167  0.49924667  1
  F  F98  1  0.25158767  0.05918333  0.70229333  1
  F  F99  1  0.80759567  0.74841233  0.70229333  1
  F  F100  1  0.12167233  0.15880467  0.61031867  1
  F  F101  1  0.09118567  0.28754833  0.50075333  1
  F  F102  1  0.15880467  0.03713233  0.38968133  1
  F  F103  1  0.23275567  0.03812933  0.21811233  1
  F  F104  1  0.80537367  0.76724433  0.21811233  1
  F  F105  1  0.40965400  0.29556400  0.37593900  1
  F  F106  1  0.00000000  0.00000000  0.14049900  1
  F  F107  1  0.19636267  0.90881433  0.50075333  1
  F  F108  1  0.29556400  0.88591000  0.62406100  1
  F  F109  1  0.70479600  0.13870700  0.11522100  1
  F  F110  1  0.55257667  0.92367933  0.70927233  1
  F  F111  1  0.47030400  0.42451900  0.83258000  1
  F  F112  1  0.85907100  0.58492100  0.63104000  1
  F  F113  1  0.37110267  0.44742333  0.70927233  1
  F  F114  1  0.54499433  0.17452867  0.72301467  1
  F  F115  1  0.50786200  0.29620100  0.94365200  1
  F  F116  1  0.70379900  0.21166100  0.94365200  1
  F  F117  1  0.62953433  0.45500567  0.72301467  1
  F  F118  1  0.66666667  0.33333333  0.19283433  1
  F  F119  1  0.62853733  0.52795967  0.55144567  1
  F  F120  1  0.95421500  0.52969600  0.83258000  1
  F  F121  1  0.72585000  0.14092900  0.63104000  1
  F  F122  1  0.43391100  0.29520400  0.11522100  1
  F  F123  1  0.37911833  0.13697067  0.83408667  1
  F  F124  1  0.25701267  0.03776933  0.95739433  1
  F  F125  1  0.86129300  0.56608900  0.11522100  1
  F  F126  1  0.41507900  0.27415000  0.63104000  1
  F  F127  1  0.78075667  0.74298733  0.95739433  1
  F  F128  1  0.60748333  0.52573767  0.03562667  1
  F  F129  1  0.57548100  0.04578500  0.83258000  1
  F  F130  1  0.91825433  0.39251667  0.03562667  1
  F  F131  1  0.47426233  0.08174567  0.03562667  1
  F  F132  1  0.78833900  0.49213800  0.94365200  1
  F  F133  1  0.75785233  0.62088167  0.83408667  1
  F  F134  1  0.82547133  0.37046567  0.72301467  1
  F  F135  1  0.89942233  0.37146267  0.55144567  1
  F  F136  1  0.47204033  0.10057767  0.55144567  1
  F  F137  1  0.07632067  0.62889733  0.70927233  1
  F  F138  1  0.66666667  0.33333333  0.47383233  1
  F  F139  1  0.86302933  0.24214767  0.83408667  1
  F  F140  1  0.96223067  0.21924333  0.95739433  1
