# generated using pymatgen
data_Ta4Cu2O11
_symmetry_space_group_name_H-M   'P 1'
_cell_length_a   10.83500800
_cell_length_b   6.30194600
_cell_length_c   13.08020957
_cell_angle_alpha   90.00000000
_cell_angle_beta   105.78288989
_cell_angle_gamma   90.00000000
_symmetry_Int_Tables_number   1
_chemical_formula_structural   Ta4Cu2O11
_chemical_formula_sum   'Ta16 Cu8 O44'
_cell_volume   859.46613325
_cell_formula_units_Z   4
loop_
 _symmetry_equiv_pos_site_id
 _symmetry_equiv_pos_as_xyz
  1  'x, y, z'
loop_
 _atom_site_type_symbol
 _atom_site_label
 _atom_site_symmetry_multiplicity
 _atom_site_fract_x
 _atom_site_fract_y
 _atom_site_fract_z
 _atom_site_occupancy
  Ta  Ta0  1  0.75000000  0.25000000  0.00000000  1
  Ta  Ta1  1  0.18229700  0.06402000  0.75277600  1
  Ta  Ta2  1  0.81770300  0.06402000  0.74722400  1
  Ta  Ta3  1  0.50000000  0.10483200  0.75000000  1
  Ta  Ta4  1  0.75000000  0.75000000  0.50000000  1
  Ta  Ta5  1  0.50000000  0.89516800  0.25000000  1
  Ta  Ta6  1  0.18229700  0.93598000  0.25277600  1
  Ta  Ta7  1  0.81770300  0.93598000  0.24722400  1
  Ta  Ta8  1  0.25000000  0.75000000  0.00000000  1
  Ta  Ta9  1  0.68229700  0.56402000  0.75277600  1
  Ta  Ta10  1  0.31770300  0.56402000  0.74722400  1
  Ta  Ta11  1  0.00000000  0.60483200  0.75000000  1
  Ta  Ta12  1  0.25000000  0.25000000  0.50000000  1
  Ta  Ta13  1  0.00000000  0.39516800  0.25000000  1
  Ta  Ta14  1  0.68229700  0.43598000  0.25277600  1
  Ta  Ta15  1  0.31770300  0.43598000  0.24722400  1
  Cu  Cu16  1  0.00000000  0.00000000  0.00000000  1
  Cu  Cu17  1  0.50000000  0.00000000  0.00000000  1
  Cu  Cu18  1  0.00000000  0.00000000  0.50000000  1
  Cu  Cu19  1  0.50000000  0.00000000  0.50000000  1
  Cu  Cu20  1  0.50000000  0.50000000  0.00000000  1
  Cu  Cu21  1  0.00000000  0.50000000  0.00000000  1
  Cu  Cu22  1  0.50000000  0.50000000  0.50000000  1
  Cu  Cu23  1  0.00000000  0.50000000  0.50000000  1
  O  O24  1  0.65662200  0.24486200  0.72286900  1
  O  O25  1  0.37504500  0.13013900  0.24843800  1
  O  O26  1  0.50000000  0.49802300  0.25000000  1
  O  O27  1  0.23399400  0.99238900  0.90181300  1
  O  O28  1  0.84243150  0.08907950  0.90894300  1
  O  O29  1  0.58072000  0.13573100  0.90757500  1
  O  O30  1  0.62495500  0.86986100  0.75156200  1
  O  O31  1  0.34337800  0.24486200  0.77713100  1
  O  O32  1  0.37504500  0.86986100  0.74843800  1
  O  O33  1  0.50000000  0.50197700  0.75000000  1
  O  O34  1  0.15756850  0.08907950  0.59105700  1
  O  O35  1  0.76600600  0.99238900  0.59818700  1
  O  O36  1  0.41928000  0.13573100  0.59242500  1
  O  O37  1  0.58072000  0.86426900  0.40757500  1
  O  O38  1  0.23399400  0.00761100  0.40181300  1
  O  O39  1  0.84243150  0.91092050  0.40894300  1
  O  O40  1  0.62495500  0.13013900  0.25156200  1
  O  O41  1  0.65662200  0.75513800  0.22286900  1
  O  O42  1  0.41928000  0.86426900  0.09242500  1
  O  O43  1  0.15756850  0.91092050  0.09105700  1
  O  O44  1  0.76600600  0.00761100  0.09818700  1
  O  O45  1  0.34337800  0.75513800  0.27713100  1
  O  O46  1  0.15662200  0.74486200  0.72286900  1
  O  O47  1  0.87504500  0.63013900  0.24843800  1
  O  O48  1  0.00000000  0.99802300  0.25000000  1
  O  O49  1  0.73399400  0.49238900  0.90181300  1
  O  O50  1  0.34243150  0.58907950  0.90894300  1
  O  O51  1  0.08072000  0.63573100  0.90757500  1
  O  O52  1  0.12495500  0.36986100  0.75156200  1
  O  O53  1  0.84337800  0.74486200  0.77713100  1
  O  O54  1  0.87504500  0.36986100  0.74843800  1
  O  O55  1  0.00000000  0.00197700  0.75000000  1
  O  O56  1  0.65756850  0.58907950  0.59105700  1
  O  O57  1  0.26600600  0.49238900  0.59818700  1
  O  O58  1  0.91928000  0.63573100  0.59242500  1
  O  O59  1  0.08072000  0.36426900  0.40757500  1
  O  O60  1  0.73399400  0.50761100  0.40181300  1
  O  O61  1  0.34243150  0.41092050  0.40894300  1
  O  O62  1  0.12495500  0.63013900  0.25156200  1
  O  O63  1  0.15662200  0.25513800  0.22286900  1
  O  O64  1  0.91928000  0.36426900  0.09242500  1
  O  O65  1  0.65756850  0.41092050  0.09105700  1
  O  O66  1  0.26600600  0.50761100  0.09818700  1
  O  O67  1  0.84337800  0.25513800  0.27713100  1
