# generated using pymatgen
data_La(HO)3
_symmetry_space_group_name_H-M   'P 1'
_cell_length_a   6.52603222
_cell_length_b   6.52603222
_cell_length_c   3.87328800
_cell_angle_alpha   90.00000000
_cell_angle_beta   90.00000000
_cell_angle_gamma   120.00000000
_symmetry_Int_Tables_number   1
_chemical_formula_structural   La(HO)3
_chemical_formula_sum   'La2 H6 O6'
_cell_volume   142.85940894
_cell_formula_units_Z   2
loop_
 _symmetry_equiv_pos_site_id
 _symmetry_equiv_pos_as_xyz
  1  'x, y, z'
loop_
 _atom_site_type_symbol
 _atom_site_label
 _atom_site_symmetry_multiplicity
 _atom_site_fract_x
 _atom_site_fract_y
 _atom_site_fract_z
 _atom_site_occupancy
  La  La0  1  0.66666667  0.33333333  0.80908700  1
  La  La1  1  0.33333333  0.66666667  0.30908700  1
  H  H2  1  0.72476500  0.85225500  0.87124500  1
  H  H3  1  0.12749000  0.27523500  0.87124500  1
  H  H4  1  0.14774500  0.87251000  0.87124500  1
  H  H5  1  0.27523500  0.14774500  0.37124500  1
  H  H6  1  0.87251000  0.72476500  0.37124500  1
  H  H7  1  0.85225500  0.12749000  0.37124500  1
  O  O8  1  0.61490500  0.69279000  0.78690300  1
  O  O9  1  0.07788500  0.38509500  0.78690300  1
  O  O10  1  0.30721000  0.92211500  0.78690300  1
  O  O11  1  0.38509500  0.30721000  0.28690300  1
  O  O12  1  0.92211500  0.61490500  0.28690300  1
  O  O13  1  0.69279000  0.07788500  0.28690300  1
