# generated using pymatgen
data_Na2Nd2Ti3O10
_symmetry_space_group_name_H-M   'P 1'
_cell_length_a   3.85099600
_cell_length_b   3.85099600
_cell_length_c   28.77139200
_cell_angle_alpha   90.00000000
_cell_angle_beta   90.00000000
_cell_angle_gamma   90.00000000
_symmetry_Int_Tables_number   1
_chemical_formula_structural   Na2Nd2Ti3O10
_chemical_formula_sum   'Na4 Nd4 Ti6 O20'
_cell_volume   426.68464002
_cell_formula_units_Z   2
loop_
 _symmetry_equiv_pos_site_id
 _symmetry_equiv_pos_as_xyz
  1  'x, y, z'
loop_
 _atom_site_type_symbol
 _atom_site_label
 _atom_site_symmetry_multiplicity
 _atom_site_fract_x
 _atom_site_fract_y
 _atom_site_fract_z
 _atom_site_occupancy
  Na  Na0  1  0.50000000  0.50000000  0.21201900  1
  Na  Na1  1  0.00000000  0.00000000  0.28798100  1
  Na  Na2  1  0.00000000  0.00000000  0.71201900  1
  Na  Na3  1  0.50000000  0.50000000  0.78798100  1
  Nd  Nd4  1  0.50000000  0.50000000  0.07526100  1
  Nd  Nd5  1  0.00000000  0.00000000  0.42473900  1
  Nd  Nd6  1  0.00000000  0.00000000  0.57526100  1
  Nd  Nd7  1  0.50000000  0.50000000  0.92473900  1
  Ti  Ti8  1  0.50000000  0.50000000  0.35326400  1
  Ti  Ti9  1  0.00000000  0.00000000  0.14673600  1
  Ti  Ti10  1  0.00000000  0.00000000  0.00000000  1
  Ti  Ti11  1  0.00000000  0.00000000  0.85326400  1
  Ti  Ti12  1  0.50000000  0.50000000  0.64673600  1
  Ti  Ti13  1  0.50000000  0.50000000  0.50000000  1
  O  O14  1  0.50000000  0.00000000  0.36821800  1
  O  O15  1  0.00000000  0.50000000  0.36821800  1
  O  O16  1  0.00000000  0.50000000  0.13178200  1
  O  O17  1  0.50000000  0.00000000  0.13178200  1
  O  O18  1  0.50000000  0.50000000  0.29202800  1
  O  O19  1  0.00000000  0.00000000  0.20797200  1
  O  O20  1  0.00000000  0.50000000  0.00000000  1
  O  O21  1  0.00000000  0.00000000  0.06734900  1
  O  O22  1  0.50000000  0.50000000  0.43265100  1
  O  O23  1  0.50000000  0.00000000  0.00000000  1
  O  O24  1  0.00000000  0.50000000  0.86821800  1
  O  O25  1  0.50000000  0.00000000  0.86821800  1
  O  O26  1  0.50000000  0.00000000  0.63178200  1
  O  O27  1  0.00000000  0.50000000  0.63178200  1
  O  O28  1  0.00000000  0.00000000  0.79202800  1
  O  O29  1  0.50000000  0.50000000  0.70797200  1
  O  O30  1  0.50000000  0.00000000  0.50000000  1
  O  O31  1  0.50000000  0.50000000  0.56734900  1
  O  O32  1  0.00000000  0.00000000  0.93265100  1
  O  O33  1  0.00000000  0.50000000  0.50000000  1
