# generated using pymatgen
data_LaTlGeSe4
_symmetry_space_group_name_H-M   'P 1'
_cell_length_a   7.23016800
_cell_length_b   11.61422500
_cell_length_c   19.57560600
_cell_angle_alpha   90.00000000
_cell_angle_beta   90.00000000
_cell_angle_gamma   90.00000000
_symmetry_Int_Tables_number   1
_chemical_formula_structural   LaTlGeSe4
_chemical_formula_sum   'La8 Tl8 Ge8 Se32'
_cell_volume   1643.81840719
_cell_formula_units_Z   8
loop_
 _symmetry_equiv_pos_site_id
 _symmetry_equiv_pos_as_xyz
  1  'x, y, z'
loop_
 _atom_site_type_symbol
 _atom_site_label
 _atom_site_symmetry_multiplicity
 _atom_site_fract_x
 _atom_site_fract_y
 _atom_site_fract_z
 _atom_site_occupancy
  La  La0  1  0.27404900  0.14316800  0.43378700  1
  La  La1  1  0.77070900  0.35769100  0.06454900  1
  La  La2  1  0.27070900  0.64230900  0.06454900  1
  La  La3  1  0.72595100  0.85683200  0.93378700  1
  La  La4  1  0.22929100  0.64230900  0.56454900  1
  La  La5  1  0.22595100  0.14316800  0.93378700  1
  La  La6  1  0.72929100  0.35769100  0.56454900  1
  La  La7  1  0.77404900  0.85683200  0.43378700  1
  Tl  Tl8  1  0.82679200  0.00899300  0.19839200  1
  Tl  Tl9  1  0.66626500  0.50526400  0.80333000  1
  Tl  Tl10  1  0.16626500  0.49473600  0.80333000  1
  Tl  Tl11  1  0.33373500  0.49473600  0.30333000  1
  Tl  Tl12  1  0.67320800  0.00899300  0.69839200  1
  Tl  Tl13  1  0.83373500  0.50526400  0.30333000  1
  Tl  Tl14  1  0.32679200  0.99100700  0.19839200  1
  Tl  Tl15  1  0.17320800  0.99100700  0.69839200  1
  Ge  Ge16  1  0.78339300  0.69564200  0.11170700  1
  Ge  Ge17  1  0.21416400  0.80474600  0.88726900  1
  Ge  Ge18  1  0.71660700  0.69564200  0.61170700  1
  Ge  Ge19  1  0.71416400  0.19525400  0.88726900  1
  Ge  Ge20  1  0.78583600  0.19525400  0.38726900  1
  Ge  Ge21  1  0.28583600  0.80474600  0.38726900  1
  Ge  Ge22  1  0.28339300  0.30435800  0.11170700  1
  Ge  Ge23  1  0.21660700  0.30435800  0.61170700  1
  Se  Se24  1  0.03394600  0.24945200  0.31668900  1
  Se  Se25  1  0.03430000  0.75180200  0.18250800  1
  Se  Se26  1  0.37797600  0.89202800  0.49547000  1
  Se  Se27  1  0.12202400  0.89202800  0.99547000  1
  Se  Se28  1  0.90471200  0.04500600  0.84044300  1
  Se  Se29  1  0.62469700  0.61189400  0.50616400  1
  Se  Se30  1  0.37530300  0.38810600  0.00616400  1
  Se  Se31  1  0.06986500  0.15635700  0.08255200  1
  Se  Se32  1  0.59474100  0.54673800  0.15862100  1
  Se  Se33  1  0.93013500  0.84364300  0.58255200  1
  Se  Se34  1  0.53430000  0.24819800  0.18250800  1
  Se  Se35  1  0.87797600  0.10797200  0.49547000  1
  Se  Se36  1  0.42670700  0.65483000  0.91731200  1
  Se  Se37  1  0.96605400  0.75054800  0.81668900  1
  Se  Se38  1  0.53394600  0.75054800  0.31668900  1
  Se  Se39  1  0.09528800  0.95499400  0.34044300  1
  Se  Se40  1  0.56986500  0.84364300  0.08255200  1
  Se  Se41  1  0.40471200  0.95499400  0.84044300  1
  Se  Se42  1  0.57329300  0.34517000  0.41731200  1
  Se  Se43  1  0.46605400  0.24945200  0.81668900  1
  Se  Se44  1  0.12469700  0.38810600  0.50616400  1
  Se  Se45  1  0.43013500  0.15635700  0.58255200  1
  Se  Se46  1  0.46570000  0.75180200  0.68250800  1
  Se  Se47  1  0.90525900  0.54673800  0.65862100  1
  Se  Se48  1  0.07329300  0.65483000  0.41731200  1
  Se  Se49  1  0.96570000  0.24819800  0.68250800  1
  Se  Se50  1  0.40525900  0.45326200  0.65862100  1
  Se  Se51  1  0.62202400  0.10797200  0.99547000  1
  Se  Se52  1  0.59528800  0.04500600  0.34044300  1
  Se  Se53  1  0.09474100  0.45326200  0.15862100  1
  Se  Se54  1  0.92670700  0.34517000  0.91731200  1
  Se  Se55  1  0.87530300  0.61189400  0.00616400  1
