# generated using pymatgen
data_LiTaGeO5
_symmetry_space_group_name_H-M   'P 1'
_cell_length_a   7.67184000
_cell_length_b   8.22112800
_cell_length_c   7.56830260
_cell_angle_alpha   90.00000000
_cell_angle_beta   119.46093094
_cell_angle_gamma   90.00000000
_symmetry_Int_Tables_number   1
_chemical_formula_structural   LiTaGeO5
_chemical_formula_sum   'Li4 Ta4 Ge4 O20'
_cell_volume   415.61730765
_cell_formula_units_Z   4
loop_
 _symmetry_equiv_pos_site_id
 _symmetry_equiv_pos_as_xyz
  1  'x, y, z'
loop_
 _atom_site_type_symbol
 _atom_site_label
 _atom_site_symmetry_multiplicity
 _atom_site_fract_x
 _atom_site_fract_y
 _atom_site_fract_z
 _atom_site_occupancy
  Li  Li0  1  0.50000000  0.80840800  0.75000000  1
  Li  Li1  1  0.50000000  0.19159200  0.25000000  1
  Li  Li2  1  0.00000000  0.30840800  0.75000000  1
  Li  Li3  1  0.00000000  0.69159200  0.25000000  1
  Ta  Ta4  1  0.00000000  0.00000000  0.00000000  1
  Ta  Ta5  1  0.00000000  0.00000000  0.50000000  1
  Ta  Ta6  1  0.50000000  0.50000000  0.00000000  1
  Ta  Ta7  1  0.50000000  0.50000000  0.50000000  1
  Ge  Ge8  1  0.50000000  0.85953000  0.25000000  1
  Ge  Ge9  1  0.50000000  0.14047000  0.75000000  1
  Ge  Ge10  1  0.00000000  0.35953000  0.25000000  1
  Ge  Ge11  1  0.00000000  0.64047000  0.75000000  1
  O  O12  1  0.49820050  0.73646550  0.44060100  1
  O  O13  1  0.50179950  0.26353450  0.55939900  1
  O  O14  1  0.49820050  0.26353450  0.94060100  1
  O  O15  1  0.69861500  0.99840200  0.85022400  1
  O  O16  1  0.50000000  0.56650200  0.75000000  1
  O  O17  1  0.50000000  0.43349800  0.25000000  1
  O  O18  1  0.30138500  0.99840200  0.64977600  1
  O  O19  1  0.69861500  0.00159800  0.35022400  1
  O  O20  1  0.30138500  0.00159800  0.14977600  1
  O  O21  1  0.50179950  0.73646550  0.05939900  1
  O  O22  1  0.99820050  0.23646550  0.44060100  1
  O  O23  1  0.00179950  0.76353450  0.55939900  1
  O  O24  1  0.99820050  0.76353450  0.94060100  1
  O  O25  1  0.19861500  0.49840200  0.85022400  1
  O  O26  1  0.00000000  0.06650200  0.75000000  1
  O  O27  1  0.00000000  0.93349800  0.25000000  1
  O  O28  1  0.80138500  0.49840200  0.64977600  1
  O  O29  1  0.19861500  0.50159800  0.35022400  1
  O  O30  1  0.80138500  0.50159800  0.14977600  1
  O  O31  1  0.00179950  0.23646550  0.05939900  1
