# generated using pymatgen
data_Ga11NO15
_symmetry_space_group_name_H-M   'P 1'
_cell_length_a   5.87052100
_cell_length_b   5.96112217
_cell_length_c   8.30348137
_cell_angle_alpha   89.85727887
_cell_angle_beta   88.40658403
_cell_angle_gamma   89.77450223
_symmetry_Int_Tables_number   1
_chemical_formula_structural   Ga11NO15
_chemical_formula_sum   'Ga11 N1 O15'
_cell_volume   290.46400495
_cell_formula_units_Z   1
loop_
 _symmetry_equiv_pos_site_id
 _symmetry_equiv_pos_as_xyz
  1  'x, y, z'
loop_
 _atom_site_type_symbol
 _atom_site_label
 _atom_site_symmetry_multiplicity
 _atom_site_fract_x
 _atom_site_fract_y
 _atom_site_fract_z
 _atom_site_occupancy
  Ga  Ga0  1  0.99458500  0.25572600  0.12891900  1
  Ga  Ga1  1  0.98231200  0.49457800  0.51336500  1
  Ga  Ga2  1  0.48054800  0.75159600  0.63554100  1
  Ga  Ga3  1  0.74397700  0.75727900  0.25053000  1
  Ga  Ga4  1  0.98171300  0.00698500  0.51460900  1
  Ga  Ga5  1  0.51813600  0.00776700  0.99630400  1
  Ga  Ga6  1  0.25130700  0.24924700  0.75027200  1
  Ga  Ga7  1  0.51781200  0.49673100  0.98632700  1
  Ga  Ga8  1  0.01843000  0.74630000  0.86580800  1
  Ga  Ga9  1  0.25590700  0.75803300  0.25018700  1
  Ga  Ga10  1  0.50520300  0.23688600  0.36465900  1
  N  N11  1  0.50016900  0.97563200  0.23500600  1
  O  O12  1  0.99879700  0.52634900  0.26028400  1
  O  O13  1  0.75741100  0.75057300  0.49985300  1
  O  O14  1  0.99989100  0.98589800  0.25936100  1
  O  O15  1  0.01844100  0.00574600  0.74187000  1
  O  O16  1  0.48236500  0.00554800  0.76472900  1
  O  O17  1  0.76993700  0.25162400  0.48639700  1
  O  O18  1  0.26264300  0.25408900  0.99439500  1
  O  O19  1  0.73609200  0.25552700  0.00799100  1
  O  O20  1  0.48295000  0.49231700  0.75774800  1
  O  O21  1  0.50031100  0.51167300  0.24051800  1
  O  O22  1  0.01771400  0.49078200  0.73995700  1
  O  O23  1  0.26670100  0.74048200  0.00874500  1
  O  O24  1  0.74687500  0.74427100  0.99985400  1
  O  O25  1  0.22568900  0.74881100  0.49174000  1
  O  O26  1  0.23408100  0.24955000  0.50502900  1
