# generated using pymatgen
data_Na3AlH10C6O17
_symmetry_space_group_name_H-M   'P 1'
_cell_length_a   17.38122000
_cell_length_b   12.56666000
_cell_length_c   15.36576845
_cell_angle_alpha   90.00000000
_cell_angle_beta   99.65077405
_cell_angle_gamma   90.00000000
_symmetry_Int_Tables_number   1
_chemical_formula_structural   Na3AlH10C6O17
_chemical_formula_sum   'Na24 Al8 H80 C48 O136'
_cell_volume   3308.75267784
_cell_formula_units_Z   8
loop_
 _symmetry_equiv_pos_site_id
 _symmetry_equiv_pos_as_xyz
  1  'x, y, z'
loop_
 _atom_site_type_symbol
 _atom_site_label
 _atom_site_symmetry_multiplicity
 _atom_site_fract_x
 _atom_site_fract_y
 _atom_site_fract_z
 _atom_site_occupancy
  Na  Na0  1  0.50000000  0.00732500  0.75000000  1
  Na  Na1  1  0.50000000  0.99267500  0.25000000  1
  Na  Na2  1  0.50000000  0.73091000  0.75000000  1
  Na  Na3  1  0.50000000  0.26909000  0.25000000  1
  Na  Na4  1  0.45575200  0.38388100  0.99923200  1
  Na  Na5  1  0.54424800  0.38388100  0.50076800  1
  Na  Na6  1  0.54424800  0.61611900  0.00076800  1
  Na  Na7  1  0.45575200  0.61611900  0.49923200  1
  Na  Na8  1  0.38279000  0.12469500  0.98729400  1
  Na  Na9  1  0.61721000  0.12469500  0.51270600  1
  Na  Na10  1  0.61721000  0.87530500  0.01270600  1
  Na  Na11  1  0.38279000  0.87530500  0.48729400  1
  Na  Na12  1  0.00000000  0.50732500  0.75000000  1
  Na  Na13  1  0.00000000  0.49267500  0.25000000  1
  Na  Na14  1  0.00000000  0.23091000  0.75000000  1
  Na  Na15  1  0.00000000  0.76909000  0.25000000  1
  Na  Na16  1  0.95575200  0.88388100  0.99923200  1
  Na  Na17  1  0.04424800  0.88388100  0.50076800  1
  Na  Na18  1  0.04424800  0.11611900  0.00076800  1
  Na  Na19  1  0.95575200  0.11611900  0.49923200  1
  Na  Na20  1  0.88279000  0.62469500  0.98729400  1
  Na  Na21  1  0.11721000  0.62469500  0.51270600  1
  Na  Na22  1  0.11721000  0.37530500  0.01270600  1
  Na  Na23  1  0.88279000  0.37530500  0.48729400  1
  Al  Al24  1  0.80769400  0.87043100  0.76923200  1
  Al  Al25  1  0.19230600  0.87043100  0.73076800  1
  Al  Al26  1  0.19230600  0.12956900  0.23076800  1
  Al  Al27  1  0.80769400  0.12956900  0.26923200  1
  Al  Al28  1  0.30769400  0.37043100  0.76923200  1
  Al  Al29  1  0.69230600  0.37043100  0.73076800  1
  Al  Al30  1  0.69230600  0.62956900  0.23076800  1
  Al  Al31  1  0.30769400  0.62956900  0.26923200  1
  H  H32  1  0.45702800  0.81482000  0.94415700  1
  H  H33  1  0.54297200  0.81482000  0.55584300  1
  H  H34  1  0.54297200  0.18518000  0.05584300  1
  H  H35  1  0.45702800  0.18518000  0.44415700  1
  H  H36  1  0.46429950  0.81466350  0.04920700  1
  H  H37  1  0.53570050  0.81466350  0.45079300  1
  H  H38  1  0.53570050  0.18533650  0.95079300  1
  H  H39  1  0.46429950  0.18533650  0.54920700  1
  H  H40  1  0.40938450  0.59805350  0.09359700  1
  H  H41  1  0.59061550  0.59805350  0.40640300  1
  H  H42  1  0.59061550  0.40194650  0.90640300  1
  H  H43  1  0.40938450  0.40194650  0.59359700  1
  H  H44  1  0.87370250  0.10220850  0.99477400  1
  H  H45  1  0.12629750  0.10220850  0.50522600  1
  H  H46  1  0.12629750  0.89779150  0.00522600  1
  H  H47  1  0.87370250  0.89779150  0.49477400  1
  H  H48  1  0.33570250  0.31949850  0.08379400  1
  H  H49  1  0.66429750  0.31949850  0.41620600  1
  H  H50  1  0.66429750  0.68050150  0.91620600  1
  H  H51  1  0.33570250  0.68050150  0.58379400  1
  H  H52  1  0.78787700  0.83047400  0.98824800  1
  H  H53  1  0.21212300  0.83047400  0.51175200  1
  H  H54  1  0.21212300  0.16952600  0.01175200  1
  H  H55  1  0.78787700  0.16952600  0.48824800  1
  H  H56  1  0.73086500  0.05618700  0.99915800  1
  H  H57  1  0.26913500  0.05618700  0.50084200  1
  H  H58  1  0.26913500  0.94381300  0.00084200  1
  H  H59  1  0.73086500  0.94381300  0.49915800  1
  H  H60  1  0.74145150  0.00552050  0.09380000  1
  H  H61  1  0.25854850  0.00552050  0.40620000  1
  H  H62  1  0.25854850  0.99447950  0.90620000  1
  H  H63  1  0.74145150  0.99447950  0.59380000  1
  H  H64  1  0.78023300  0.21704400  0.89492200  1
  H  H65  1  0.21976700  0.21704400  0.60507800  1
  H  H66  1  0.21976700  0.78295600  0.10507800  1
  H  H67  1  0.78023300  0.78295600  0.39492200  1
  H  H68  1  0.77755750  0.09347650  0.87898700  1
  H  H69  1  0.22244250  0.09347650  0.62101300  1
  H  H70  1  0.22244250  0.90652350  0.12101300  1
  H  H71  1  0.77755750  0.90652350  0.37898700  1
  H  H72  1  0.95702800  0.31482000  0.94415700  1
  H  H73  1  0.04297200  0.31482000  0.55584300  1
  H  H74  1  0.04297200  0.68518000  0.05584300  1
  H  H75  1  0.95702800  0.68518000  0.44415700  1
  H  H76  1  0.96429950  0.31466350  0.04920700  1
  H  H77  1  0.03570050  0.31466350  0.45079300  1
  H  H78  1  0.03570050  0.68533650  0.95079300  1
  H  H79  1  0.96429950  0.68533650  0.54920700  1
  H  H80  1  0.90938450  0.09805350  0.09359700  1
  H  H81  1  0.09061550  0.09805350  0.40640300  1
  H  H82  1  0.09061550  0.90194650  0.90640300  1
  H  H83  1  0.90938450  0.90194650  0.59359700  1
  H  H84  1  0.37370250  0.60220850  0.99477400  1
  H  H85  1  0.62629750  0.60220850  0.50522600  1
  H  H86  1  0.62629750  0.39779150  0.00522600  1
  H  H87  1  0.37370250  0.39779150  0.49477400  1
  H  H88  1  0.83570250  0.81949850  0.08379400  1
  H  H89  1  0.16429750  0.81949850  0.41620600  1
  H  H90  1  0.16429750  0.18050150  0.91620600  1
  H  H91  1  0.83570250  0.18050150  0.58379400  1
  H  H92  1  0.28787700  0.33047400  0.98824800  1
  H  H93  1  0.71212300  0.33047400  0.51175200  1
  H  H94  1  0.71212300  0.66952600  0.01175200  1
  H  H95  1  0.28787700  0.66952600  0.48824800  1
  H  H96  1  0.23086500  0.55618700  0.99915800  1
  H  H97  1  0.76913500  0.55618700  0.50084200  1
  H  H98  1  0.76913500  0.44381300  0.00084200  1
  H  H99  1  0.23086500  0.44381300  0.49915800  1
  H  H100  1  0.24145150  0.50552050  0.09380000  1
  H  H101  1  0.75854850  0.50552050  0.40620000  1
  H  H102  1  0.75854850  0.49447950  0.90620000  1
  H  H103  1  0.24145150  0.49447950  0.59380000  1
  H  H104  1  0.28023300  0.71704400  0.89492200  1
  H  H105  1  0.71976700  0.71704400  0.60507800  1
  H  H106  1  0.71976700  0.28295600  0.10507800  1
  H  H107  1  0.28023300  0.28295600  0.39492200  1
  H  H108  1  0.27755750  0.59347650  0.87898700  1
  H  H109  1  0.72244250  0.59347650  0.62101300  1
  H  H110  1  0.72244250  0.40652350  0.12101300  1
  H  H111  1  0.27755750  0.40652350  0.37898700  1
  C  C112  1  0.66229450  0.89273050  0.81216700  1
  C  C113  1  0.33770550  0.89273050  0.68783300  1
  C  C114  1  0.33770550  0.10726950  0.18783300  1
  C  C115  1  0.66229450  0.10726950  0.31216700  1
  C  C116  1  0.64995800  0.84957000  0.71613800  1
  C  C117  1  0.35004200  0.84957000  0.78386200  1
  C  C118  1  0.35004200  0.15043000  0.28386200  1
  C  C119  1  0.64995800  0.15043000  0.21613800  1
  C  C120  1  0.39601400  0.21834800  0.70480900  1
  C  C121  1  0.60398600  0.21834800  0.79519100  1
  C  C122  1  0.60398600  0.78165200  0.29519100  1
  C  C123  1  0.39601400  0.78165200  0.20480900  1
  C  C124  1  0.37281300  0.17410800  0.79105100  1
  C  C125  1  0.62718700  0.17410800  0.70894900  1
  C  C126  1  0.62718700  0.82589200  0.20894900  1
  C  C127  1  0.37281300  0.82589200  0.29105100  1
  C  C128  1  0.85897100  0.06801500  0.73149200  1
  C  C129  1  0.14102900  0.06801500  0.76850800  1
  C  C130  1  0.14102900  0.93198500  0.26850800  1
  C  C131  1  0.85897100  0.93198500  0.23149200  1
  C  C132  1  0.91360250  0.03142950  0.81636200  1
  C  C133  1  0.08639750  0.03142950  0.68363800  1
  C  C134  1  0.08639750  0.96857050  0.18363800  1
  C  C135  1  0.91360250  0.96857050  0.31636200  1
  C  C136  1  0.16229450  0.39273050  0.81216700  1
  C  C137  1  0.83770550  0.39273050  0.68783300  1
  C  C138  1  0.83770550  0.60726950  0.18783300  1
  C  C139  1  0.16229450  0.60726950  0.31216700  1
  C  C140  1  0.14995800  0.34957000  0.71613800  1
  C  C141  1  0.85004200  0.34957000  0.78386200  1
  C  C142  1  0.85004200  0.65043000  0.28386200  1
  C  C143  1  0.14995800  0.65043000  0.21613800  1
  C  C144  1  0.89601400  0.71834800  0.70480900  1
  C  C145  1  0.10398600  0.71834800  0.79519100  1
  C  C146  1  0.10398600  0.28165200  0.29519100  1
  C  C147  1  0.89601400  0.28165200  0.20480900  1
  C  C148  1  0.87281300  0.67410800  0.79105100  1
  C  C149  1  0.12718700  0.67410800  0.70894900  1
  C  C150  1  0.12718700  0.32589200  0.20894900  1
  C  C151  1  0.87281300  0.32589200  0.29105100  1
  C  C152  1  0.35897100  0.56801500  0.73149200  1
  C  C153  1  0.64102900  0.56801500  0.76850800  1
  C  C154  1  0.64102900  0.43198500  0.26850800  1
  C  C155  1  0.35897100  0.43198500  0.23149200  1
  C  C156  1  0.41360250  0.53142950  0.81636200  1
  C  C157  1  0.58639750  0.53142950  0.68363800  1
  C  C158  1  0.58639750  0.46857050  0.18363800  1
  C  C159  1  0.41360250  0.46857050  0.31636200  1
  O  O160  1  0.73541950  0.91035750  0.84393200  1
  O  O161  1  0.26458050  0.91035750  0.65606800  1
  O  O162  1  0.26458050  0.08964250  0.15606800  1
  O  O163  1  0.73541950  0.08964250  0.34393200  1
  O  O164  1  0.71507400  0.82596000  0.68982500  1
  O  O165  1  0.28492600  0.82596000  0.81017500  1
  O  O166  1  0.28492600  0.17404000  0.31017500  1
  O  O167  1  0.71507400  0.17404000  0.18982500  1
  O  O168  1  0.60582050  0.90496950  0.85083800  1
  O  O169  1  0.39417950  0.90496950  0.64916200  1
  O  O170  1  0.39417950  0.09503050  0.14916200  1
  O  O171  1  0.60582050  0.09503050  0.35083800  1
  O  O172  1  0.58306350  0.83886550  0.67331300  1
  O  O173  1  0.41693650  0.83886550  0.82668700  1
  O  O174  1  0.41693650  0.16113450  0.32668700  1
  O  O175  1  0.58306350  0.16113450  0.17331300  1
  O  O176  1  0.37203600  0.31546700  0.68847200  1
  O  O177  1  0.62796400  0.31546700  0.81152800  1
  O  O178  1  0.62796400  0.68453300  0.31152800  1
  O  O179  1  0.37203600  0.68453300  0.18847200  1
  O  O180  1  0.32946200  0.23939400  0.82730000  1
  O  O181  1  0.67053800  0.23939400  0.67270000  1
  O  O182  1  0.67053800  0.76060600  0.17270000  1
  O  O183  1  0.32946200  0.76060600  0.32730000  1
  O  O184  1  0.43437750  0.16337450  0.66029600  1
  O  O185  1  0.56562250  0.16337450  0.83970400  1
  O  O186  1  0.56562250  0.83662550  0.33970400  1
  O  O187  1  0.43437750  0.83662550  0.16029600  1
  O  O188  1  0.39603150  0.08627750  0.82121000  1
  O  O189  1  0.60396850  0.08627750  0.67879000  1
  O  O190  1  0.60396850  0.91372250  0.17879000  1
  O  O191  1  0.39603150  0.91372250  0.32121000  1
  O  O192  1  0.80152850  0.00305650  0.70740600  1
  O  O193  1  0.19847150  0.00305650  0.79259400  1
  O  O194  1  0.19847150  0.99694350  0.29259400  1
  O  O195  1  0.80152850  0.99694350  0.20740600  1
  O  O196  1  0.89329950  0.93985750  0.84501600  1
  O  O197  1  0.10670050  0.93985750  0.65498400  1
  O  O198  1  0.10670050  0.06014250  0.15498400  1
  O  O199  1  0.89329950  0.06014250  0.34501600  1
  O  O200  1  0.37186050  0.65209750  0.69430000  1
  O  O201  1  0.62813950  0.65209750  0.80570000  1
  O  O202  1  0.62813950  0.34790250  0.30570000  1
  O  O203  1  0.37186050  0.34790250  0.19430000  1
  O  O204  1  0.46884250  0.58816450  0.85025600  1
  O  O205  1  0.53115750  0.58816450  0.64974400  1
  O  O206  1  0.53115750  0.41183550  0.14974400  1
  O  O207  1  0.46884250  0.41183550  0.35025600  1
  O  O208  1  0.49330050  0.80259650  0.00007400  1
  O  O209  1  0.50669950  0.80259650  0.49992600  1
  O  O210  1  0.50669950  0.19740350  0.99992600  1
  O  O211  1  0.49330050  0.19740350  0.50007400  1
  O  O212  1  0.91483550  0.06593450  0.03662900  1
  O  O213  1  0.08516450  0.06593450  0.46337100  1
  O  O214  1  0.08516450  0.93406550  0.96337100  1
  O  O215  1  0.91483550  0.93406550  0.53662900  1
  O  O216  1  0.33369850  0.29558850  0.02188200  1
  O  O217  1  0.66630150  0.29558850  0.47811800  1
  O  O218  1  0.66630150  0.70441150  0.97811800  1
  O  O219  1  0.33369850  0.70441150  0.52188200  1
  O  O220  1  0.71405100  0.99705000  0.03296700  1
  O  O221  1  0.28594900  0.99705000  0.46703300  1
  O  O222  1  0.28594900  0.00295000  0.96703300  1
  O  O223  1  0.71405100  0.00295000  0.53296700  1
  O  O224  1  0.78124250  0.14726450  0.92514300  1
  O  O225  1  0.21875750  0.14726450  0.57485700  1
  O  O226  1  0.21875750  0.85273550  0.07485700  1
  O  O227  1  0.78124250  0.85273550  0.42514300  1
  O  O228  1  0.23541950  0.41035750  0.84393200  1
  O  O229  1  0.76458050  0.41035750  0.65606800  1
  O  O230  1  0.76458050  0.58964250  0.15606800  1
  O  O231  1  0.23541950  0.58964250  0.34393200  1
  O  O232  1  0.21507400  0.32596000  0.68982500  1
  O  O233  1  0.78492600  0.32596000  0.81017500  1
  O  O234  1  0.78492600  0.67404000  0.31017500  1
  O  O235  1  0.21507400  0.67404000  0.18982500  1
  O  O236  1  0.10582050  0.40496950  0.85083800  1
  O  O237  1  0.89417950  0.40496950  0.64916200  1
  O  O238  1  0.89417950  0.59503050  0.14916200  1
  O  O239  1  0.10582050  0.59503050  0.35083800  1
  O  O240  1  0.08306350  0.33886550  0.67331300  1
  O  O241  1  0.91693650  0.33886550  0.82668700  1
  O  O242  1  0.91693650  0.66113450  0.32668700  1
  O  O243  1  0.08306350  0.66113450  0.17331300  1
  O  O244  1  0.87203600  0.81546700  0.68847200  1
  O  O245  1  0.12796400  0.81546700  0.81152800  1
  O  O246  1  0.12796400  0.18453300  0.31152800  1
  O  O247  1  0.87203600  0.18453300  0.18847200  1
  O  O248  1  0.82946200  0.73939400  0.82730000  1
  O  O249  1  0.17053800  0.73939400  0.67270000  1
  O  O250  1  0.17053800  0.26060600  0.17270000  1
  O  O251  1  0.82946200  0.26060600  0.32730000  1
  O  O252  1  0.93437750  0.66337450  0.66029600  1
  O  O253  1  0.06562250  0.66337450  0.83970400  1
  O  O254  1  0.06562250  0.33662550  0.33970400  1
  O  O255  1  0.93437750  0.33662550  0.16029600  1
  O  O256  1  0.89603150  0.58627750  0.82121000  1
  O  O257  1  0.10396850  0.58627750  0.67879000  1
  O  O258  1  0.10396850  0.41372250  0.17879000  1
  O  O259  1  0.89603150  0.41372250  0.32121000  1
  O  O260  1  0.30152850  0.50305650  0.70740600  1
  O  O261  1  0.69847150  0.50305650  0.79259400  1
  O  O262  1  0.69847150  0.49694350  0.29259400  1
  O  O263  1  0.30152850  0.49694350  0.20740600  1
  O  O264  1  0.39329950  0.43985750  0.84501600  1
  O  O265  1  0.60670050  0.43985750  0.65498400  1
  O  O266  1  0.60670050  0.56014250  0.15498400  1
  O  O267  1  0.39329950  0.56014250  0.34501600  1
  O  O268  1  0.87186050  0.15209750  0.69430000  1
  O  O269  1  0.12813950  0.15209750  0.80570000  1
  O  O270  1  0.12813950  0.84790250  0.30570000  1
  O  O271  1  0.87186050  0.84790250  0.19430000  1
  O  O272  1  0.96884250  0.08816450  0.85025600  1
  O  O273  1  0.03115750  0.08816450  0.64974400  1
  O  O274  1  0.03115750  0.91183550  0.14974400  1
  O  O275  1  0.96884250  0.91183550  0.35025600  1
  O  O276  1  0.99330050  0.30259650  0.00007400  1
  O  O277  1  0.00669950  0.30259650  0.49992600  1
  O  O278  1  0.00669950  0.69740350  0.99992600  1
  O  O279  1  0.99330050  0.69740350  0.50007400  1
  O  O280  1  0.41483550  0.56593450  0.03662900  1
  O  O281  1  0.58516450  0.56593450  0.46337100  1
  O  O282  1  0.58516450  0.43406550  0.96337100  1
  O  O283  1  0.41483550  0.43406550  0.53662900  1
  O  O284  1  0.83369850  0.79558850  0.02188200  1
  O  O285  1  0.16630150  0.79558850  0.47811800  1
  O  O286  1  0.16630150  0.20441150  0.97811800  1
  O  O287  1  0.83369850  0.20441150  0.52188200  1
  O  O288  1  0.21405100  0.49705000  0.03296700  1
  O  O289  1  0.78594900  0.49705000  0.46703300  1
  O  O290  1  0.78594900  0.50295000  0.96703300  1
  O  O291  1  0.21405100  0.50295000  0.53296700  1
  O  O292  1  0.28124250  0.64726450  0.92514300  1
  O  O293  1  0.71875750  0.64726450  0.57485700  1
  O  O294  1  0.71875750  0.35273550  0.07485700  1
  O  O295  1  0.28124250  0.35273550  0.42514300  1
