# generated using pymatgen
data_H2C3(N2Cl)2
_symmetry_space_group_name_H-M   'P 1'
_cell_length_a   8.47781900
_cell_length_b   12.39284100
_cell_length_c   14.19902593
_cell_angle_alpha   90.00000000
_cell_angle_beta   122.75373499
_cell_angle_gamma   90.00000000
_symmetry_Int_Tables_number   1
_chemical_formula_structural   H2C3(N2Cl)2
_chemical_formula_sum   'H16 C24 N32 Cl16'
_cell_volume   1254.61796110
_cell_formula_units_Z   8
loop_
 _symmetry_equiv_pos_site_id
 _symmetry_equiv_pos_as_xyz
  1  'x, y, z'
loop_
 _atom_site_type_symbol
 _atom_site_label
 _atom_site_symmetry_multiplicity
 _atom_site_fract_x
 _atom_site_fract_y
 _atom_site_fract_z
 _atom_site_occupancy
  H  H0  1  0.70753700  0.03761600  0.16866300  1
  H  H1  1  0.29246300  0.53761600  0.33133700  1
  H  H2  1  0.29246300  0.96238400  0.83133700  1
  H  H3  1  0.70753700  0.46238400  0.66866300  1
  H  H4  1  0.91765700  0.04602000  0.16796100  1
  H  H5  1  0.08234300  0.54602000  0.33203900  1
  H  H6  1  0.08234300  0.95398000  0.83203900  1
  H  H7  1  0.91765700  0.45398000  0.66796100  1
  H  H8  1  0.09680400  0.12177200  0.05109300  1
  H  H9  1  0.90319600  0.62177200  0.44890700  1
  H  H10  1  0.90319600  0.87822800  0.94890700  1
  H  H11  1  0.09680400  0.37822800  0.55109300  1
  H  H12  1  0.31067500  0.11140700  0.05548700  1
  H  H13  1  0.68932500  0.61140700  0.44451300  1
  H  H14  1  0.68932500  0.88859300  0.94451300  1
  H  H15  1  0.31067500  0.38859300  0.55548700  1
  C  C16  1  0.69256300  0.13299100  0.04796800  1
  C  C17  1  0.30743700  0.63299100  0.45203200  1
  C  C18  1  0.30743700  0.86700900  0.95203200  1
  C  C19  1  0.69256300  0.36700900  0.54796800  1
  C  C20  1  0.43137000  0.22209400  0.91791600  1
  C  C21  1  0.56863000  0.72209400  0.58208400  1
  C  C22  1  0.56863000  0.77790600  0.08208400  1
  C  C23  1  0.43137000  0.27790600  0.41791600  1
  C  C24  1  0.68976000  0.23668800  0.91643400  1
  C  C25  1  0.31024000  0.73668800  0.58356600  1
  C  C26  1  0.31024000  0.76331200  0.08356600  1
  C  C27  1  0.68976000  0.26331200  0.41643400  1
  C  C28  1  0.30546200  0.03272600  0.17927300  1
  C  C29  1  0.69453800  0.53272600  0.32072700  1
  C  C30  1  0.69453800  0.96727400  0.82072700  1
  C  C31  1  0.30546200  0.46727400  0.67927300  1
  C  C32  1  0.55282200  0.94175500  0.31927500  1
  C  C33  1  0.44717800  0.44175500  0.18072500  1
  C  C34  1  0.44717800  0.05824500  0.68072500  1
  C  C35  1  0.55282200  0.55824500  0.81927500  1
  C  C36  1  0.29381100  0.95696000  0.31989000  1
  C  C37  1  0.70618900  0.45696000  0.18011000  1
  C  C38  1  0.70618900  0.04304000  0.68011000  1
  C  C39  1  0.29381100  0.54304000  0.81989000  1
  N  N40  1  0.78914200  0.17156600  0.00314300  1
  N  N41  1  0.21085800  0.67156600  0.49685700  1
  N  N42  1  0.21085800  0.82843400  0.99685700  1
  N  N43  1  0.78914200  0.32843400  0.50314300  1
  N  N44  1  0.50821500  0.15610300  0.00514300  1
  N  N45  1  0.49178500  0.65610300  0.49485700  1
  N  N46  1  0.49178500  0.84389700  0.99485700  1
  N  N47  1  0.50821500  0.34389700  0.50514300  1
  N  N48  1  0.51157000  0.26763600  0.86869400  1
  N  N49  1  0.48843000  0.76763600  0.63130600  1
  N  N50  1  0.48843000  0.73236400  0.13130600  1
  N  N51  1  0.51157000  0.23236400  0.36869400  1
  N  N52  1  0.20191900  0.01119400  0.22439300  1
  N  N53  1  0.79808100  0.51119400  0.27560700  1
  N  N54  1  0.79808100  0.98880600  0.77560700  1
  N  N55  1  0.20191900  0.48880600  0.72439300  1
  N  N56  1  0.48435200  0.99552000  0.22431900  1
  N  N57  1  0.51564800  0.49552000  0.27568100  1
  N  N58  1  0.51564800  0.00448000  0.77568100  1
  N  N59  1  0.48435200  0.50448000  0.72431900  1
  N  N60  1  0.46927800  0.91963700  0.37431100  1
  N  N61  1  0.53072200  0.41963700  0.12568900  1
  N  N62  1  0.53072200  0.08036300  0.62568900  1
  N  N63  1  0.46927800  0.58036300  0.87431100  1
  N  N64  1  0.78173300  0.06909500  0.13751100  1
  N  N65  1  0.21826700  0.56909500  0.36248900  1
  N  N66  1  0.21826700  0.93090500  0.86248900  1
  N  N67  1  0.78173300  0.43090500  0.63751100  1
  N  N68  1  0.22926400  0.09118700  0.08588700  1
  N  N69  1  0.77073600  0.59118700  0.41411300  1
  N  N70  1  0.77073600  0.90881300  0.91411300  1
  N  N71  1  0.22926400  0.40881300  0.58588700  1
  Cl  Cl72  1  0.19753000  0.25119700  0.85852200  1
  Cl  Cl73  1  0.80247000  0.75119700  0.64147800  1
  Cl  Cl74  1  0.80247000  0.74880300  0.14147800  1
  Cl  Cl75  1  0.19753000  0.24880300  0.35852200  1
  Cl  Cl76  1  0.80383400  0.28848800  0.85566300  1
  Cl  Cl77  1  0.19616600  0.78848800  0.64433700  1
  Cl  Cl78  1  0.19616600  0.71151200  0.14433700  1
  Cl  Cl79  1  0.80383400  0.21151200  0.35566300  1
  Cl  Cl80  1  0.77840600  0.89298400  0.38122600  1
  Cl  Cl81  1  0.22159400  0.39298400  0.11877400  1
  Cl  Cl82  1  0.22159400  0.10701600  0.61877400  1
  Cl  Cl83  1  0.77840600  0.60701600  0.88122600  1
  Cl  Cl84  1  0.16997300  0.93068000  0.38166800  1
  Cl  Cl85  1  0.83002700  0.43068000  0.11833200  1
  Cl  Cl86  1  0.83002700  0.06932000  0.61833200  1
  Cl  Cl87  1  0.16997300  0.56932000  0.88166800  1
