# generated using pymatgen
data_Cr3Pb5F19
_symmetry_space_group_name_H-M   'P 1'
_cell_length_a   7.72902400
_cell_length_b   21.18550400
_cell_length_c   11.27066833
_cell_angle_alpha   90.00000000
_cell_angle_beta   109.96362497
_cell_angle_gamma   90.00000000
_symmetry_Int_Tables_number   1
_chemical_formula_structural   Cr3Pb5F19
_chemical_formula_sum   'Cr12 Pb20 F76'
_cell_volume   1734.59941812
_cell_formula_units_Z   4
loop_
 _symmetry_equiv_pos_site_id
 _symmetry_equiv_pos_as_xyz
  1  'x, y, z'
loop_
 _atom_site_type_symbol
 _atom_site_label
 _atom_site_symmetry_multiplicity
 _atom_site_fract_x
 _atom_site_fract_y
 _atom_site_fract_z
 _atom_site_occupancy
  Cr  Cr0  1  0.48552150  0.33822050  0.49994300  1
  Cr  Cr1  1  0.64633300  0.00000000  0.82496100  1
  Cr  Cr2  1  0.32444000  0.00000000  0.17597100  1
  Cr  Cr3  1  0.98552150  0.16177950  0.49994300  1
  Cr  Cr4  1  0.43831900  0.25031500  0.00020100  1
  Cr  Cr5  1  0.93831900  0.24968500  0.00020100  1
  Cr  Cr6  1  0.98552150  0.83822050  0.49994300  1
  Cr  Cr7  1  0.14633300  0.50000000  0.82496100  1
  Cr  Cr8  1  0.82444000  0.50000000  0.17597100  1
  Cr  Cr9  1  0.48552150  0.66177950  0.49994300  1
  Cr  Cr10  1  0.93831900  0.75031500  0.00020100  1
  Cr  Cr11  1  0.43831900  0.74968500  0.00020100  1
  Pb  Pb12  1  0.66030800  0.00000000  0.50157500  1
  Pb  Pb13  1  0.84720550  0.09583650  0.16237400  1
  Pb  Pb14  1  0.92031850  0.33153550  0.30894400  1
  Pb  Pb15  1  0.15951900  0.00000000  0.49994600  1
  Pb  Pb16  1  0.34720550  0.40416350  0.16237400  1
  Pb  Pb17  1  0.68186100  0.40526200  0.83897000  1
  Pb  Pb18  1  0.18186100  0.09473800  0.83897000  1
  Pb  Pb19  1  0.42031850  0.16846450  0.30894400  1
  Pb  Pb20  1  0.61014450  0.16958050  0.69062600  1
  Pb  Pb21  1  0.11014450  0.33041950  0.69062600  1
  Pb  Pb22  1  0.16030800  0.50000000  0.50157500  1
  Pb  Pb23  1  0.34720550  0.59583650  0.16237400  1
  Pb  Pb24  1  0.42031850  0.83153550  0.30894400  1
  Pb  Pb25  1  0.65951900  0.50000000  0.49994600  1
  Pb  Pb26  1  0.84720550  0.90416350  0.16237400  1
  Pb  Pb27  1  0.18186100  0.90526200  0.83897000  1
  Pb  Pb28  1  0.68186100  0.59473800  0.83897000  1
  Pb  Pb29  1  0.92031850  0.66846450  0.30894400  1
  Pb  Pb30  1  0.11014450  0.66958050  0.69062600  1
  Pb  Pb31  1  0.61014450  0.83041950  0.69062600  1
  F  F32  1  0.02922800  0.39219600  0.50121700  1
  F  F33  1  0.71967800  0.36097300  0.63258100  1
  F  F34  1  0.79234300  0.06665400  0.77951700  1
  F  F35  1  0.88630900  0.17254400  0.63363400  1
  F  F36  1  0.49454900  0.00000000  0.64599100  1
  F  F37  1  0.58821450  0.36093150  0.36748700  1
  F  F38  1  0.42208750  0.15961450  0.98216000  1
  F  F39  1  0.52657750  0.24128050  0.18146200  1
  F  F40  1  0.51466100  0.06640300  0.22088600  1
  F  F41  1  0.29234300  0.43334600  0.77951700  1
  F  F42  1  0.49056200  0.06820600  0.84593800  1
  F  F43  1  0.02657750  0.25871950  0.18146200  1
  F  F44  1  0.92208750  0.34038550  0.98216000  1
  F  F45  1  0.38630900  0.32745600  0.63363400  1
  F  F46  1  0.28087400  0.00000000  0.99342800  1
  F  F47  1  0.53628750  0.24719750  0.49993300  1
  F  F48  1  0.25234150  0.32730850  0.36471400  1
  F  F49  1  0.08821450  0.13906850  0.36748700  1
  F  F50  1  0.42120600  0.42752500  0.49943200  1
  F  F51  1  0.85025200  0.23807200  0.81977500  1
  F  F52  1  0.68849600  0.24636800  0.00026000  1
  F  F53  1  0.13292500  0.00000000  0.71517400  1
  F  F54  1  0.35025200  0.26192800  0.81977500  1
  F  F55  1  0.35207100  0.00000000  0.35521600  1
  F  F56  1  0.78761200  0.00000000  0.00683800  1
  F  F57  1  0.75234150  0.17269150  0.36471400  1
  F  F58  1  0.52922800  0.10780400  0.50121700  1
  F  F59  1  0.99056200  0.43179400  0.84593800  1
  F  F60  1  0.18849600  0.25363200  0.00026000  1
  F  F61  1  0.64679950  0.43256650  0.15407300  1
  F  F62  1  0.03628750  0.25280250  0.49993300  1
  F  F63  1  0.01466100  0.43359700  0.22088600  1
  F  F64  1  0.21967800  0.13902700  0.63258100  1
  F  F65  1  0.14679950  0.06743350  0.15407300  1
  F  F66  1  0.95602550  0.15954950  0.02351900  1
  F  F67  1  0.92120600  0.07247500  0.49943200  1
  F  F68  1  0.91956000  0.00000000  0.28343600  1
  F  F69  1  0.45602550  0.34045050  0.02351900  1
  F  F70  1  0.52922800  0.89219600  0.50121700  1
  F  F71  1  0.21967800  0.86097300  0.63258100  1
  F  F72  1  0.29234300  0.56665400  0.77951700  1
  F  F73  1  0.38630900  0.67254400  0.63363400  1
  F  F74  1  0.99454900  0.50000000  0.64599100  1
  F  F75  1  0.08821450  0.86093150  0.36748700  1
  F  F76  1  0.92208750  0.65961450  0.98216000  1
  F  F77  1  0.02657750  0.74128050  0.18146200  1
  F  F78  1  0.01466100  0.56640300  0.22088600  1
  F  F79  1  0.79234300  0.93334600  0.77951700  1
  F  F80  1  0.99056200  0.56820600  0.84593800  1
  F  F81  1  0.52657750  0.75871950  0.18146200  1
  F  F82  1  0.42208750  0.84038550  0.98216000  1
  F  F83  1  0.88630900  0.82745600  0.63363400  1
  F  F84  1  0.78087400  0.50000000  0.99342800  1
  F  F85  1  0.03628750  0.74719750  0.49993300  1
  F  F86  1  0.75234150  0.82730850  0.36471400  1
  F  F87  1  0.58821450  0.63906850  0.36748700  1
  F  F88  1  0.92120600  0.92752500  0.49943200  1
  F  F89  1  0.35025200  0.73807200  0.81977500  1
  F  F90  1  0.18849600  0.74636800  0.00026000  1
  F  F91  1  0.63292500  0.50000000  0.71517400  1
  F  F92  1  0.85025200  0.76192800  0.81977500  1
  F  F93  1  0.85207100  0.50000000  0.35521600  1
  F  F94  1  0.28761200  0.50000000  0.00683800  1
  F  F95  1  0.25234150  0.67269150  0.36471400  1
  F  F96  1  0.02922800  0.60780400  0.50121700  1
  F  F97  1  0.49056200  0.93179400  0.84593800  1
  F  F98  1  0.68849600  0.75363200  0.00026000  1
  F  F99  1  0.14679950  0.93256650  0.15407300  1
  F  F100  1  0.53628750  0.75280250  0.49993300  1
  F  F101  1  0.51466100  0.93359700  0.22088600  1
  F  F102  1  0.71967800  0.63902700  0.63258100  1
  F  F103  1  0.64679950  0.56743350  0.15407300  1
  F  F104  1  0.45602550  0.65954950  0.02351900  1
  F  F105  1  0.42120600  0.57247500  0.49943200  1
  F  F106  1  0.41956000  0.50000000  0.28343600  1
  F  F107  1  0.95602550  0.84045050  0.02351900  1
