# generated using pymatgen
data_SiO2
_symmetry_space_group_name_H-M   'P 1'
_cell_length_a   8.88918800
_cell_length_b   11.32760000
_cell_length_c   17.60475900
_cell_angle_alpha   90.00000000
_cell_angle_beta   90.00000000
_cell_angle_gamma   90.00000000
_symmetry_Int_Tables_number   1
_chemical_formula_structural   SiO2
_chemical_formula_sum   'Si32 O64'
_cell_volume   1772.67892018
_cell_formula_units_Z   32
loop_
 _symmetry_equiv_pos_site_id
 _symmetry_equiv_pos_as_xyz
  1  'x, y, z'
loop_
 _atom_site_type_symbol
 _atom_site_label
 _atom_site_symmetry_multiplicity
 _atom_site_fract_x
 _atom_site_fract_y
 _atom_site_fract_z
 _atom_site_occupancy
  Si  Si0  1  0.77609550  0.10401850  0.79105100  1
  Si  Si1  1  0.77609550  0.89598150  0.20894900  1
  Si  Si2  1  0.22390450  0.10401850  0.70894900  1
  Si  Si3  1  0.22390450  0.89598150  0.29105100  1
  Si  Si4  1  0.79713400  0.12615000  0.12492900  1
  Si  Si5  1  0.79713400  0.87385000  0.87507100  1
  Si  Si6  1  0.20286600  0.12615000  0.37507100  1
  Si  Si7  1  0.20286600  0.87385000  0.62492900  1
  Si  Si8  1  0.58712500  0.35779000  0.13892700  1
  Si  Si9  1  0.58712500  0.64221000  0.86107300  1
  Si  Si10  1  0.41287500  0.35779000  0.36107300  1
  Si  Si11  1  0.41287500  0.64221000  0.63892700  1
  Si  Si12  1  0.50000000  0.27108900  0.75000000  1
  Si  Si13  1  0.50000000  0.72891100  0.25000000  1
  Si  Si14  1  0.96860500  0.00000000  0.00000000  1
  Si  Si15  1  0.03139500  0.00000000  0.50000000  1
  Si  Si16  1  0.27609550  0.60401850  0.79105100  1
  Si  Si17  1  0.27609550  0.39598150  0.20894900  1
  Si  Si18  1  0.72390450  0.60401850  0.70894900  1
  Si  Si19  1  0.72390450  0.39598150  0.29105100  1
  Si  Si20  1  0.29713400  0.62615000  0.12492900  1
  Si  Si21  1  0.29713400  0.37385000  0.87507100  1
  Si  Si22  1  0.70286600  0.62615000  0.37507100  1
  Si  Si23  1  0.70286600  0.37385000  0.62492900  1
  Si  Si24  1  0.08712500  0.85779000  0.13892700  1
  Si  Si25  1  0.08712500  0.14221000  0.86107300  1
  Si  Si26  1  0.91287500  0.85779000  0.36107300  1
  Si  Si27  1  0.91287500  0.14221000  0.63892700  1
  Si  Si28  1  0.00000000  0.77108900  0.75000000  1
  Si  Si29  1  0.00000000  0.22891100  0.25000000  1
  Si  Si30  1  0.46860500  0.50000000  0.00000000  1
  Si  Si31  1  0.53139500  0.50000000  0.50000000  1
  O  O32  1  0.71580450  0.99141550  0.84007900  1
  O  O33  1  0.71580450  0.00858450  0.15992100  1
  O  O34  1  0.28419550  0.99141550  0.65992100  1
  O  O35  1  0.28419550  0.00858450  0.34007900  1
  O  O36  1  0.82976600  0.06479800  0.70543100  1
  O  O37  1  0.82976600  0.93520200  0.29456900  1
  O  O38  1  0.17023400  0.06479800  0.79456900  1
  O  O39  1  0.17023400  0.93520200  0.20543100  1
  O  O40  1  0.63727550  0.19434450  0.78339900  1
  O  O41  1  0.63727550  0.80565550  0.21660100  1
  O  O42  1  0.36272450  0.19434450  0.71660100  1
  O  O43  1  0.36272450  0.80565550  0.28339900  1
  O  O44  1  0.41539950  0.67204650  0.83358100  1
  O  O45  1  0.41539950  0.32795350  0.16641900  1
  O  O46  1  0.58460050  0.67204650  0.66641900  1
  O  O47  1  0.58460050  0.32795350  0.33358100  1
  O  O48  1  0.86037150  0.09932850  0.03955900  1
  O  O49  1  0.86037150  0.90067150  0.96044100  1
  O  O50  1  0.13962850  0.09932850  0.46044100  1
  O  O51  1  0.13962850  0.90067150  0.53955900  1
  O  O52  1  0.67982850  0.23635650  0.12254300  1
  O  O53  1  0.67982850  0.76364350  0.87745700  1
  O  O54  1  0.32017150  0.23635650  0.37745700  1
  O  O55  1  0.32017150  0.76364350  0.62254300  1
  O  O56  1  0.44175200  0.64989900  0.17927400  1
  O  O57  1  0.44175200  0.35010100  0.82072600  1
  O  O58  1  0.55824800  0.64989900  0.32072600  1
  O  O59  1  0.55824800  0.35010100  0.67927400  1
  O  O60  1  0.07820750  0.93679350  0.06196700  1
  O  O61  1  0.07820750  0.06320650  0.93803300  1
  O  O62  1  0.92179250  0.93679350  0.43803300  1
  O  O63  1  0.92179250  0.06320650  0.56196700  1
  O  O64  1  0.21580450  0.49141550  0.84007900  1
  O  O65  1  0.21580450  0.50858450  0.15992100  1
  O  O66  1  0.78419550  0.49141550  0.65992100  1
  O  O67  1  0.78419550  0.50858450  0.34007900  1
  O  O68  1  0.32976600  0.56479800  0.70543100  1
  O  O69  1  0.32976600  0.43520200  0.29456900  1
  O  O70  1  0.67023400  0.56479800  0.79456900  1
  O  O71  1  0.67023400  0.43520200  0.20543100  1
  O  O72  1  0.13727550  0.69434450  0.78339900  1
  O  O73  1  0.13727550  0.30565550  0.21660100  1
  O  O74  1  0.86272450  0.69434450  0.71660100  1
  O  O75  1  0.86272450  0.30565550  0.28339900  1
  O  O76  1  0.91539950  0.17204650  0.83358100  1
  O  O77  1  0.91539950  0.82795350  0.16641900  1
  O  O78  1  0.08460050  0.17204650  0.66641900  1
  O  O79  1  0.08460050  0.82795350  0.33358100  1
  O  O80  1  0.36037150  0.59932850  0.03955900  1
  O  O81  1  0.36037150  0.40067150  0.96044100  1
  O  O82  1  0.63962850  0.59932850  0.46044100  1
  O  O83  1  0.63962850  0.40067150  0.53955900  1
  O  O84  1  0.17982850  0.73635650  0.12254300  1
  O  O85  1  0.17982850  0.26364350  0.87745700  1
  O  O86  1  0.82017150  0.73635650  0.37745700  1
  O  O87  1  0.82017150  0.26364350  0.62254300  1
  O  O88  1  0.94175200  0.14989900  0.17927400  1
  O  O89  1  0.94175200  0.85010100  0.82072600  1
  O  O90  1  0.05824800  0.14989900  0.32072600  1
  O  O91  1  0.05824800  0.85010100  0.67927400  1
  O  O92  1  0.57820750  0.43679350  0.06196700  1
  O  O93  1  0.57820750  0.56320650  0.93803300  1
  O  O94  1  0.42179250  0.43679350  0.43803300  1
  O  O95  1  0.42179250  0.56320650  0.56196700  1
