# generated using pymatgen
data_Rb5HfFe(MoO4)6
_symmetry_space_group_name_H-M   'P 1'
_cell_length_a   10.23347804
_cell_length_b   10.23347804
_cell_length_c   15.29367300
_cell_angle_alpha   90.00000000
_cell_angle_beta   90.00000000
_cell_angle_gamma   120.00000000
_symmetry_Int_Tables_number   1
_chemical_formula_structural   Rb5HfFe(MoO4)6
_chemical_formula_sum   'Rb10 Hf2 Fe2 Mo12 O48'
_cell_volume   1387.03990346
_cell_formula_units_Z   2
loop_
 _symmetry_equiv_pos_site_id
 _symmetry_equiv_pos_as_xyz
  1  'x, y, z'
loop_
 _atom_site_type_symbol
 _atom_site_label
 _atom_site_symmetry_multiplicity
 _atom_site_fract_x
 _atom_site_fract_y
 _atom_site_fract_z
 _atom_site_occupancy
  Rb  Rb0  1  0.31528100  0.24469500  0.75748300  1
  Rb  Rb1  1  0.00000000  0.00000000  0.01006700  1
  Rb  Rb2  1  0.33333333  0.66666667  0.07276300  1
  Rb  Rb3  1  0.00000000  0.00000000  0.51006700  1
  Rb  Rb4  1  0.07058600  0.31528100  0.25748300  1
  Rb  Rb5  1  0.24469500  0.92941400  0.25748300  1
  Rb  Rb6  1  0.66666667  0.33333333  0.57276300  1
  Rb  Rb7  1  0.75530500  0.07058600  0.75748300  1
  Rb  Rb8  1  0.68471900  0.75530500  0.25748300  1
  Rb  Rb9  1  0.92941400  0.68471900  0.75748300  1
  Hf  Hf10  1  0.33333333  0.66666667  0.47319600  1
  Hf  Hf11  1  0.66666667  0.33333333  0.97319600  1
  Fe  Fe12  1  0.33333333  0.66666667  0.80987300  1
  Fe  Fe13  1  0.66666667  0.33333333  0.30987300  1
  Mo  Mo14  1  0.65721100  0.02670900  0.42077000  1
  Mo  Mo15  1  0.31341400  0.90305400  0.65588700  1
  Mo  Mo16  1  0.97329100  0.63050200  0.42077000  1
  Mo  Mo17  1  0.41036000  0.31341400  0.15588700  1
  Mo  Mo18  1  0.68658600  0.09694600  0.15588700  1
  Mo  Mo19  1  0.36949800  0.34278900  0.42077000  1
  Mo  Mo20  1  0.09694600  0.41036000  0.65588700  1
  Mo  Mo21  1  0.34278900  0.97329100  0.92077000  1
  Mo  Mo22  1  0.02670900  0.36949800  0.92077000  1
  Mo  Mo23  1  0.58964000  0.68658600  0.65588700  1
  Mo  Mo24  1  0.63050200  0.65721100  0.92077000  1
  Mo  Mo25  1  0.90305400  0.58964000  0.15588700  1
  O  O26  1  0.40644700  0.84414200  0.88508900  1
  O  O27  1  0.76330800  0.25428200  0.23367700  1
  O  O28  1  0.77924600  0.82634400  0.64084300  1
  O  O29  1  0.59355300  0.15585800  0.38508900  1
  O  O30  1  0.74571800  0.50902600  0.23367700  1
  O  O31  1  0.49097400  0.23669200  0.23367700  1
  O  O32  1  0.31445200  0.48825900  0.40015400  1
  O  O33  1  0.94445500  0.76445900  0.36443100  1
  O  O34  1  0.84412800  0.48882900  0.05089600  1
  O  O35  1  0.94046200  0.64597400  0.53219900  1
  O  O36  1  0.23669200  0.74571800  0.73367700  1
  O  O37  1  0.17365600  0.95290200  0.64084300  1
  O  O38  1  0.05554500  0.23554100  0.86443100  1
  O  O39  1  0.47533500  0.06650600  0.69533700  1
  O  O40  1  0.56230500  0.40644700  0.38508900  1
  O  O41  1  0.84414200  0.43769500  0.38508900  1
  O  O42  1  0.23554100  0.17999600  0.36443100  1
  O  O43  1  0.93349400  0.40882900  0.69533700  1
  O  O44  1  0.82000400  0.05554500  0.36443100  1
  O  O45  1  0.04709800  0.22075400  0.64084300  1
  O  O46  1  0.17380700  0.68554800  0.40015400  1
  O  O47  1  0.22075400  0.17365600  0.14084300  1
  O  O48  1  0.15587200  0.51117100  0.55089600  1
  O  O49  1  0.59117100  0.52466500  0.69533700  1
  O  O50  1  0.64470100  0.15587200  0.05089600  1
  O  O51  1  0.17999600  0.94445500  0.86443100  1
  O  O52  1  0.52466500  0.93349400  0.19533700  1
  O  O53  1  0.35529900  0.84412800  0.55089600  1
  O  O54  1  0.15585800  0.56230500  0.88508900  1
  O  O55  1  0.51174100  0.82619300  0.40015400  1
  O  O56  1  0.35402600  0.29448800  0.53219900  1
  O  O57  1  0.82634400  0.04709800  0.14084300  1
  O  O58  1  0.06650600  0.59117100  0.19533700  1
  O  O59  1  0.29448800  0.94046200  0.03219900  1
  O  O60  1  0.48825900  0.17380700  0.90015400  1
  O  O61  1  0.64597400  0.70551200  0.03219900  1
  O  O62  1  0.50902600  0.76330800  0.73367700  1
  O  O63  1  0.25428200  0.49097400  0.73367700  1
  O  O64  1  0.70551200  0.05953800  0.53219900  1
  O  O65  1  0.48882900  0.64470100  0.55089600  1
  O  O66  1  0.82619300  0.31445200  0.90015400  1
  O  O67  1  0.51117100  0.35529900  0.05089600  1
  O  O68  1  0.05953800  0.35402600  0.03219900  1
  O  O69  1  0.40882900  0.47533500  0.19533700  1
  O  O70  1  0.43769500  0.59355300  0.88508900  1
  O  O71  1  0.68554800  0.51174100  0.90015400  1
  O  O72  1  0.95290200  0.77924600  0.14084300  1
  O  O73  1  0.76445900  0.82000400  0.86443100  1
