# generated using pymatgen
data_NaAlH2CO5
_symmetry_space_group_name_H-M   'P 1'
_cell_length_a   5.65797800
_cell_length_b   6.92833600
_cell_length_c   10.42344200
_cell_angle_alpha   90.00000000
_cell_angle_beta   90.00000000
_cell_angle_gamma   90.00000000
_symmetry_Int_Tables_number   1
_chemical_formula_structural   NaAlH2CO5
_chemical_formula_sum   'Na4 Al4 H8 C4 O20'
_cell_volume   408.60281085
_cell_formula_units_Z   4
loop_
 _symmetry_equiv_pos_site_id
 _symmetry_equiv_pos_as_xyz
  1  'x, y, z'
loop_
 _atom_site_type_symbol
 _atom_site_label
 _atom_site_symmetry_multiplicity
 _atom_site_fract_x
 _atom_site_fract_y
 _atom_site_fract_z
 _atom_site_occupancy
  Na  Na0  1  0.00000000  0.00000000  0.00000000  1
  Na  Na1  1  0.00000000  0.50000000  0.00000000  1
  Na  Na2  1  0.50000000  0.50000000  0.50000000  1
  Na  Na3  1  0.50000000  0.00000000  0.50000000  1
  Al  Al4  1  0.75000000  0.25000000  0.75000000  1
  Al  Al5  1  0.25000000  0.25000000  0.75000000  1
  Al  Al6  1  0.25000000  0.75000000  0.25000000  1
  Al  Al7  1  0.75000000  0.75000000  0.25000000  1
  H  H8  1  0.50000000  0.95314400  0.77923600  1
  H  H9  1  0.00000000  0.95314400  0.72076400  1
  H  H10  1  0.50000000  0.04685600  0.22076400  1
  H  H11  1  0.00000000  0.04685600  0.27923600  1
  H  H12  1  0.00000000  0.45314400  0.27923600  1
  H  H13  1  0.50000000  0.45314400  0.22076400  1
  H  H14  1  0.00000000  0.54685600  0.72076400  1
  H  H15  1  0.50000000  0.54685600  0.77923600  1
  C  C16  1  0.50000000  0.25000000  0.99867500  1
  C  C17  1  0.50000000  0.75000000  0.00132500  1
  C  C18  1  0.00000000  0.75000000  0.49867500  1
  C  C19  1  0.00000000  0.25000000  0.50132500  1
  O  O20  1  0.50000000  0.25000000  0.12015900  1
  O  O21  1  0.50000000  0.75000000  0.87984100  1
  O  O22  1  0.70097200  0.25000000  0.93516500  1
  O  O23  1  0.29902800  0.75000000  0.06483500  1
  O  O24  1  0.70097200  0.75000000  0.06483500  1
  O  O25  1  0.29902800  0.25000000  0.93516500  1
  O  O26  1  0.50000000  0.07105350  0.72482550  1
  O  O27  1  0.00000000  0.07105350  0.77517450  1
  O  O28  1  0.50000000  0.92894650  0.27517450  1
  O  O29  1  0.00000000  0.92894650  0.22482550  1
  O  O30  1  0.00000000  0.75000000  0.62015900  1
  O  O31  1  0.00000000  0.25000000  0.37984100  1
  O  O32  1  0.20097200  0.75000000  0.43516500  1
  O  O33  1  0.79902800  0.25000000  0.56483500  1
  O  O34  1  0.20097200  0.25000000  0.56483500  1
  O  O35  1  0.79902800  0.75000000  0.43516500  1
  O  O36  1  0.00000000  0.57105350  0.22482550  1
  O  O37  1  0.50000000  0.57105350  0.27517450  1
  O  O38  1  0.00000000  0.42894650  0.77517450  1
  O  O39  1  0.50000000  0.42894650  0.72482550  1
