# generated using pymatgen
data_Ca5MnSi9(Pb3O11)3
_symmetry_space_group_name_H-M   'P 1'
_cell_length_a   9.98896350
_cell_length_b   9.98896350
_cell_length_c   10.29275800
_cell_angle_alpha   90.00000000
_cell_angle_beta   90.00000000
_cell_angle_gamma   120.00000000
_symmetry_Int_Tables_number   1
_chemical_formula_structural   Ca5MnSi9(Pb3O11)3
_chemical_formula_sum   'Ca5 Mn1 Si9 Pb9 O33'
_cell_volume   889.41253456
_cell_formula_units_Z   1
loop_
 _symmetry_equiv_pos_site_id
 _symmetry_equiv_pos_as_xyz
  1  'x, y, z'
loop_
 _atom_site_type_symbol
 _atom_site_label
 _atom_site_symmetry_multiplicity
 _atom_site_fract_x
 _atom_site_fract_y
 _atom_site_fract_z
 _atom_site_occupancy
  Ca  Ca0  1  0.66666667  0.33333333  0.16056300  1
  Ca  Ca1  1  0.00000000  0.00000000  0.17918800  1
  Ca  Ca2  1  0.66666667  0.33333333  0.83943700  1
  Ca  Ca3  1  0.00000000  0.00000000  0.82081200  1
  Ca  Ca4  1  0.66666667  0.33333333  0.50000000  1
  Mn  Mn5  1  0.00000000  0.00000000  0.50000000  1
  Si  Si6  1  0.92945000  0.28327600  0.35160100  1
  Si  Si7  1  0.71672400  0.64617400  0.35160100  1
  Si  Si8  1  0.30965600  0.25767600  0.00000000  1
  Si  Si9  1  0.35382600  0.07055000  0.64839900  1
  Si  Si10  1  0.94802000  0.69034400  0.00000000  1
  Si  Si11  1  0.92945000  0.28327600  0.64839900  1
  Si  Si12  1  0.74232400  0.05198000  0.00000000  1
  Si  Si13  1  0.71672400  0.64617400  0.64839900  1
  Si  Si14  1  0.35382600  0.07055000  0.35160100  1
  Pb  Pb15  1  0.60357000  0.93903200  0.67701900  1
  Pb  Pb16  1  0.06096800  0.66453800  0.32298100  1
  Pb  Pb17  1  0.31806200  0.91894100  0.00000000  1
  Pb  Pb18  1  0.60087900  0.68193800  0.00000000  1
  Pb  Pb19  1  0.33546200  0.39643000  0.67701900  1
  Pb  Pb20  1  0.08105900  0.39912100  0.00000000  1
  Pb  Pb21  1  0.60357000  0.93903200  0.32298100  1
  Pb  Pb22  1  0.06096800  0.66453800  0.67701900  1
  Pb  Pb23  1  0.33546200  0.39643000  0.32298100  1
  O  O24  1  0.82968400  0.50660800  0.00000000  1
  O  O25  1  0.96016700  0.36725600  0.50000000  1
  O  O26  1  0.63274400  0.59291100  0.50000000  1
  O  O27  1  0.07070500  0.75371000  0.12445300  1
  O  O28  1  0.79209900  0.53150900  0.32990100  1
  O  O29  1  0.02381700  0.42601200  0.75166400  1
  O  O30  1  0.84910900  0.82554100  0.65155100  1
  O  O31  1  0.68300500  0.92929500  0.12445300  1
  O  O32  1  0.97643200  0.15089100  0.34844900  1
  O  O33  1  0.84910900  0.82554100  0.34844900  1
  O  O34  1  0.46849100  0.26059000  0.32990100  1
  O  O35  1  0.97643200  0.15089100  0.65155100  1
  O  O36  1  0.57398800  0.59780500  0.75166400  1
  O  O37  1  0.02381700  0.42601200  0.24833600  1
  O  O38  1  0.67692400  0.17031600  0.00000000  1
  O  O39  1  0.40219500  0.97618300  0.75166400  1
  O  O40  1  0.40219500  0.97618300  0.24833600  1
  O  O41  1  0.40708900  0.03983300  0.50000000  1
  O  O42  1  0.20440500  0.06621300  0.00000000  1
  O  O43  1  0.79209900  0.53150900  0.67009900  1
  O  O44  1  0.24629000  0.31699500  0.87554700  1
  O  O45  1  0.73941000  0.20790100  0.32990100  1
  O  O46  1  0.57398800  0.59780500  0.24833600  1
  O  O47  1  0.17445900  0.02356800  0.65155100  1
  O  O48  1  0.73941000  0.20790100  0.67009900  1
  O  O49  1  0.24629000  0.31699500  0.12445300  1
  O  O50  1  0.93378700  0.13819200  0.00000000  1
  O  O51  1  0.86180800  0.79559500  0.00000000  1
  O  O52  1  0.17445900  0.02356800  0.34844900  1
  O  O53  1  0.46849100  0.26059000  0.67009900  1
  O  O54  1  0.49339200  0.32307600  0.00000000  1
  O  O55  1  0.68300500  0.92929500  0.87554700  1
  O  O56  1  0.07070500  0.75371000  0.87554700  1
