# generated using pymatgen
data_Al2O3
_symmetry_space_group_name_H-M   'P 1'
_cell_length_a   5.59359664
_cell_length_b   5.88070597
_cell_length_c   14.17545156
_cell_angle_alpha   101.63043995
_cell_angle_beta   86.76600415
_cell_angle_gamma   115.42078588
_symmetry_Int_Tables_number   1
_chemical_formula_structural   Al2O3
_chemical_formula_sum   'Al16 O24'
_cell_volume   412.25892514
_cell_formula_units_Z   8
loop_
 _symmetry_equiv_pos_site_id
 _symmetry_equiv_pos_as_xyz
  1  'x, y, z'
loop_
 _atom_site_type_symbol
 _atom_site_label
 _atom_site_symmetry_multiplicity
 _atom_site_fract_x
 _atom_site_fract_y
 _atom_site_fract_z
 _atom_site_occupancy
  Al  Al0  1  0.91908116  0.12182593  0.09300216  1
  Al  Al1  1  0.96851620  0.75479614  0.26700904  1
  Al  Al2  1  0.63225926  0.48058825  0.42709448  1
  Al  Al3  1  0.40872946  0.13995032  0.12096349  1
  Al  Al4  1  0.75046516  0.23015221  0.28436329  1
  Al  Al5  1  0.26895889  0.32038977  0.26209163  1
  Al  Al6  1  0.38237609  0.92658748  0.44237025  1
  Al  Al7  1  0.12895562  0.77039563  0.81788336  1
  Al  Al8  1  0.29614344  0.15208246  0.61993474  1
  Al  Al9  1  0.10917018  0.40640481  0.44873152  1
  Al  Al10  1  0.21975719  0.64380738  0.65500351  1
  Al  Al11  1  0.68187995  0.69137610  0.60757960  1
  Al  Al12  1  0.04977465  0.21204035  0.84934710  1
  Al  Al13  1  0.61490216  0.63979455  0.84201891  1
  Al  Al14  1  0.00065014  0.64883555  0.05182274  1
  Al  Al15  1  0.52017091  0.03955586  0.93908970  1
  O  O16  1  0.39004192  0.04685856  0.25037962  1
  O  O17  1  0.07885246  0.50350936  0.26309312  1
  O  O18  1  0.35320223  0.90033553  0.05245879  1
  O  O19  1  0.91795934  0.04873190  0.25352912  1
  O  O20  1  0.12357882  0.36301199  0.58131361  1
  O  O21  1  0.75529639  0.31972466  0.10408389  1
  O  O22  1  0.47585736  0.86426657  0.56574375  1
  O  O23  1  0.74780754  0.19928175  0.41462038  1
  O  O24  1  0.62657656  0.50363113  0.27980387  1
  O  O25  1  0.92942700  0.81979555  0.12660671  1
  O  O26  1  0.60016466  0.40101974  0.56020647  1
  O  O27  1  0.90274596  0.63136874  0.93054559  1
  O  O28  1  0.24993943  0.34692216  0.11404790  1
  O  O29  1  0.44374555  0.67336453  0.41251209  1
  O  O30  1  0.39110670  0.27276613  0.89102366  1
  O  O31  1  0.51114582  0.57054898  0.71961711  1
  O  O32  1  0.02461725  0.84040889  0.59332337  1
  O  O33  1  0.28081643  0.20641836  0.40863955  1
  O  O34  1  0.41491965  0.75357922  0.89489591  1
  O  O35  1  0.00435558  0.68859266  0.40771096  1
  O  O36  1  0.91179464  0.94325304  0.79273839  1
  O  O37  1  0.86690968  0.13476596  0.96032807  1
  O  O38  1  0.02188964  0.47812393  0.76998763  1
  O  O39  1  0.35632595  0.97039189  0.72600893  1
