# generated using pymatgen
data_H9BrO4
_symmetry_space_group_name_H-M   'P 1'
_cell_length_a   7.02225200
_cell_length_b   7.61045086
_cell_length_c   11.54712153
_cell_angle_alpha   89.11835243
_cell_angle_beta   89.60183328
_cell_angle_gamma   67.46369579
_symmetry_Int_Tables_number   1
_chemical_formula_structural   H9BrO4
_chemical_formula_sum   'H36 Br4 O16'
_cell_volume   569.91500754
_cell_formula_units_Z   4
loop_
 _symmetry_equiv_pos_site_id
 _symmetry_equiv_pos_as_xyz
  1  'x, y, z'
loop_
 _atom_site_type_symbol
 _atom_site_label
 _atom_site_symmetry_multiplicity
 _atom_site_fract_x
 _atom_site_fract_y
 _atom_site_fract_z
 _atom_site_occupancy
  H  H0  1  0.84465000  0.00633600  0.25571600  1
  H  H1  1  0.65136600  0.98842000  0.32142400  1
  H  H2  1  0.36126800  0.99266200  0.83096400  1
  H  H3  1  0.15010900  0.97614400  0.76489500  1
  H  H4  1  0.20658600  0.17096700  0.74616400  1
  H  H5  1  0.02781300  0.16013200  0.18008300  1
  H  H6  1  0.16585000  0.98215900  0.25837900  1
  H  H7  1  0.99358700  0.84256300  0.68975400  1
  H  H8  1  0.97190900  0.85582300  0.83209500  1
  H  H9  1  0.45920400  0.80558800  0.18730300  1
  H  H10  1  0.37108000  0.66993800  0.25063200  1
  H  H11  1  0.54330500  0.23291500  0.67657000  1
  H  H12  1  0.71944200  0.13397100  0.76376100  1
  H  H13  1  0.36721200  0.35514400  0.30790000  1
  H  H14  1  0.16943700  0.48462400  0.23268100  1
  H  H15  1  0.64829100  0.50637000  0.78429600  1
  H  H16  1  0.87844200  0.49931700  0.73319900  1
  H  H17  1  0.63527900  0.62657100  0.66213400  1
  H  H18  1  0.87149300  0.54837000  0.15634200  1
  H  H19  1  0.84475900  0.72998600  0.24053000  1
  H  H20  1  0.12347300  0.44080000  0.64797400  1
  H  H21  1  0.15892300  0.45878200  0.78621200  1
  H  H22  1  0.64779900  0.56023700  0.44198200  1
  H  H23  1  0.80810600  0.50768800  0.32613300  1
  H  H24  1  0.83062700  0.33798900  0.43576400  1
  H  H25  1  0.37379000  0.42920500  0.90433600  1
  H  H26  1  0.19336400  0.62782700  0.92909700  1
  H  H27  1  0.36945100  0.70256100  0.54349700  1
  H  H28  1  0.49666600  0.83585400  0.53333000  1
  H  H29  1  0.42341100  0.33984600  0.13735400  1
  H  H30  1  0.64068100  0.28974200  0.04459300  1
  H  H31  1  0.51032500  0.14578900  0.04002700  1
  H  H32  1  0.95634500  0.06862100  0.50152000  1
  H  H33  1  0.10480700  0.17939500  0.49394100  1
  H  H34  1  0.03787800  0.92754400  0.02908900  1
  H  H35  1  0.87322600  0.83457100  0.01596300  1
  Br  Br36  1  0.05402800  0.71180800  0.51986700  1
  Br  Br37  1  0.91488500  0.31883500  0.00537000  1
  Br  Br38  1  0.43572600  0.15929500  0.48032000  1
  Br  Br39  1  0.52421400  0.88114200  0.98745400  1
  O  O40  1  0.73867100  0.94710800  0.25143100  1
  O  O41  1  0.27208100  0.02742500  0.75834900  1
  O  O42  1  0.02898600  0.09128700  0.25329200  1
  O  O43  1  0.97465700  0.92566300  0.75962900  1
  O  O44  1  0.39349600  0.78872000  0.25987700  1
  O  O45  1  0.59204600  0.24716600  0.75473600  1
  O  O46  1  0.32575200  0.43142700  0.23504600  1
  O  O47  1  0.71165700  0.58257000  0.74084400  1
  O  O48  1  0.91270300  0.58299400  0.23183300  1
  O  O49  1  0.09001600  0.40095100  0.72541800  1
  O  O50  1  0.72930600  0.45717400  0.38632500  1
  O  O51  1  0.27134900  0.54101100  0.86638300  1
  O  O52  1  0.51312700  0.70188000  0.54958500  1
  O  O53  1  0.49731700  0.28307200  0.05336600  1
  O  O54  1  0.96108600  0.19511900  0.51355300  1
  O  O55  1  0.01768100  0.81613100  0.99904000  1
