# generated using pymatgen
data_Ba7Na3Ti7Nb3O30
_symmetry_space_group_name_H-M   'P 1'
_cell_length_a   8.05673500
_cell_length_b   4.02851300
_cell_length_c   20.17327134
_cell_angle_alpha   90.00000000
_cell_angle_beta   90.02761226
_cell_angle_gamma   90.00000000
_symmetry_Int_Tables_number   1
_chemical_formula_structural   Ba7Na3Ti7Nb3O30
_chemical_formula_sum   'Ba7 Na3 Ti7 Nb3 O30'
_cell_volume   654.75696701
_cell_formula_units_Z   1
loop_
 _symmetry_equiv_pos_site_id
 _symmetry_equiv_pos_as_xyz
  1  'x, y, z'
loop_
 _atom_site_type_symbol
 _atom_site_label
 _atom_site_symmetry_multiplicity
 _atom_site_fract_x
 _atom_site_fract_y
 _atom_site_fract_z
 _atom_site_occupancy
  Ba  Ba0  1  0.49739500  0.00000000  0.00451000  1
  Ba  Ba1  1  0.49834900  0.00000000  0.19848800  1
  Ba  Ba2  1  0.49856600  0.00000000  0.39951300  1
  Ba  Ba3  1  0.00172700  0.00000000  0.19879500  1
  Ba  Ba4  1  0.00144400  0.00000000  0.39950200  1
  Ba  Ba5  1  0.49448000  0.00000000  0.59965100  1
  Ba  Ba6  1  0.00551300  0.00000000  0.59967000  1
  Na  Na7  1  0.00198800  0.00000000  0.00365600  1
  Na  Na8  1  0.49479900  0.00000000  0.79849100  1
  Na  Na9  1  0.00538600  0.00000000  0.79829900  1
  Ti  Ti10  1  0.24225800  0.50000000  0.09727900  1
  Ti  Ti11  1  0.75011600  0.50000000  0.29860600  1
  Ti  Ti12  1  0.24991500  0.50000000  0.29878900  1
  Ti  Ti13  1  0.75624900  0.50000000  0.10024900  1
  Ti  Ti14  1  0.24997500  0.50000000  0.50006100  1
  Ti  Ti15  1  0.24994200  0.50000000  0.70324600  1
  Ti  Ti16  1  0.75002000  0.50000000  0.49758900  1
  Nb  Nb17  1  0.75002400  0.50000000  0.70331400  1
  Nb  Nb18  1  0.24729100  0.50000000  0.89669400  1
  Nb  Nb19  1  0.75427800  0.50000000  0.90122500  1
  O  O20  1  0.24829400  0.00000000  0.09951800  1
  O  O21  1  0.24994000  0.00000000  0.30006700  1
  O  O22  1  0.75173100  0.00000000  0.09917400  1
  O  O23  1  0.75007100  0.00000000  0.30009300  1
  O  O24  1  0.24925600  0.00000000  0.89964600  1
  O  O25  1  0.75051500  0.00000000  0.89899000  1
  O  O26  1  0.25005800  0.50000000  0.99979700  1
  O  O27  1  0.24888300  0.50000000  0.20046200  1
  O  O28  1  0.50095900  0.50000000  0.09897300  1
  O  O29  1  0.75037500  0.50000000  0.99916200  1
  O  O30  1  0.50111400  0.50000000  0.30006500  1
  O  O31  1  0.50026100  0.50000000  0.50010900  1
  O  O32  1  0.00087700  0.50000000  0.70105300  1
  O  O33  1  0.75109800  0.50000000  0.19979900  1
  O  O34  1  0.75002300  0.50000000  0.40096900  1
  O  O35  1  0.99944000  0.50000000  0.09984000  1
  O  O36  1  0.99888300  0.50000000  0.30013400  1
  O  O37  1  0.24997100  0.50000000  0.40018400  1
  O  O38  1  0.25002500  0.50000000  0.59981600  1
  O  O39  1  0.49908800  0.50000000  0.70114600  1
  O  O40  1  0.49971600  0.50000000  0.89969300  1
  O  O41  1  0.74998900  0.50000000  0.60132700  1
  O  O42  1  0.75067500  0.50000000  0.80081200  1
  O  O43  1  0.99974900  0.50000000  0.50011000  1
  O  O44  1  0.24905700  0.50000000  0.80018200  1
  O  O45  1  0.00022000  0.50000000  0.89889000  1
  O  O46  1  0.24999900  0.00000000  0.49991500  1
  O  O47  1  0.25002200  0.00000000  0.70109100  1
  O  O48  1  0.75000700  0.00000000  0.50026100  1
  O  O49  1  0.74998700  0.00000000  0.70109400  1
