# generated using pymatgen
data_Ba(H8O5)2
_symmetry_space_group_name_H-M   'P 1'
_cell_length_a   6.55055300
_cell_length_b   6.54310500
_cell_length_c   11.38550713
_cell_angle_alpha   90.00000000
_cell_angle_beta   90.02550895
_cell_angle_gamma   90.00000000
_symmetry_Int_Tables_number   1
_chemical_formula_structural   Ba(H8O5)2
_chemical_formula_sum   'Ba2 H32 O20'
_cell_volume   487.99367270
_cell_formula_units_Z   2
loop_
 _symmetry_equiv_pos_site_id
 _symmetry_equiv_pos_as_xyz
  1  'x, y, z'
loop_
 _atom_site_type_symbol
 _atom_site_label
 _atom_site_symmetry_multiplicity
 _atom_site_fract_x
 _atom_site_fract_y
 _atom_site_fract_z
 _atom_site_occupancy
  Ba  Ba0  1  0.99579800  0.00377400  0.25163300  1
  Ba  Ba1  1  0.99579800  0.99622600  0.75163300  1
  H  H2  1  0.45506000  0.04020800  0.37070600  1
  H  H3  1  0.40180500  0.27759800  0.35301900  1
  H  H4  1  0.59792900  0.71987300  0.35286500  1
  H  H5  1  0.66570300  0.85325300  0.46408100  1
  H  H6  1  0.27895500  0.59605200  0.35298200  1
  H  H7  1  0.14699100  0.66658900  0.46387100  1
  H  H8  1  0.96041400  0.45675800  0.36955900  1
  H  H9  1  0.72231600  0.40168200  0.35299300  1
  H  H10  1  0.40180500  0.72240200  0.85301900  1
  H  H11  1  0.45506000  0.95979200  0.87070600  1
  H  H12  1  0.59792900  0.28012700  0.85286500  1
  H  H13  1  0.66570300  0.14674700  0.96408100  1
  H  H14  1  0.27895500  0.40394800  0.85298200  1
  H  H15  1  0.14699100  0.33341100  0.96387100  1
  H  H16  1  0.72231600  0.59831800  0.85299300  1
  H  H17  1  0.96041400  0.54324200  0.86955900  1
  H  H18  1  0.54309400  0.95732700  0.63054700  1
  H  H19  1  0.59882700  0.72126900  0.64767300  1
  H  H20  1  0.39700800  0.26429200  0.65966600  1
  H  H21  1  0.33603300  0.15177400  0.54134600  1
  H  H22  1  0.72016700  0.40205700  0.64823400  1
  H  H23  1  0.85265100  0.33414100  0.53610000  1
  H  H24  1  0.03983900  0.54314400  0.63043900  1
  H  H25  1  0.27740100  0.59731600  0.64763600  1
  H  H26  1  0.54309400  0.04267300  0.13054700  1
  H  H27  1  0.59882700  0.27873100  0.14767300  1
  H  H28  1  0.39700800  0.73570800  0.15966600  1
  H  H29  1  0.33603300  0.84822600  0.04134600  1
  H  H30  1  0.72016700  0.59794300  0.14823400  1
  H  H31  1  0.85265100  0.66585900  0.03610000  1
  H  H32  1  0.03983900  0.45685600  0.13043900  1
  H  H33  1  0.27740100  0.40268400  0.14763600  1
  O  O34  1  0.50135900  0.49895500  0.31762100  1
  O  O35  1  0.50135900  0.50104500  0.81762100  1
  O  O36  1  0.49857500  0.49592700  0.68615100  1
  O  O37  1  0.49857500  0.50407300  0.18615100  1
  O  O38  1  0.34306700  0.14180200  0.38163900  1
  O  O39  1  0.65443100  0.85985700  0.37667100  1
  O  O40  1  0.14017800  0.65481700  0.37642100  1
  O  O41  1  0.85989400  0.34310600  0.37936200  1
  O  O42  1  0.34306700  0.85819800  0.88163900  1
  O  O43  1  0.65443100  0.14014300  0.87667100  1
  O  O44  1  0.14017800  0.34518300  0.87642100  1
  O  O45  1  0.85989400  0.65689400  0.87936200  1
  O  O46  1  0.65737600  0.85774100  0.62048000  1
  O  O47  1  0.34242700  0.13010700  0.62847400  1
  O  O48  1  0.85925000  0.34496300  0.62354600  1
  O  O49  1  0.14072300  0.65637500  0.62061800  1
  O  O50  1  0.65737600  0.14225900  0.12048000  1
  O  O51  1  0.34242700  0.86989300  0.12847400  1
  O  O52  1  0.85925000  0.65503700  0.12354600  1
  O  O53  1  0.14072300  0.34362500  0.12061800  1
