# generated using pymatgen
data_ZnSiO3
_symmetry_space_group_name_H-M   'P 1'
_cell_length_a   5.33636100
_cell_length_b   9.30085300
_cell_length_c   18.49296800
_cell_angle_alpha   90.00000000
_cell_angle_beta   90.00000000
_cell_angle_gamma   90.00000000
_symmetry_Int_Tables_number   1
_chemical_formula_structural   ZnSiO3
_chemical_formula_sum   'Zn16 Si16 O48'
_cell_volume   917.85610328
_cell_formula_units_Z   16
loop_
 _symmetry_equiv_pos_site_id
 _symmetry_equiv_pos_as_xyz
  1  'x, y, z'
loop_
 _atom_site_type_symbol
 _atom_site_label
 _atom_site_symmetry_multiplicity
 _atom_site_fract_x
 _atom_site_fract_y
 _atom_site_fract_z
 _atom_site_occupancy
  Zn  Zn0  1  0.59660600  0.14427700  0.62533600  1
  Zn  Zn1  1  0.59973400  0.49020400  0.62414800  1
  Zn  Zn2  1  0.90339400  0.64427700  0.37466400  1
  Zn  Zn3  1  0.09973400  0.00979600  0.62414800  1
  Zn  Zn4  1  0.90339400  0.14427700  0.12533600  1
  Zn  Zn5  1  0.09660600  0.85572300  0.87466400  1
  Zn  Zn6  1  0.40026600  0.00979600  0.12414800  1
  Zn  Zn7  1  0.59973400  0.99020400  0.87585200  1
  Zn  Zn8  1  0.40026600  0.50979600  0.37585200  1
  Zn  Zn9  1  0.90026600  0.49020400  0.12414800  1
  Zn  Zn10  1  0.40339400  0.35572300  0.12533600  1
  Zn  Zn11  1  0.59660600  0.64427700  0.87466400  1
  Zn  Zn12  1  0.09660600  0.35572300  0.62533600  1
  Zn  Zn13  1  0.90026600  0.99020400  0.37585200  1
  Zn  Zn14  1  0.09973400  0.50979600  0.87585200  1
  Zn  Zn15  1  0.40339400  0.85572300  0.37466400  1
  Si  Si16  1  0.28195600  0.16635900  0.47303100  1
  Si  Si17  1  0.21804400  0.66635900  0.52696900  1
  Si  Si18  1  0.91304800  0.66365900  0.72553900  1
  Si  Si19  1  0.28195600  0.66635900  0.02696900  1
  Si  Si20  1  0.08695200  0.33634100  0.27446100  1
  Si  Si21  1  0.91304800  0.16365900  0.77446100  1
  Si  Si22  1  0.41304800  0.83634100  0.72553900  1
  Si  Si23  1  0.41304800  0.33634100  0.77446100  1
  Si  Si24  1  0.58695200  0.66365900  0.22553900  1
  Si  Si25  1  0.21804400  0.16635900  0.97303100  1
  Si  Si26  1  0.58695200  0.16365900  0.27446100  1
  Si  Si27  1  0.78195600  0.33364100  0.47303100  1
  Si  Si28  1  0.08695200  0.83634100  0.22553900  1
  Si  Si29  1  0.71804400  0.33364100  0.97303100  1
  Si  Si30  1  0.78195600  0.83364100  0.02696900  1
  Si  Si31  1  0.71804400  0.83364100  0.52696900  1
  O  O32  1  0.58480300  0.66525100  0.31464000  1
  O  O33  1  0.71768400  0.83894100  0.43774800  1
  O  O34  1  0.91519700  0.66525100  0.81464000  1
  O  O35  1  0.08480300  0.33474900  0.18536000  1
  O  O36  1  0.66000800  0.74843100  0.69674300  1
  O  O37  1  0.08480300  0.83474900  0.31464000  1
  O  O38  1  0.20404000  0.01748300  0.43252000  1
  O  O39  1  0.78231600  0.33894100  0.56225200  1
  O  O40  1  0.42994900  0.28856100  0.94870900  1
  O  O41  1  0.79596000  0.98251700  0.56748000  1
  O  O42  1  0.89208000  0.00522800  0.81145300  1
  O  O43  1  0.21768400  0.16105900  0.06225200  1
  O  O44  1  0.78231600  0.83894100  0.93774800  1
  O  O45  1  0.79596000  0.48251700  0.93252000  1
  O  O46  1  0.58480300  0.16525100  0.18536000  1
  O  O47  1  0.39208000  0.99477200  0.68854700  1
  O  O48  1  0.21768400  0.66105900  0.43774800  1
  O  O49  1  0.29596000  0.01748300  0.93252000  1
  O  O50  1  0.92994900  0.71143900  0.55129100  1
  O  O51  1  0.57005100  0.71143900  0.05129100  1
  O  O52  1  0.92994900  0.21143900  0.94870900  1
  O  O53  1  0.10792000  0.99477200  0.18854700  1
  O  O54  1  0.42994900  0.78856100  0.55129100  1
  O  O55  1  0.16000800  0.75156900  0.69674300  1
  O  O56  1  0.57005100  0.21143900  0.44870900  1
  O  O57  1  0.33999200  0.75156900  0.19674300  1
  O  O58  1  0.60792000  0.00522800  0.31145300  1
  O  O59  1  0.41519700  0.33474900  0.68536000  1
  O  O60  1  0.39208000  0.49477200  0.81145300  1
  O  O61  1  0.60792000  0.50522800  0.18854700  1
  O  O62  1  0.28231600  0.16105900  0.56225200  1
  O  O63  1  0.70404000  0.48251700  0.43252000  1
  O  O64  1  0.10792000  0.49477200  0.31145300  1
  O  O65  1  0.16000800  0.25156900  0.80325700  1
  O  O66  1  0.07005100  0.28856100  0.44870900  1
  O  O67  1  0.28231600  0.66105900  0.93774800  1
  O  O68  1  0.89208000  0.50522800  0.68854700  1
  O  O69  1  0.91519700  0.16525100  0.68536000  1
  O  O70  1  0.07005100  0.78856100  0.05129100  1
  O  O71  1  0.66000800  0.24843100  0.80325700  1
  O  O72  1  0.83999200  0.24843100  0.30325700  1
  O  O73  1  0.70404000  0.98251700  0.06748000  1
  O  O74  1  0.41519700  0.83474900  0.81464000  1
  O  O75  1  0.20404000  0.51748300  0.06748000  1
  O  O76  1  0.29596000  0.51748300  0.56748000  1
  O  O77  1  0.33999200  0.25156900  0.30325700  1
  O  O78  1  0.83999200  0.74843100  0.19674300  1
  O  O79  1  0.71768400  0.33894100  0.06225200  1
