# generated using pymatgen
data_O2
_symmetry_space_group_name_H-M   'P 1'
_cell_length_a   5.59565400
_cell_length_b   3.53347400
_cell_length_c   4.27382751
_cell_angle_alpha   90.00000000
_cell_angle_beta   119.06863580
_cell_angle_gamma   90.00000000
_symmetry_Int_Tables_number   1
_chemical_formula_structural   O2
_chemical_formula_sum   O4
_cell_volume   73.85845429
_cell_formula_units_Z   2
loop_
 _symmetry_equiv_pos_site_id
 _symmetry_equiv_pos_as_xyz
  1  'x, y, z'
loop_
 _atom_site_type_symbol
 _atom_site_label
 _atom_site_symmetry_multiplicity
 _atom_site_fract_x
 _atom_site_fract_y
 _atom_site_fract_z
 _atom_site_occupancy
  O  O0  1  0.45180600  0.50000000  0.83602100  1
  O  O1  1  0.04819400  0.00000000  0.16397900  1
  O  O2  1  0.95180600  0.00000000  0.83602100  1
  O  O3  1  0.54819400  0.50000000  0.16397900  1
