# generated using pymatgen
data_Cu2HgI4
_symmetry_space_group_name_H-M   'P 1'
_cell_length_a   7.42067600
_cell_length_b   12.14927400
_cell_length_c   19.45315700
_cell_angle_alpha   90.00000000
_cell_angle_beta   90.00000000
_cell_angle_gamma   90.00000000
_symmetry_Int_Tables_number   1
_chemical_formula_structural   Cu2HgI4
_chemical_formula_sum   'Cu8 Hg4 I16'
_cell_volume   1753.81543743
_cell_formula_units_Z   4
loop_
 _symmetry_equiv_pos_site_id
 _symmetry_equiv_pos_as_xyz
  1  'x, y, z'
loop_
 _atom_site_type_symbol
 _atom_site_label
 _atom_site_symmetry_multiplicity
 _atom_site_fract_x
 _atom_site_fract_y
 _atom_site_fract_z
 _atom_site_occupancy
  Cu  Cu0  1  0.50000000  0.00000000  0.50000000  1
  Cu  Cu1  1  0.25000000  0.25000000  0.50000000  1
  Cu  Cu2  1  0.50000000  0.00000000  0.00000000  1
  Cu  Cu3  1  0.25000000  0.75000000  0.00000000  1
  Cu  Cu4  1  0.00000000  0.50000000  0.50000000  1
  Cu  Cu5  1  0.75000000  0.75000000  0.50000000  1
  Cu  Cu6  1  0.00000000  0.50000000  0.00000000  1
  Cu  Cu7  1  0.75000000  0.25000000  0.00000000  1
  Hg  Hg8  1  0.25000000  0.25000000  0.00000000  1
  Hg  Hg9  1  0.25000000  0.75000000  0.50000000  1
  Hg  Hg10  1  0.75000000  0.75000000  0.00000000  1
  Hg  Hg11  1  0.75000000  0.25000000  0.50000000  1
  I  I12  1  0.48420200  0.83492800  0.09699400  1
  I  I13  1  0.51579800  0.83492800  0.59699400  1
  I  I14  1  0.51579800  0.83492800  0.40300600  1
  I  I15  1  0.48420200  0.83492800  0.90300600  1
  I  I16  1  0.51579800  0.16507200  0.09699400  1
  I  I17  1  0.48420200  0.16507200  0.40300600  1
  I  I18  1  0.48420200  0.16507200  0.59699400  1
  I  I19  1  0.51579800  0.16507200  0.90300600  1
  I  I20  1  0.98420200  0.33492800  0.09699400  1
  I  I21  1  0.01579800  0.33492800  0.59699400  1
  I  I22  1  0.01579800  0.33492800  0.40300600  1
  I  I23  1  0.98420200  0.33492800  0.90300600  1
  I  I24  1  0.01579800  0.66507200  0.09699400  1
  I  I25  1  0.98420200  0.66507200  0.40300600  1
  I  I26  1  0.98420200  0.66507200  0.59699400  1
  I  I27  1  0.01579800  0.66507200  0.90300600  1
