# generated using pymatgen
data_Ho14(PbS8)3
_symmetry_space_group_name_H-M   'P 1'
_cell_length_a   11.90600310
_cell_length_b   8.35105549
_cell_length_c   18.84547832
_cell_angle_alpha   90.00000000
_cell_angle_beta   108.39889524
_cell_angle_gamma   90.00000000
_symmetry_Int_Tables_number   1
_chemical_formula_structural   Ho14(PbS8)3
_chemical_formula_sum   'Ho28 Pb6 S48'
_cell_volume   1777.97962093
_cell_formula_units_Z   2
loop_
 _symmetry_equiv_pos_site_id
 _symmetry_equiv_pos_as_xyz
  1  'x, y, z'
loop_
 _atom_site_type_symbol
 _atom_site_label
 _atom_site_symmetry_multiplicity
 _atom_site_fract_x
 _atom_site_fract_y
 _atom_site_fract_z
 _atom_site_occupancy
  Ho  Ho0  1  0.53821150  0.25077950  0.19805400  1
  Ho  Ho1  1  0.32065100  0.49782600  0.03943000  1
  Ho  Ho2  1  0.87178900  0.25795400  0.87889000  1
  Ho  Ho3  1  0.12821100  0.25795400  0.12111000  1
  Ho  Ho4  1  0.66303300  0.49929600  0.71291700  1
  Ho  Ho5  1  0.70717800  0.75003100  0.53797300  1
  Ho  Ho6  1  0.17934900  0.99782600  0.96057000  1
  Ho  Ho7  1  0.95654650  0.75076450  0.80545300  1
  Ho  Ho8  1  0.82801000  0.37438600  0.16402300  1
  Ho  Ho9  1  0.99363150  0.50234350  0.37255800  1
  Ho  Ho10  1  0.00636850  0.50234350  0.62744200  1
  Ho  Ho11  1  0.79282200  0.25003100  0.46202700  1
  Ho  Ho12  1  0.17199000  0.37438600  0.83597700  1
  Ho  Ho13  1  0.83696700  0.99929600  0.28708300  1
  Ho  Ho14  1  0.03821150  0.75077950  0.19805400  1
  Ho  Ho15  1  0.82065100  0.99782600  0.03943000  1
  Ho  Ho16  1  0.37178900  0.75795400  0.87889000  1
  Ho  Ho17  1  0.62821100  0.75795400  0.12111000  1
  Ho  Ho18  1  0.16303300  0.99929600  0.71291700  1
  Ho  Ho19  1  0.20717800  0.25003100  0.53797300  1
  Ho  Ho20  1  0.67934900  0.49782600  0.96057000  1
  Ho  Ho21  1  0.45654650  0.25076450  0.80545300  1
  Ho  Ho22  1  0.32801000  0.87438600  0.16402300  1
  Ho  Ho23  1  0.49363150  0.00234350  0.37255800  1
  Ho  Ho24  1  0.50636850  0.00234350  0.62744200  1
  Ho  Ho25  1  0.29282200  0.75003100  0.46202700  1
  Ho  Ho26  1  0.67199000  0.87438600  0.83597700  1
  Ho  Ho27  1  0.33696700  0.49929600  0.28708300  1
  Pb  Pb28  1  0.33484250  0.62629950  0.66961600  1
  Pb  Pb29  1  0.66515750  0.62629950  0.33038400  1
  Pb  Pb30  1  0.00000000  0.87817750  0.50000000  1
  Pb  Pb31  1  0.83484250  0.12629950  0.66961600  1
  Pb  Pb32  1  0.16515750  0.12629950  0.33038400  1
  Pb  Pb33  1  0.50000000  0.37817750  0.50000000  1
  S  S34  1  0.09871000  0.94095000  0.08581900  1
  S  S35  1  0.96831050  0.06852850  0.19765600  1
  S  S36  1  0.10509700  0.30966900  0.96369500  1
  S  S37  1  0.15957350  0.67984650  0.91862800  1
  S  S38  1  0.19295200  0.57244400  0.13604400  1
  S  S39  1  0.89490300  0.30966900  0.03630500  1
  S  S40  1  0.93411800  0.81219700  0.63623500  1
  S  S41  1  0.99420500  0.19323600  0.58336500  1
  S  S42  1  0.80704800  0.57244400  0.86395600  1
  S  S43  1  0.03168950  0.06852850  0.80234400  1
  S  S44  1  0.40129000  0.44095000  0.91418100  1
  S  S45  1  0.22233100  0.31403600  0.71036200  1
  S  S46  1  0.06588200  0.81219700  0.36376500  1
  S  S47  1  0.34042650  0.17984650  0.08137200  1
  S  S48  1  0.77766900  0.31403600  0.28963800  1
  S  S49  1  0.32192900  0.18400000  0.24641900  1
  S  S50  1  0.13907600  0.56123700  0.53441900  1
  S  S51  1  0.86092400  0.56123700  0.46558100  1
  S  S52  1  0.93545500  0.44019800  0.75697200  1
  S  S53  1  0.74464200  0.44154700  0.58947200  1
  S  S54  1  0.17807100  0.68400000  0.75358100  1
  S  S55  1  0.75535800  0.94154700  0.41052800  1
  S  S56  1  0.06454500  0.44019800  0.24302800  1
  S  S57  1  0.50579500  0.69323600  0.41663500  1
  S  S58  1  0.59871000  0.44095000  0.08581900  1
  S  S59  1  0.46831050  0.56852850  0.19765600  1
  S  S60  1  0.60509700  0.80966900  0.96369500  1
  S  S61  1  0.65957350  0.17984650  0.91862800  1
  S  S62  1  0.69295200  0.07244400  0.13604400  1
  S  S63  1  0.39490300  0.80966900  0.03630500  1
  S  S64  1  0.43411800  0.31219700  0.63623500  1
  S  S65  1  0.49420500  0.69323600  0.58336500  1
  S  S66  1  0.30704800  0.07244400  0.86395600  1
  S  S67  1  0.53168950  0.56852850  0.80234400  1
  S  S68  1  0.90129000  0.94095000  0.91418100  1
  S  S69  1  0.72233100  0.81403600  0.71036200  1
  S  S70  1  0.56588200  0.31219700  0.36376500  1
  S  S71  1  0.84042650  0.67984650  0.08137200  1
  S  S72  1  0.27766900  0.81403600  0.28963800  1
  S  S73  1  0.82192900  0.68400000  0.24641900  1
  S  S74  1  0.63907600  0.06123700  0.53441900  1
  S  S75  1  0.36092400  0.06123700  0.46558100  1
  S  S76  1  0.43545500  0.94019800  0.75697200  1
  S  S77  1  0.24464200  0.94154700  0.58947200  1
  S  S78  1  0.67807100  0.18400000  0.75358100  1
  S  S79  1  0.25535800  0.44154700  0.41052800  1
  S  S80  1  0.56454500  0.94019800  0.24302800  1
  S  S81  1  0.00579500  0.19323600  0.41663500  1
