# generated using pymatgen
data_Ba2CaWN4
_symmetry_space_group_name_H-M   'P 1'
_cell_length_a   10.95409200
_cell_length_b   12.10835800
_cell_length_c   18.07922200
_cell_angle_alpha   90.00000000
_cell_angle_beta   90.00000000
_cell_angle_gamma   90.00000000
_symmetry_Int_Tables_number   1
_chemical_formula_structural   Ba2CaWN4
_chemical_formula_sum   'Ba32 Ca16 W16 N64'
_cell_volume   2397.95690956
_cell_formula_units_Z   16
loop_
 _symmetry_equiv_pos_site_id
 _symmetry_equiv_pos_as_xyz
  1  'x, y, z'
loop_
 _atom_site_type_symbol
 _atom_site_label
 _atom_site_symmetry_multiplicity
 _atom_site_fract_x
 _atom_site_fract_y
 _atom_site_fract_z
 _atom_site_occupancy
  Ba  Ba0  1  0.93013100  0.25000000  0.25000000  1
  Ba  Ba1  1  0.56986900  0.25000000  0.25000000  1
  Ba  Ba2  1  0.68013100  0.00000000  0.00000000  1
  Ba  Ba3  1  0.00000000  0.00000000  0.11149400  1
  Ba  Ba4  1  0.75000000  0.75000000  0.13850600  1
  Ba  Ba5  1  0.75000000  0.75000000  0.36149400  1
  Ba  Ba6  1  0.31986900  0.00000000  0.00000000  1
  Ba  Ba7  1  0.50000000  0.00000000  0.38850600  1
  Ba  Ba8  1  0.93013100  0.75000000  0.75000000  1
  Ba  Ba9  1  0.56986900  0.75000000  0.75000000  1
  Ba  Ba10  1  0.68013100  0.50000000  0.50000000  1
  Ba  Ba11  1  0.00000000  0.50000000  0.61149400  1
  Ba  Ba12  1  0.75000000  0.25000000  0.63850600  1
  Ba  Ba13  1  0.75000000  0.25000000  0.86149400  1
  Ba  Ba14  1  0.31986900  0.50000000  0.50000000  1
  Ba  Ba15  1  0.50000000  0.50000000  0.88850600  1
  Ba  Ba16  1  0.43013100  0.25000000  0.75000000  1
  Ba  Ba17  1  0.06986900  0.25000000  0.75000000  1
  Ba  Ba18  1  0.18013100  0.00000000  0.50000000  1
  Ba  Ba19  1  0.50000000  0.00000000  0.61149400  1
  Ba  Ba20  1  0.25000000  0.75000000  0.63850600  1
  Ba  Ba21  1  0.25000000  0.75000000  0.86149400  1
  Ba  Ba22  1  0.81986900  0.00000000  0.50000000  1
  Ba  Ba23  1  0.00000000  0.00000000  0.88850600  1
  Ba  Ba24  1  0.43013100  0.75000000  0.25000000  1
  Ba  Ba25  1  0.06986900  0.75000000  0.25000000  1
  Ba  Ba26  1  0.18013100  0.50000000  0.00000000  1
  Ba  Ba27  1  0.50000000  0.50000000  0.11149400  1
  Ba  Ba28  1  0.25000000  0.25000000  0.13850600  1
  Ba  Ba29  1  0.25000000  0.25000000  0.36149400  1
  Ba  Ba30  1  0.81986900  0.50000000  0.00000000  1
  Ba  Ba31  1  0.00000000  0.50000000  0.38850600  1
  Ca  Ca32  1  0.00000000  0.00000000  0.33838900  1
  Ca  Ca33  1  0.75000000  0.25000000  0.41161100  1
  Ca  Ca34  1  0.50000000  0.00000000  0.16161100  1
  Ca  Ca35  1  0.75000000  0.25000000  0.08838900  1
  Ca  Ca36  1  0.00000000  0.50000000  0.83838900  1
  Ca  Ca37  1  0.75000000  0.75000000  0.91161100  1
  Ca  Ca38  1  0.50000000  0.50000000  0.66161100  1
  Ca  Ca39  1  0.75000000  0.75000000  0.58838900  1
  Ca  Ca40  1  0.50000000  0.00000000  0.83838900  1
  Ca  Ca41  1  0.25000000  0.25000000  0.91161100  1
  Ca  Ca42  1  0.00000000  0.00000000  0.66161100  1
  Ca  Ca43  1  0.25000000  0.25000000  0.58838900  1
  Ca  Ca44  1  0.50000000  0.50000000  0.33838900  1
  Ca  Ca45  1  0.25000000  0.75000000  0.41161100  1
  Ca  Ca46  1  0.00000000  0.50000000  0.16161100  1
  Ca  Ca47  1  0.25000000  0.75000000  0.08838900  1
  W  W48  1  0.75000000  0.99267000  0.25000000  1
  W  W49  1  0.75000000  0.50733000  0.25000000  1
  W  W50  1  0.50000000  0.25733000  0.00000000  1
  W  W51  1  0.50000000  0.74267000  0.00000000  1
  W  W52  1  0.75000000  0.49267000  0.75000000  1
  W  W53  1  0.75000000  0.00733000  0.75000000  1
  W  W54  1  0.50000000  0.75733000  0.50000000  1
  W  W55  1  0.50000000  0.24267000  0.50000000  1
  W  W56  1  0.25000000  0.99267000  0.75000000  1
  W  W57  1  0.25000000  0.50733000  0.75000000  1
  W  W58  1  0.00000000  0.25733000  0.50000000  1
  W  W59  1  0.00000000  0.74267000  0.50000000  1
  W  W60  1  0.25000000  0.49267000  0.25000000  1
  W  W61  1  0.25000000  0.00733000  0.25000000  1
  W  W62  1  0.00000000  0.75733000  0.00000000  1
  W  W63  1  0.00000000  0.24267000  0.00000000  1
  N  N64  1  0.24064750  0.91659550  0.33480600  1
  N  N65  1  0.13970700  0.34886400  0.49196600  1
  N  N66  1  0.75935250  0.08340450  0.33480600  1
  N  N67  1  0.74064750  0.08340450  0.16519400  1
  N  N68  1  0.00935250  0.83340450  0.41519400  1
  N  N69  1  0.50935250  0.16659550  0.08480600  1
  N  N70  1  0.36029300  0.34886400  0.00803400  1
  N  N71  1  0.61029300  0.90113600  0.25803400  1
  N  N72  1  0.49064750  0.83340450  0.08480600  1
  N  N73  1  0.38970700  0.09886400  0.25803400  1
  N  N74  1  0.86029300  0.65113600  0.49196600  1
  N  N75  1  0.25935250  0.91659550  0.16519400  1
  N  N76  1  0.11029300  0.09886400  0.24196600  1
  N  N77  1  0.99064750  0.16659550  0.41519400  1
  N  N78  1  0.88970700  0.90113600  0.24196600  1
  N  N79  1  0.63970700  0.65113600  0.00803400  1
  N  N80  1  0.24064750  0.41659550  0.83480600  1
  N  N81  1  0.13970700  0.84886400  0.99196600  1
  N  N82  1  0.75935250  0.58340450  0.83480600  1
  N  N83  1  0.74064750  0.58340450  0.66519400  1
  N  N84  1  0.00935250  0.33340450  0.91519400  1
  N  N85  1  0.50935250  0.66659550  0.58480600  1
  N  N86  1  0.36029300  0.84886400  0.50803400  1
  N  N87  1  0.61029300  0.40113600  0.75803400  1
  N  N88  1  0.49064750  0.33340450  0.58480600  1
  N  N89  1  0.38970700  0.59886400  0.75803400  1
  N  N90  1  0.86029300  0.15113600  0.99196600  1
  N  N91  1  0.25935250  0.41659550  0.66519400  1
  N  N92  1  0.11029300  0.59886400  0.74196600  1
  N  N93  1  0.99064750  0.66659550  0.91519400  1
  N  N94  1  0.88970700  0.40113600  0.74196600  1
  N  N95  1  0.63970700  0.15113600  0.50803400  1
  N  N96  1  0.74064750  0.91659550  0.83480600  1
  N  N97  1  0.63970700  0.34886400  0.99196600  1
  N  N98  1  0.25935250  0.08340450  0.83480600  1
  N  N99  1  0.24064750  0.08340450  0.66519400  1
  N  N100  1  0.50935250  0.83340450  0.91519400  1
  N  N101  1  0.00935250  0.16659550  0.58480600  1
  N  N102  1  0.86029300  0.34886400  0.50803400  1
  N  N103  1  0.11029300  0.90113600  0.75803400  1
  N  N104  1  0.99064750  0.83340450  0.58480600  1
  N  N105  1  0.88970700  0.09886400  0.75803400  1
  N  N106  1  0.36029300  0.65113600  0.99196600  1
  N  N107  1  0.75935250  0.91659550  0.66519400  1
  N  N108  1  0.61029300  0.09886400  0.74196600  1
  N  N109  1  0.49064750  0.16659550  0.91519400  1
  N  N110  1  0.38970700  0.90113600  0.74196600  1
  N  N111  1  0.13970700  0.65113600  0.50803400  1
  N  N112  1  0.74064750  0.41659550  0.33480600  1
  N  N113  1  0.63970700  0.84886400  0.49196600  1
  N  N114  1  0.25935250  0.58340450  0.33480600  1
  N  N115  1  0.24064750  0.58340450  0.16519400  1
  N  N116  1  0.50935250  0.33340450  0.41519400  1
  N  N117  1  0.00935250  0.66659550  0.08480600  1
  N  N118  1  0.86029300  0.84886400  0.00803400  1
  N  N119  1  0.11029300  0.40113600  0.25803400  1
  N  N120  1  0.99064750  0.33340450  0.08480600  1
  N  N121  1  0.88970700  0.59886400  0.25803400  1
  N  N122  1  0.36029300  0.15113600  0.49196600  1
  N  N123  1  0.75935250  0.41659550  0.16519400  1
  N  N124  1  0.61029300  0.59886400  0.24196600  1
  N  N125  1  0.49064750  0.66659550  0.41519400  1
  N  N126  1  0.38970700  0.40113600  0.24196600  1
  N  N127  1  0.13970700  0.15113600  0.00803400  1
