# generated using pymatgen
data_SiO2
_symmetry_space_group_name_H-M   'P 1'
_cell_length_a   5.11617600
_cell_length_b   34.44060200
_cell_length_c   21.57406311
_cell_angle_alpha   90.00000000
_cell_angle_beta   90.84264290
_cell_angle_gamma   90.00000000
_symmetry_Int_Tables_number   1
_chemical_formula_structural   SiO2
_chemical_formula_sum   'Si64 O128'
_cell_volume   3801.02902556
_cell_formula_units_Z   64
loop_
 _symmetry_equiv_pos_site_id
 _symmetry_equiv_pos_as_xyz
  1  'x, y, z'
loop_
 _atom_site_type_symbol
 _atom_site_label
 _atom_site_symmetry_multiplicity
 _atom_site_fract_x
 _atom_site_fract_y
 _atom_site_fract_z
 _atom_site_occupancy
  Si  Si0  1  0.45250250  0.62055050  0.14455200  1
  Si  Si1  1  0.96070850  0.72340450  0.43321300  1
  Si  Si2  1  0.04583300  0.66901700  0.32142700  1
  Si  Si3  1  0.95696000  0.96706400  0.67932500  1
  Si  Si4  1  0.94782650  0.88778650  0.49573900  1
  Si  Si5  1  0.03929150  0.72340450  0.06678700  1
  Si  Si6  1  0.05217350  0.88778650  0.00426100  1
  Si  Si7  1  0.44715000  0.98959400  0.60312900  1
  Si  Si8  1  0.05285000  0.51040600  0.39687100  1
  Si  Si9  1  0.04749750  0.87944950  0.85544800  1
  Si  Si10  1  0.53929150  0.77659550  0.56678700  1
  Si  Si11  1  0.44328800  0.93755000  0.47817500  1
  Si  Si12  1  0.94328800  0.56245000  0.97817500  1
  Si  Si13  1  0.95416700  0.66901700  0.17857300  1
  Si  Si14  1  0.96608850  0.80040750  0.00995700  1
  Si  Si15  1  0.45416700  0.83098300  0.67857300  1
  Si  Si16  1  0.03391150  0.80040750  0.49004300  1
  Si  Si17  1  0.54304000  0.53293600  0.32067500  1
  Si  Si18  1  0.54583300  0.83098300  0.82142700  1
  Si  Si19  1  0.05671200  0.56245000  0.52182500  1
  Si  Si20  1  0.55285000  0.98959400  0.89687100  1
  Si  Si21  1  0.55217350  0.61221350  0.50426100  1
  Si  Si22  1  0.94715000  0.51040600  0.10312900  1
  Si  Si23  1  0.46070850  0.77659550  0.93321300  1
  Si  Si24  1  0.53391150  0.69959250  0.99004300  1
  Si  Si25  1  0.45696000  0.53293600  0.17932500  1
  Si  Si26  1  0.44782650  0.61221350  0.99573900  1
  Si  Si27  1  0.54749750  0.62055050  0.35544800  1
  Si  Si28  1  0.55671200  0.93755000  0.02182500  1
  Si  Si29  1  0.04304000  0.96706400  0.82067500  1
  Si  Si30  1  0.46608850  0.69959250  0.50995700  1
  Si  Si31  1  0.95250250  0.87944950  0.64455200  1
  Si  Si32  1  0.95250250  0.12055050  0.14455200  1
  Si  Si33  1  0.46070850  0.22340450  0.43321300  1
  Si  Si34  1  0.54583300  0.16901700  0.32142700  1
  Si  Si35  1  0.45696000  0.46706400  0.67932500  1
  Si  Si36  1  0.44782650  0.38778650  0.49573900  1
  Si  Si37  1  0.53929150  0.22340450  0.06678700  1
  Si  Si38  1  0.55217350  0.38778650  0.00426100  1
  Si  Si39  1  0.94715000  0.48959400  0.60312900  1
  Si  Si40  1  0.55285000  0.01040600  0.39687100  1
  Si  Si41  1  0.54749750  0.37944950  0.85544800  1
  Si  Si42  1  0.03929150  0.27659550  0.56678700  1
  Si  Si43  1  0.94328800  0.43755000  0.47817500  1
  Si  Si44  1  0.44328800  0.06245000  0.97817500  1
  Si  Si45  1  0.45416700  0.16901700  0.17857300  1
  Si  Si46  1  0.46608850  0.30040750  0.00995700  1
  Si  Si47  1  0.95416700  0.33098300  0.67857300  1
  Si  Si48  1  0.53391150  0.30040750  0.49004300  1
  Si  Si49  1  0.04304000  0.03293600  0.32067500  1
  Si  Si50  1  0.04583300  0.33098300  0.82142700  1
  Si  Si51  1  0.55671200  0.06245000  0.52182500  1
  Si  Si52  1  0.05285000  0.48959400  0.89687100  1
  Si  Si53  1  0.05217350  0.11221350  0.50426100  1
  Si  Si54  1  0.44715000  0.01040600  0.10312900  1
  Si  Si55  1  0.96070850  0.27659550  0.93321300  1
  Si  Si56  1  0.03391150  0.19959250  0.99004300  1
  Si  Si57  1  0.95696000  0.03293600  0.17932500  1
  Si  Si58  1  0.94782650  0.11221350  0.99573900  1
  Si  Si59  1  0.04749750  0.12055050  0.35544800  1
  Si  Si60  1  0.05671200  0.43755000  0.02182500  1
  Si  Si61  1  0.54304000  0.46706400  0.82067500  1
  Si  Si62  1  0.96608850  0.19959250  0.50995700  1
  Si  Si63  1  0.45250250  0.37944950  0.64455200  1
  O  O64  1  0.48774400  0.61496000  0.07046800  1
  O  O65  1  0.33946000  0.97676100  0.84432500  1
  O  O66  1  0.51091600  0.72931200  0.56817600  1
  O  O67  1  0.84590300  0.59772900  0.52160800  1
  O  O68  1  0.50600950  0.65517850  0.53398600  1
  O  O69  1  0.50735800  0.79246800  0.86372100  1
  O  O70  1  0.15211750  0.91937250  0.46838600  1
  O  O71  1  0.50000000  0.51740400  0.25000000  1
  O  O72  1  0.82927500  0.70459800  0.01769900  1
  O  O73  1  0.67072500  0.79540200  0.98230100  1
  O  O74  1  0.34418900  0.86546700  0.84051600  1
  O  O75  1  0.01080200  0.92044700  0.67882500  1
  O  O76  1  0.84182950  0.98856750  0.86710600  1
  O  O77  1  0.84418900  0.63453300  0.34051600  1
  O  O78  1  0.49399050  0.65517850  0.96601400  1
  O  O79  1  0.66054000  0.97676100  0.65567500  1
  O  O80  1  0.34590300  0.90227100  0.02160800  1
  O  O81  1  0.15409700  0.59772900  0.97839200  1
  O  O82  1  0.48919800  0.57955300  0.32117500  1
  O  O83  1  0.98774400  0.88504000  0.57046800  1
  O  O84  1  0.17072500  0.70459800  0.48230100  1
  O  O85  1  0.98908400  0.77068800  0.43182400  1
  O  O86  1  0.65581100  0.86546700  0.65948400  1
  O  O87  1  0.49944350  0.96632250  0.42042800  1
  O  O88  1  0.15817050  0.98856750  0.63289400  1
  O  O89  1  0.01225600  0.88504000  0.92953200  1
  O  O90  1  0.65409700  0.90227100  0.47839200  1
  O  O91  1  0.50000000  0.81793000  0.75000000  1
  O  O92  1  0.83946000  0.52323900  0.34432500  1
  O  O93  1  0.00600950  0.84482150  0.03398600  1
  O  O94  1  0.51080200  0.57955300  0.17882500  1
  O  O95  1  0.84266500  0.84718600  0.82954800  1
  O  O96  1  0.16980650  0.78956450  0.95505600  1
  O  O97  1  0.00000000  0.68207000  0.25000000  1
  O  O98  1  0.99944350  0.53367750  0.92042800  1
  O  O99  1  0.65817050  0.51143250  0.13289400  1
  O  O100  1  0.83019350  0.78956450  0.54494400  1
  O  O101  1  0.46209400  0.96027400  0.54406000  1
  O  O102  1  0.15581100  0.63453300  0.15948400  1
  O  O103  1  0.00055650  0.53367750  0.57957200  1
  O  O104  1  0.96209400  0.53972600  0.04406000  1
  O  O105  1  0.49264200  0.79246800  0.63627900  1
  O  O106  1  0.66980650  0.71043550  0.45505600  1
  O  O107  1  0.34266500  0.65281400  0.32954800  1
  O  O108  1  0.50055650  0.96632250  0.07957200  1
  O  O109  1  0.65733500  0.65281400  0.17045200  1
  O  O110  1  0.15733500  0.84718600  0.67045200  1
  O  O111  1  0.00735800  0.70753200  0.36372100  1
  O  O112  1  0.84788250  0.91937250  0.03161400  1
  O  O113  1  0.34182950  0.51143250  0.36710600  1
  O  O114  1  0.51225600  0.61496000  0.42953200  1
  O  O115  1  0.01091600  0.77068800  0.06817600  1
  O  O116  1  0.99399050  0.84482150  0.46601400  1
  O  O117  1  0.53790600  0.96027400  0.95594000  1
  O  O118  1  0.00000000  0.98259600  0.75000000  1
  O  O119  1  0.03790600  0.53972600  0.45594000  1
  O  O120  1  0.16054000  0.52323900  0.15567500  1
  O  O121  1  0.99264200  0.70753200  0.13627900  1
  O  O122  1  0.48908400  0.72931200  0.93182400  1
  O  O123  1  0.33019350  0.71043550  0.04494400  1
  O  O124  1  0.65211750  0.58062750  0.96838600  1
  O  O125  1  0.34788250  0.58062750  0.53161400  1
  O  O126  1  0.32927500  0.79540200  0.51769900  1
  O  O127  1  0.98919800  0.92044700  0.82117500  1
  O  O128  1  0.98774400  0.11496000  0.07046800  1
  O  O129  1  0.83946000  0.47676100  0.84432500  1
  O  O130  1  0.01091600  0.22931200  0.56817600  1
  O  O131  1  0.34590300  0.09772900  0.52160800  1
  O  O132  1  0.00600950  0.15517850  0.53398600  1
  O  O133  1  0.00735800  0.29246800  0.86372100  1
  O  O134  1  0.65211750  0.41937250  0.46838600  1
  O  O135  1  0.00000000  0.01740400  0.25000000  1
  O  O136  1  0.32927500  0.20459800  0.01769900  1
  O  O137  1  0.17072500  0.29540200  0.98230100  1
  O  O138  1  0.84418900  0.36546700  0.84051600  1
  O  O139  1  0.51080200  0.42044700  0.67882500  1
  O  O140  1  0.34182950  0.48856750  0.86710600  1
  O  O141  1  0.34418900  0.13453300  0.34051600  1
  O  O142  1  0.99399050  0.15517850  0.96601400  1
  O  O143  1  0.16054000  0.47676100  0.65567500  1
  O  O144  1  0.84590300  0.40227100  0.02160800  1
  O  O145  1  0.65409700  0.09772900  0.97839200  1
  O  O146  1  0.98919800  0.07955300  0.32117500  1
  O  O147  1  0.48774400  0.38504000  0.57046800  1
  O  O148  1  0.67072500  0.20459800  0.48230100  1
  O  O149  1  0.48908400  0.27068800  0.43182400  1
  O  O150  1  0.15581100  0.36546700  0.65948400  1
  O  O151  1  0.99944350  0.46632250  0.42042800  1
  O  O152  1  0.65817050  0.48856750  0.63289400  1
  O  O153  1  0.51225600  0.38504000  0.92953200  1
  O  O154  1  0.15409700  0.40227100  0.47839200  1
  O  O155  1  0.00000000  0.31793000  0.75000000  1
  O  O156  1  0.33946000  0.02323900  0.34432500  1
  O  O157  1  0.50600950  0.34482150  0.03398600  1
  O  O158  1  0.01080200  0.07955300  0.17882500  1
  O  O159  1  0.34266500  0.34718600  0.82954800  1
  O  O160  1  0.66980650  0.28956450  0.95505600  1
  O  O161  1  0.50000000  0.18207000  0.25000000  1
  O  O162  1  0.49944350  0.03367750  0.92042800  1
  O  O163  1  0.15817050  0.01143250  0.13289400  1
  O  O164  1  0.33019350  0.28956450  0.54494400  1
  O  O165  1  0.96209400  0.46027400  0.54406000  1
  O  O166  1  0.65581100  0.13453300  0.15948400  1
  O  O167  1  0.50055650  0.03367750  0.57957200  1
  O  O168  1  0.46209400  0.03972600  0.04406000  1
  O  O169  1  0.99264200  0.29246800  0.63627900  1
  O  O170  1  0.16980650  0.21043550  0.45505600  1
  O  O171  1  0.84266500  0.15281400  0.32954800  1
  O  O172  1  0.00055650  0.46632250  0.07957200  1
  O  O173  1  0.15733500  0.15281400  0.17045200  1
  O  O174  1  0.65733500  0.34718600  0.67045200  1
  O  O175  1  0.50735800  0.20753200  0.36372100  1
  O  O176  1  0.34788250  0.41937250  0.03161400  1
  O  O177  1  0.84182950  0.01143250  0.36710600  1
  O  O178  1  0.01225600  0.11496000  0.42953200  1
  O  O179  1  0.51091600  0.27068800  0.06817600  1
  O  O180  1  0.49399050  0.34482150  0.46601400  1
  O  O181  1  0.03790600  0.46027400  0.95594000  1
  O  O182  1  0.50000000  0.48259600  0.75000000  1
  O  O183  1  0.53790600  0.03972600  0.45594000  1
  O  O184  1  0.66054000  0.02323900  0.15567500  1
  O  O185  1  0.49264200  0.20753200  0.13627900  1
  O  O186  1  0.98908400  0.22931200  0.93182400  1
  O  O187  1  0.83019350  0.21043550  0.04494400  1
  O  O188  1  0.15211750  0.08062750  0.96838600  1
  O  O189  1  0.84788250  0.08062750  0.53161400  1
  O  O190  1  0.82927500  0.29540200  0.51769900  1
  O  O191  1  0.48919800  0.42044700  0.82117500  1
