# generated using pymatgen
data_SiC
_symmetry_space_group_name_H-M   'P 1'
_cell_length_a   3.09806414
_cell_length_b   3.09806414
_cell_length_c   83.33403610
_cell_angle_alpha   90.00000000
_cell_angle_beta   90.00000000
_cell_angle_gamma   120.00000000
_symmetry_Int_Tables_number   1
_chemical_formula_structural   SiC
_chemical_formula_sum   'Si33 C33'
_cell_volume   692.68193057
_cell_formula_units_Z   33
loop_
 _symmetry_equiv_pos_site_id
 _symmetry_equiv_pos_as_xyz
  1  'x, y, z'
loop_
 _atom_site_type_symbol
 _atom_site_label
 _atom_site_symmetry_multiplicity
 _atom_site_fract_x
 _atom_site_fract_y
 _atom_site_fract_z
 _atom_site_occupancy
  Si  Si0  1  0.00000000  0.00000000  0.09088100  1
  Si  Si1  1  0.33333333  0.66666667  0.30299567  1
  Si  Si2  1  0.66666667  0.33333333  0.15146733  1
  Si  Si3  1  0.33333333  0.66666667  0.12119467  1
  Si  Si4  1  0.33333333  0.66666667  0.24237367  1
  Si  Si5  1  0.33333333  0.66666667  0.06055767  1
  Si  Si6  1  0.66666667  0.33333333  0.33330433  1
  Si  Si7  1  0.00000000  0.00000000  0.18178900  1
  Si  Si8  1  0.66666667  0.33333333  0.03028633  1
  Si  Si9  1  0.00000000  0.00000000  0.27269800  1
  Si  Si10  1  0.66666667  0.33333333  0.21210133  1
  Si  Si11  1  0.66666667  0.33333333  0.42421433  1
  Si  Si12  1  0.00000000  0.00000000  0.63632900  1
  Si  Si13  1  0.33333333  0.66666667  0.48480067  1
  Si  Si14  1  0.00000000  0.00000000  0.45452800  1
  Si  Si15  1  0.00000000  0.00000000  0.57570700  1
  Si  Si16  1  0.00000000  0.00000000  0.39389100  1
  Si  Si17  1  0.33333333  0.66666667  0.66663767  1
  Si  Si18  1  0.66666667  0.33333333  0.51512233  1
  Si  Si19  1  0.33333333  0.66666667  0.36361967  1
  Si  Si20  1  0.66666667  0.33333333  0.60603133  1
  Si  Si21  1  0.33333333  0.66666667  0.54543467  1
  Si  Si22  1  0.33333333  0.66666667  0.75754767  1
  Si  Si23  1  0.66666667  0.33333333  0.96966233  1
  Si  Si24  1  0.00000000  0.00000000  0.81813400  1
  Si  Si25  1  0.66666667  0.33333333  0.78786133  1
  Si  Si26  1  0.66666667  0.33333333  0.90904033  1
  Si  Si27  1  0.66666667  0.33333333  0.72722433  1
  Si  Si28  1  0.00000000  0.00000000  0.99997100  1
  Si  Si29  1  0.33333333  0.66666667  0.84845567  1
  Si  Si30  1  0.00000000  0.00000000  0.69695300  1
  Si  Si31  1  0.33333333  0.66666667  0.93936467  1
  Si  Si32  1  0.00000000  0.00000000  0.87876800  1
  C  C33  1  0.00000000  0.00000000  0.20462300  1
  C  C34  1  0.66666667  0.33333333  0.23487433  1
  C  C35  1  0.00000000  0.00000000  0.11371500  1
  C  C36  1  0.66666667  0.33333333  0.17423333  1
  C  C37  1  0.66666667  0.33333333  0.05305533  1
  C  C38  1  0.33333333  0.66666667  0.32574667  1
  C  C39  1  0.00000000  0.00000000  0.29553200  1
  C  C40  1  0.33333333  0.66666667  0.08332767  1
  C  C41  1  0.00000000  0.00000000  0.02280900  1
  C  C42  1  0.33333333  0.66666667  0.26514367  1
  C  C43  1  0.33333333  0.66666667  0.14396367  1
  C  C44  1  0.66666667  0.33333333  0.53795633  1
  C  C45  1  0.33333333  0.66666667  0.56820767  1
  C  C46  1  0.66666667  0.33333333  0.44704833  1
  C  C47  1  0.33333333  0.66666667  0.50756667  1
  C  C48  1  0.33333333  0.66666667  0.38638867  1
  C  C49  1  0.00000000  0.00000000  0.65908000  1
  C  C50  1  0.66666667  0.33333333  0.62886533  1
  C  C51  1  0.00000000  0.00000000  0.41666100  1
  C  C52  1  0.66666667  0.33333333  0.35614233  1
  C  C53  1  0.00000000  0.00000000  0.59847700  1
  C  C54  1  0.00000000  0.00000000  0.47729700  1
  C  C55  1  0.33333333  0.66666667  0.87128967  1
  C  C56  1  0.00000000  0.00000000  0.90154100  1
  C  C57  1  0.33333333  0.66666667  0.78038167  1
  C  C58  1  0.00000000  0.00000000  0.84090000  1
  C  C59  1  0.00000000  0.00000000  0.71972200  1
  C  C60  1  0.66666667  0.33333333  0.99241333  1
  C  C61  1  0.33333333  0.66666667  0.96219867  1
  C  C62  1  0.66666667  0.33333333  0.74999433  1
  C  C63  1  0.33333333  0.66666667  0.68947567  1
  C  C64  1  0.66666667  0.33333333  0.93181033  1
  C  C65  1  0.66666667  0.33333333  0.81063033  1
