# generated using pymatgen
data_Yb(SmS2)2
_symmetry_space_group_name_H-M   'P 1'
_cell_length_a   8.44351800
_cell_length_b   8.44351800
_cell_length_c   8.45772000
_cell_angle_alpha   90.00000000
_cell_angle_beta   90.00000000
_cell_angle_gamma   90.00000000
_symmetry_Int_Tables_number   1
_chemical_formula_structural   Yb(SmS2)2
_chemical_formula_sum   'Yb4 Sm8 S16'
_cell_volume   602.97619996
_cell_formula_units_Z   4
loop_
 _symmetry_equiv_pos_site_id
 _symmetry_equiv_pos_as_xyz
  1  'x, y, z'
loop_
 _atom_site_type_symbol
 _atom_site_label
 _atom_site_symmetry_multiplicity
 _atom_site_fract_x
 _atom_site_fract_y
 _atom_site_fract_z
 _atom_site_occupancy
  Yb  Yb0  1  0.00000000  0.50000000  0.25000000  1
  Yb  Yb1  1  0.00000000  0.00000000  0.00000000  1
  Yb  Yb2  1  0.50000000  0.00000000  0.75000000  1
  Yb  Yb3  1  0.50000000  0.50000000  0.50000000  1
  Sm  Sm4  1  0.87176400  0.25000000  0.62500000  1
  Sm  Sm5  1  0.25000000  0.37176400  0.87500000  1
  Sm  Sm6  1  0.62823600  0.25000000  0.12500000  1
  Sm  Sm7  1  0.25000000  0.12823600  0.37500000  1
  Sm  Sm8  1  0.37176400  0.75000000  0.12500000  1
  Sm  Sm9  1  0.75000000  0.87176400  0.37500000  1
  Sm  Sm10  1  0.12823600  0.75000000  0.62500000  1
  Sm  Sm11  1  0.75000000  0.62823600  0.87500000  1
  S  S12  1  0.07414750  0.67650450  0.94690750  1
  S  S13  1  0.32349550  0.42585250  0.19690750  1
  S  S14  1  0.57414750  0.32349550  0.80309250  1
  S  S15  1  0.17650450  0.07414750  0.69690750  1
  S  S16  1  0.17650450  0.42585250  0.55309250  1
  S  S17  1  0.42585250  0.82349550  0.44690750  1
  S  S18  1  0.32349550  0.07414750  0.05309250  1
  S  S19  1  0.92585250  0.17650450  0.30309250  1
  S  S20  1  0.57414750  0.17650450  0.44690750  1
  S  S21  1  0.82349550  0.92585250  0.69690750  1
  S  S22  1  0.07414750  0.82349550  0.30309250  1
  S  S23  1  0.67650450  0.57414750  0.19690750  1
  S  S24  1  0.67650450  0.92585250  0.05309250  1
  S  S25  1  0.92585250  0.32349550  0.94690750  1
  S  S26  1  0.82349550  0.57414750  0.55309250  1
  S  S27  1  0.42585250  0.67650450  0.80309250  1
