# generated using pymatgen
data_Ho4Si2S3O7
_symmetry_space_group_name_H-M   'P 1'
_cell_length_a   11.69933600
_cell_length_b   11.69933600
_cell_length_c   13.62660800
_cell_angle_alpha   90.00000000
_cell_angle_beta   90.00000000
_cell_angle_gamma   90.00000000
_symmetry_Int_Tables_number   1
_chemical_formula_structural   Ho4Si2S3O7
_chemical_formula_sum   'Ho32 Si16 S24 O56'
_cell_volume   1865.13465034
_cell_formula_units_Z   8
loop_
 _symmetry_equiv_pos_site_id
 _symmetry_equiv_pos_as_xyz
  1  'x, y, z'
loop_
 _atom_site_type_symbol
 _atom_site_label
 _atom_site_symmetry_multiplicity
 _atom_site_fract_x
 _atom_site_fract_y
 _atom_site_fract_z
 _atom_site_occupancy
  Ho  Ho0  1  0.67231500  0.17231500  0.25000000  1
  Ho  Ho1  1  0.82768500  0.17231500  0.50000000  1
  Ho  Ho2  1  0.17231500  0.82768500  0.50000000  1
  Ho  Ho3  1  0.32768500  0.82768500  0.25000000  1
  Ho  Ho4  1  0.32768500  0.32768500  0.00000000  1
  Ho  Ho5  1  0.67231500  0.82768500  0.25000000  1
  Ho  Ho6  1  0.32768500  0.17231500  0.25000000  1
  Ho  Ho7  1  0.17231500  0.17231500  0.50000000  1
  Ho  Ho8  1  0.26444900  0.00000000  0.71631700  1
  Ho  Ho9  1  0.23555100  0.50000000  0.21631700  1
  Ho  Ho10  1  0.50000000  0.23555100  0.78368300  1
  Ho  Ho11  1  0.50000000  0.73555100  0.46631700  1
  Ho  Ho12  1  0.50000000  0.26444900  0.46631700  1
  Ho  Ho13  1  0.76444900  0.00000000  0.03368300  1
  Ho  Ho14  1  0.23555100  0.00000000  0.03368300  1
  Ho  Ho15  1  0.00000000  0.26444900  0.28368300  1
  Ho  Ho16  1  0.17231500  0.67231500  0.75000000  1
  Ho  Ho17  1  0.32768500  0.67231500  0.00000000  1
  Ho  Ho18  1  0.67231500  0.32768500  0.00000000  1
  Ho  Ho19  1  0.82768500  0.32768500  0.75000000  1
  Ho  Ho20  1  0.82768500  0.82768500  0.50000000  1
  Ho  Ho21  1  0.17231500  0.32768500  0.75000000  1
  Ho  Ho22  1  0.82768500  0.67231500  0.75000000  1
  Ho  Ho23  1  0.67231500  0.67231500  0.00000000  1
  Ho  Ho24  1  0.76444900  0.50000000  0.21631700  1
  Ho  Ho25  1  0.73555100  0.00000000  0.71631700  1
  Ho  Ho26  1  0.00000000  0.73555100  0.28368300  1
  Ho  Ho27  1  0.00000000  0.23555100  0.96631700  1
  Ho  Ho28  1  0.00000000  0.76444900  0.96631700  1
  Ho  Ho29  1  0.26444900  0.50000000  0.53368300  1
  Ho  Ho30  1  0.73555100  0.50000000  0.53368300  1
  Ho  Ho31  1  0.50000000  0.76444900  0.78368300  1
  Si  Si32  1  0.37489100  0.00000000  0.47073000  1
  Si  Si33  1  0.12510900  0.50000000  0.97073000  1
  Si  Si34  1  0.50000000  0.12510900  0.02927000  1
  Si  Si35  1  0.00000000  0.12510900  0.72073000  1
  Si  Si36  1  0.50000000  0.37489100  0.22073000  1
  Si  Si37  1  0.37489100  0.50000000  0.77927000  1
  Si  Si38  1  0.12510900  0.00000000  0.27927000  1
  Si  Si39  1  0.00000000  0.37489100  0.52927000  1
  Si  Si40  1  0.87489100  0.50000000  0.97073000  1
  Si  Si41  1  0.62510900  0.00000000  0.47073000  1
  Si  Si42  1  0.00000000  0.62510900  0.52927000  1
  Si  Si43  1  0.50000000  0.62510900  0.22073000  1
  Si  Si44  1  0.00000000  0.87489100  0.72073000  1
  Si  Si45  1  0.87489100  0.00000000  0.27927000  1
  Si  Si46  1  0.62510900  0.50000000  0.77927000  1
  Si  Si47  1  0.50000000  0.87489100  0.02927000  1
  S  S48  1  0.35408300  0.75000000  0.62500000  1
  S  S49  1  0.75000000  0.35408300  0.37500000  1
  S  S50  1  0.75000000  0.14591700  0.87500000  1
  S  S51  1  0.14591700  0.75000000  0.12500000  1
  S  S52  1  0.14591700  0.25000000  0.12500000  1
  S  S53  1  0.25000000  0.14591700  0.87500000  1
  S  S54  1  0.25000000  0.35408300  0.37500000  1
  S  S55  1  0.35408300  0.25000000  0.62500000  1
  S  S56  1  0.00000000  0.00000000  0.00000000  1
  S  S57  1  0.00000000  0.50000000  0.25000000  1
  S  S58  1  0.50000000  0.00000000  0.25000000  1
  S  S59  1  0.00000000  0.00000000  0.50000000  1
  S  S60  1  0.85408300  0.25000000  0.12500000  1
  S  S61  1  0.25000000  0.85408300  0.87500000  1
  S  S62  1  0.25000000  0.64591700  0.37500000  1
  S  S63  1  0.64591700  0.25000000  0.62500000  1
  S  S64  1  0.64591700  0.75000000  0.62500000  1
  S  S65  1  0.75000000  0.64591700  0.37500000  1
  S  S66  1  0.75000000  0.85408300  0.87500000  1
  S  S67  1  0.85408300  0.75000000  0.12500000  1
  S  S68  1  0.50000000  0.50000000  0.50000000  1
  S  S69  1  0.50000000  0.00000000  0.75000000  1
  S  S70  1  0.00000000  0.50000000  0.75000000  1
  S  S71  1  0.50000000  0.50000000  0.00000000  1
  O  O72  1  0.26686000  0.00000000  0.54900800  1
  O  O73  1  0.23314000  0.50000000  0.04900800  1
  O  O74  1  0.50000000  0.23314000  0.95099200  1
  O  O75  1  0.50000000  0.73314000  0.29900800  1
  O  O76  1  0.50000000  0.26686000  0.29900800  1
  O  O77  1  0.76686000  0.00000000  0.20099200  1
  O  O78  1  0.23314000  0.00000000  0.20099200  1
  O  O79  1  0.00000000  0.26686000  0.45099200  1
  O  O80  1  0.00000000  0.50000000  0.02456700  1
  O  O81  1  0.00000000  0.00000000  0.77456700  1
  O  O82  1  0.00000000  0.00000000  0.22543300  1
  O  O83  1  0.00000000  0.50000000  0.47543300  1
  O  O84  1  0.14132150  0.87610050  0.33366450  1
  O  O85  1  0.35867850  0.62389950  0.83366450  1
  O  O86  1  0.62389950  0.35867850  0.16633550  1
  O  O87  1  0.87610050  0.35867850  0.58366450  1
  O  O88  1  0.62389950  0.14132150  0.08366450  1
  O  O89  1  0.14132150  0.62389950  0.91633550  1
  O  O90  1  0.35867850  0.87610050  0.41633550  1
  O  O91  1  0.87610050  0.14132150  0.66633550  1
  O  O92  1  0.35867850  0.12389950  0.41633550  1
  O  O93  1  0.14132150  0.37610050  0.91633550  1
  O  O94  1  0.37610050  0.14132150  0.08366450  1
  O  O95  1  0.12389950  0.14132150  0.66633550  1
  O  O96  1  0.37610050  0.35867850  0.16633550  1
  O  O97  1  0.35867850  0.37610050  0.83366450  1
  O  O98  1  0.14132150  0.12389950  0.33366450  1
  O  O99  1  0.12389950  0.35867850  0.58366450  1
  O  O100  1  0.76686000  0.50000000  0.04900800  1
  O  O101  1  0.73314000  0.00000000  0.54900800  1
  O  O102  1  0.00000000  0.73314000  0.45099200  1
  O  O103  1  0.00000000  0.23314000  0.79900800  1
  O  O104  1  0.00000000  0.76686000  0.79900800  1
  O  O105  1  0.26686000  0.50000000  0.70099200  1
  O  O106  1  0.73314000  0.50000000  0.70099200  1
  O  O107  1  0.50000000  0.76686000  0.95099200  1
  O  O108  1  0.50000000  0.00000000  0.52456700  1
  O  O109  1  0.50000000  0.50000000  0.27456700  1
  O  O110  1  0.50000000  0.50000000  0.72543300  1
  O  O111  1  0.50000000  0.00000000  0.97543300  1
  O  O112  1  0.64132150  0.37610050  0.83366450  1
  O  O113  1  0.85867850  0.12389950  0.33366450  1
  O  O114  1  0.12389950  0.85867850  0.66633550  1
  O  O115  1  0.37610050  0.85867850  0.08366450  1
  O  O116  1  0.12389950  0.64132150  0.58366450  1
  O  O117  1  0.64132150  0.12389950  0.41633550  1
  O  O118  1  0.85867850  0.37610050  0.91633550  1
  O  O119  1  0.37610050  0.64132150  0.16633550  1
  O  O120  1  0.85867850  0.62389950  0.91633550  1
  O  O121  1  0.64132150  0.87610050  0.41633550  1
  O  O122  1  0.87610050  0.64132150  0.58366450  1
  O  O123  1  0.62389950  0.64132150  0.16633550  1
  O  O124  1  0.87610050  0.85867850  0.66633550  1
  O  O125  1  0.85867850  0.87610050  0.33366450  1
  O  O126  1  0.64132150  0.62389950  0.83366450  1
  O  O127  1  0.62389950  0.85867850  0.08366450  1
