# generated using pymatgen
data_Li7VAs4
_symmetry_space_group_name_H-M   'P 1'
_cell_length_a   13.36487400
_cell_length_b   6.04598000
_cell_length_c   11.98852465
_cell_angle_alpha   90.00000000
_cell_angle_beta   116.67577998
_cell_angle_gamma   90.00000000
_symmetry_Int_Tables_number   1
_chemical_formula_structural   Li7VAs4
_chemical_formula_sum   'Li28 V4 As16'
_cell_volume   865.60875344
_cell_formula_units_Z   4
loop_
 _symmetry_equiv_pos_site_id
 _symmetry_equiv_pos_as_xyz
  1  'x, y, z'
loop_
 _atom_site_type_symbol
 _atom_site_label
 _atom_site_symmetry_multiplicity
 _atom_site_fract_x
 _atom_site_fract_y
 _atom_site_fract_z
 _atom_site_occupancy
  Li  Li0  1  0.74971500  0.73545900  0.87631100  1
  Li  Li1  1  0.50000000  0.74517700  0.75000000  1
  Li  Li2  1  0.75906450  0.23456250  0.87761200  1
  Li  Li3  1  0.75028500  0.23545900  0.62368900  1
  Li  Li4  1  0.50041500  0.24935000  0.49297800  1
  Li  Li5  1  0.74093550  0.73456250  0.62238800  1
  Li  Li6  1  0.25906450  0.26543750  0.37761200  1
  Li  Li7  1  0.49958500  0.75065000  0.50702200  1
  Li  Li8  1  0.24971500  0.76454100  0.37631100  1
  Li  Li9  1  0.49958500  0.24935000  0.00702200  1
  Li  Li10  1  0.24093550  0.76543750  0.12238800  1
  Li  Li11  1  0.25028500  0.26454100  0.12368900  1
  Li  Li12  1  0.50000000  0.25482300  0.25000000  1
  Li  Li13  1  0.50041500  0.75065000  0.99297800  1
  Li  Li14  1  0.24971500  0.23545900  0.87631100  1
  Li  Li15  1  0.00000000  0.24517700  0.75000000  1
  Li  Li16  1  0.25906450  0.73456250  0.87761200  1
  Li  Li17  1  0.25028500  0.73545900  0.62368900  1
  Li  Li18  1  0.00041500  0.74935000  0.49297800  1
  Li  Li19  1  0.24093550  0.23456250  0.62238800  1
  Li  Li20  1  0.75906450  0.76543750  0.37761200  1
  Li  Li21  1  0.99958500  0.25065000  0.50702200  1
  Li  Li22  1  0.74971500  0.26454100  0.37631100  1
  Li  Li23  1  0.99958500  0.74935000  0.00702200  1
  Li  Li24  1  0.74093550  0.26543750  0.12238800  1
  Li  Li25  1  0.75028500  0.76454100  0.12368900  1
  Li  Li26  1  0.00000000  0.75482300  0.25000000  1
  Li  Li27  1  0.00041500  0.25065000  0.99297800  1
  V  V28  1  0.50000000  0.24420500  0.75000000  1
  V  V29  1  0.50000000  0.75579500  0.25000000  1
  V  V30  1  0.00000000  0.74420500  0.75000000  1
  V  V31  1  0.00000000  0.25579500  0.25000000  1
  As  As32  1  0.61666400  0.02105200  0.92329600  1
  As  As33  1  0.61704350  0.46817450  0.69360500  1
  As  As34  1  0.88295650  0.96817450  0.80639500  1
  As  As35  1  0.61666400  0.97894800  0.42329600  1
  As  As36  1  0.38333600  0.02105200  0.57670400  1
  As  As37  1  0.11704350  0.03182550  0.19360500  1
  As  As38  1  0.38295650  0.53182550  0.30639500  1
  As  As39  1  0.38333600  0.97894800  0.07670400  1
  As  As40  1  0.11666400  0.52105200  0.92329600  1
  As  As41  1  0.11704350  0.96817450  0.69360500  1
  As  As42  1  0.38295650  0.46817450  0.80639500  1
  As  As43  1  0.11666400  0.47894800  0.42329600  1
  As  As44  1  0.88333600  0.52105200  0.57670400  1
  As  As45  1  0.61704350  0.53182550  0.19360500  1
  As  As46  1  0.88295650  0.03182550  0.30639500  1
  As  As47  1  0.88333600  0.47894800  0.07670400  1
