# generated using pymatgen
data_MnTl2GeTe4
_symmetry_space_group_name_H-M   'P 1'
_cell_length_a   8.61741000
_cell_length_b   8.61741000
_cell_length_c   6.98218600
_cell_angle_alpha   90.00000000
_cell_angle_beta   90.00000000
_cell_angle_gamma   90.00000000
_symmetry_Int_Tables_number   1
_chemical_formula_structural   MnTl2GeTe4
_chemical_formula_sum   'Mn2 Tl4 Ge2 Te8'
_cell_volume   518.49542248
_cell_formula_units_Z   2
loop_
 _symmetry_equiv_pos_site_id
 _symmetry_equiv_pos_as_xyz
  1  'x, y, z'
loop_
 _atom_site_type_symbol
 _atom_site_label
 _atom_site_symmetry_multiplicity
 _atom_site_fract_x
 _atom_site_fract_y
 _atom_site_fract_z
 _atom_site_occupancy
  Mn  Mn0  1  0.00000000  0.00000000  0.50000000  1
  Mn  Mn1  1  0.50000000  0.50000000  0.00000000  1
  Tl  Tl2  1  0.50000000  0.00000000  0.50000000  1
  Tl  Tl3  1  0.50000000  0.00000000  0.00000000  1
  Tl  Tl4  1  0.00000000  0.50000000  0.00000000  1
  Tl  Tl5  1  0.00000000  0.50000000  0.50000000  1
  Ge  Ge6  1  0.00000000  0.00000000  0.00000000  1
  Ge  Ge7  1  0.50000000  0.50000000  0.50000000  1
  Te  Te8  1  0.66994950  0.66994950  0.26319950  1
  Te  Te9  1  0.83005050  0.83005050  0.76319950  1
  Te  Te10  1  0.83005050  0.16994950  0.23680050  1
  Te  Te11  1  0.66994950  0.33005050  0.73680050  1
  Te  Te12  1  0.16994950  0.16994950  0.76319950  1
  Te  Te13  1  0.33005050  0.33005050  0.26319950  1
  Te  Te14  1  0.33005050  0.66994950  0.73680050  1
  Te  Te15  1  0.16994950  0.83005050  0.23680050  1
