# generated using pymatgen
data_Sr2MgH6
_symmetry_space_group_name_H-M   'P 1'
_cell_length_a   5.49243901
_cell_length_b   5.49243901
_cell_length_c   4.20671300
_cell_angle_alpha   90.00000000
_cell_angle_beta   90.00000000
_cell_angle_gamma   120.00000000
_symmetry_Int_Tables_number   1
_chemical_formula_structural   Sr2MgH6
_chemical_formula_sum   'Sr2 Mg1 H6'
_cell_volume   109.90159642
_cell_formula_units_Z   1
loop_
 _symmetry_equiv_pos_site_id
 _symmetry_equiv_pos_as_xyz
  1  'x, y, z'
loop_
 _atom_site_type_symbol
 _atom_site_label
 _atom_site_symmetry_multiplicity
 _atom_site_fract_x
 _atom_site_fract_y
 _atom_site_fract_z
 _atom_site_occupancy
  Sr  Sr0  1  0.66666667  0.33333333  0.26258800  1
  Sr  Sr1  1  0.33333333  0.66666667  0.73741200  1
  Mg  Mg2  1  0.00000000  0.00000000  0.00000000  1
  H  H3  1  0.82252000  0.64504000  0.76486700  1
  H  H4  1  0.82252000  0.17748000  0.76486700  1
  H  H5  1  0.35496000  0.17748000  0.76486700  1
  H  H6  1  0.17748000  0.35496000  0.23513300  1
  H  H7  1  0.17748000  0.82252000  0.23513300  1
  H  H8  1  0.64504000  0.82252000  0.23513300  1
