# generated using pymatgen
data_RbHS
_symmetry_space_group_name_H-M   'P 1'
_cell_length_a   7.44380200
_cell_length_b   5.99910600
_cell_length_c   3.35350688
_cell_angle_alpha   90.00000000
_cell_angle_beta   113.72977126
_cell_angle_gamma   90.00000000
_symmetry_Int_Tables_number   1
_chemical_formula_structural   RbHS
_chemical_formula_sum   'Rb2 H2 S2'
_cell_volume   137.09350961
_cell_formula_units_Z   2
loop_
 _symmetry_equiv_pos_site_id
 _symmetry_equiv_pos_as_xyz
  1  'x, y, z'
loop_
 _atom_site_type_symbol
 _atom_site_label
 _atom_site_symmetry_multiplicity
 _atom_site_fract_x
 _atom_site_fract_y
 _atom_site_fract_z
 _atom_site_occupancy
  Rb  Rb0  1  0.00000000  0.38122500  0.00000000  1
  Rb  Rb1  1  0.50000000  0.88122500  0.00000000  1
  H  H2  1  0.00000000  0.85698000  0.00000000  1
  H  H3  1  0.50000000  0.35698000  0.00000000  1
  S  S4  1  0.00000000  0.89379500  0.50000000  1
  S  S5  1  0.50000000  0.39379500  0.50000000  1
