# generated using pymatgen
data_Na2MoC3SeN3
_symmetry_space_group_name_H-M   'P 1'
_cell_length_a   15.43909200
_cell_length_b   15.43909200
_cell_length_c   11.11277800
_cell_angle_alpha   90.00000000
_cell_angle_beta   90.00000000
_cell_angle_gamma   90.00000000
_symmetry_Int_Tables_number   1
_chemical_formula_structural   Na2MoC3SeN3
_chemical_formula_sum   'Na32 Mo16 C48 Se16 N48'
_cell_volume   2648.90357096
_cell_formula_units_Z   16
loop_
 _symmetry_equiv_pos_site_id
 _symmetry_equiv_pos_as_xyz
  1  'x, y, z'
loop_
 _atom_site_type_symbol
 _atom_site_label
 _atom_site_symmetry_multiplicity
 _atom_site_fract_x
 _atom_site_fract_y
 _atom_site_fract_z
 _atom_site_occupancy
  Na  Na0  1  0.75000000  0.14093500  0.62500000  1
  Na  Na1  1  0.00000000  0.36630900  0.14219000  1
  Na  Na2  1  0.36630900  0.00000000  0.85781000  1
  Na  Na3  1  0.14093500  0.75000000  0.37500000  1
  Na  Na4  1  0.63369100  0.00000000  0.85781000  1
  Na  Na5  1  0.86630900  0.00000000  0.39219000  1
  Na  Na6  1  0.00000000  0.13369100  0.60781000  1
  Na  Na7  1  0.75000000  0.85906500  0.62500000  1
  Na  Na8  1  0.00000000  0.63369100  0.14219000  1
  Na  Na9  1  0.25000000  0.14093500  0.62500000  1
  Na  Na10  1  0.13369100  0.00000000  0.39219000  1
  Na  Na11  1  0.25000000  0.85906500  0.62500000  1
  Na  Na12  1  0.85906500  0.25000000  0.37500000  1
  Na  Na13  1  0.00000000  0.86630900  0.60781000  1
  Na  Na14  1  0.14093500  0.25000000  0.37500000  1
  Na  Na15  1  0.85906500  0.75000000  0.37500000  1
  Na  Na16  1  0.25000000  0.64093500  0.12500000  1
  Na  Na17  1  0.50000000  0.86630900  0.64219000  1
  Na  Na18  1  0.86630900  0.50000000  0.35781000  1
  Na  Na19  1  0.64093500  0.25000000  0.87500000  1
  Na  Na20  1  0.13369100  0.50000000  0.35781000  1
  Na  Na21  1  0.36630900  0.50000000  0.89219000  1
  Na  Na22  1  0.50000000  0.63369100  0.10781000  1
  Na  Na23  1  0.25000000  0.35906500  0.12500000  1
  Na  Na24  1  0.50000000  0.13369100  0.64219000  1
  Na  Na25  1  0.75000000  0.64093500  0.12500000  1
  Na  Na26  1  0.63369100  0.50000000  0.89219000  1
  Na  Na27  1  0.75000000  0.35906500  0.12500000  1
  Na  Na28  1  0.35906500  0.75000000  0.87500000  1
  Na  Na29  1  0.50000000  0.36630900  0.10781000  1
  Na  Na30  1  0.64093500  0.75000000  0.87500000  1
  Na  Na31  1  0.35906500  0.25000000  0.87500000  1
  Mo  Mo32  1  0.00000000  0.90459100  0.09520600  1
  Mo  Mo33  1  0.40459100  0.00000000  0.34520600  1
  Mo  Mo34  1  0.00000000  0.40459100  0.65479400  1
  Mo  Mo35  1  0.00000000  0.09540900  0.09520600  1
  Mo  Mo36  1  0.09540900  0.00000000  0.90479400  1
  Mo  Mo37  1  0.59540900  0.00000000  0.34520600  1
  Mo  Mo38  1  0.90459100  0.00000000  0.90479400  1
  Mo  Mo39  1  0.00000000  0.59540900  0.65479400  1
  Mo  Mo40  1  0.50000000  0.40459100  0.59520600  1
  Mo  Mo41  1  0.90459100  0.50000000  0.84520600  1
  Mo  Mo42  1  0.50000000  0.90459100  0.15479400  1
  Mo  Mo43  1  0.50000000  0.59540900  0.59520600  1
  Mo  Mo44  1  0.59540900  0.50000000  0.40479400  1
  Mo  Mo45  1  0.09540900  0.50000000  0.84520600  1
  Mo  Mo46  1  0.40459100  0.50000000  0.40479400  1
  Mo  Mo47  1  0.50000000  0.09540900  0.15479400  1
  C  C48  1  0.70115550  0.08829050  0.36735750  1
  C  C49  1  0.08829050  0.29884450  0.63264250  1
  C  C50  1  0.00000000  0.10780800  0.28692100  1
  C  C51  1  0.91170950  0.70115550  0.63264250  1
  C  C52  1  0.29884450  0.08829050  0.36735750  1
  C  C53  1  0.08829050  0.70115550  0.63264250  1
  C  C54  1  0.60780800  0.00000000  0.53692100  1
  C  C55  1  0.00000000  0.39219200  0.46307900  1
  C  C56  1  0.70115550  0.91170950  0.36735750  1
  C  C57  1  0.91170950  0.29884450  0.63264250  1
  C  C58  1  0.89219200  0.00000000  0.71307900  1
  C  C59  1  0.79884450  0.08829050  0.88264250  1
  C  C60  1  0.29884450  0.91170950  0.36735750  1
  C  C61  1  0.08829050  0.20115550  0.11735750  1
  C  C62  1  0.20115550  0.08829050  0.88264250  1
  C  C63  1  0.00000000  0.60780800  0.46307900  1
  C  C64  1  0.79884450  0.91170950  0.88264250  1
  C  C65  1  0.91170950  0.20115550  0.11735750  1
  C  C66  1  0.39219200  0.00000000  0.53692100  1
  C  C67  1  0.10780800  0.00000000  0.71307900  1
  C  C68  1  0.08829050  0.79884450  0.11735750  1
  C  C69  1  0.91170950  0.79884450  0.11735750  1
  C  C70  1  0.00000000  0.89219200  0.28692100  1
  C  C71  1  0.20115550  0.91170950  0.88264250  1
  C  C72  1  0.20115550  0.58829050  0.86735750  1
  C  C73  1  0.58829050  0.79884450  0.13264250  1
  C  C74  1  0.50000000  0.60780800  0.78692100  1
  C  C75  1  0.41170950  0.20115550  0.13264250  1
  C  C76  1  0.79884450  0.58829050  0.86735750  1
  C  C77  1  0.58829050  0.20115550  0.13264250  1
  C  C78  1  0.10780800  0.50000000  0.03692100  1
  C  C79  1  0.50000000  0.89219200  0.96307900  1
  C  C80  1  0.20115550  0.41170950  0.86735750  1
  C  C81  1  0.41170950  0.79884450  0.13264250  1
  C  C82  1  0.39219200  0.50000000  0.21307900  1
  C  C83  1  0.29884450  0.58829050  0.38264250  1
  C  C84  1  0.79884450  0.41170950  0.86735750  1
  C  C85  1  0.58829050  0.70115550  0.61735750  1
  C  C86  1  0.70115550  0.58829050  0.38264250  1
  C  C87  1  0.50000000  0.10780800  0.96307900  1
  C  C88  1  0.29884450  0.41170950  0.38264250  1
  C  C89  1  0.41170950  0.70115550  0.61735750  1
  C  C90  1  0.89219200  0.50000000  0.03692100  1
  C  C91  1  0.60780800  0.50000000  0.21307900  1
  C  C92  1  0.58829050  0.29884450  0.61735750  1
  C  C93  1  0.41170950  0.29884450  0.61735750  1
  C  C94  1  0.50000000  0.39219200  0.78692100  1
  C  C95  1  0.70115550  0.41170950  0.38264250  1
  Se  Se96  1  0.00000000  0.86756350  0.87489050  1
  Se  Se97  1  0.00000000  0.36756350  0.87510950  1
  Se  Se98  1  0.63243650  0.00000000  0.12489050  1
  Se  Se99  1  0.00000000  0.13243650  0.87489050  1
  Se  Se100  1  0.86756350  0.00000000  0.12510950  1
  Se  Se101  1  0.00000000  0.63243650  0.87510950  1
  Se  Se102  1  0.36756350  0.00000000  0.12489050  1
  Se  Se103  1  0.13243650  0.00000000  0.12510950  1
  Se  Se104  1  0.50000000  0.36756350  0.37489050  1
  Se  Se105  1  0.50000000  0.86756350  0.37510950  1
  Se  Se106  1  0.13243650  0.50000000  0.62489050  1
  Se  Se107  1  0.50000000  0.63243650  0.37489050  1
  Se  Se108  1  0.36756350  0.50000000  0.62510950  1
  Se  Se109  1  0.50000000  0.13243650  0.37510950  1
  Se  Se110  1  0.86756350  0.50000000  0.62489050  1
  Se  Se111  1  0.63243650  0.50000000  0.62510950  1
  N  N112  1  0.12868100  0.23603200  0.60902900  1
  N  N113  1  0.26396800  0.12868100  0.85902900  1
  N  N114  1  0.76396800  0.12868100  0.39097100  1
  N  N115  1  0.00000000  0.12029000  0.39216400  1
  N  N116  1  0.23603200  0.87131900  0.39097100  1
  N  N117  1  0.12868100  0.73603200  0.14097100  1
  N  N118  1  0.87131900  0.23603200  0.60902900  1
  N  N119  1  0.00000000  0.62029000  0.35783600  1
  N  N120  1  0.87971000  0.00000000  0.60783600  1
  N  N121  1  0.00000000  0.87971000  0.39216400  1
  N  N122  1  0.37971000  0.00000000  0.64216400  1
  N  N123  1  0.76396800  0.87131900  0.39097100  1
  N  N124  1  0.87131900  0.76396800  0.60902900  1
  N  N125  1  0.87131900  0.73603200  0.14097100  1
  N  N126  1  0.12029000  0.00000000  0.60783600  1
  N  N127  1  0.73603200  0.12868100  0.85902900  1
  N  N128  1  0.62029000  0.00000000  0.64216400  1
  N  N129  1  0.12868100  0.26396800  0.14097100  1
  N  N130  1  0.26396800  0.87131900  0.85902900  1
  N  N131  1  0.23603200  0.12868100  0.39097100  1
  N  N132  1  0.12868100  0.76396800  0.60902900  1
  N  N133  1  0.00000000  0.37971000  0.35783600  1
  N  N134  1  0.87131900  0.26396800  0.14097100  1
  N  N135  1  0.73603200  0.87131900  0.85902900  1
  N  N136  1  0.62868100  0.73603200  0.10902900  1
  N  N137  1  0.76396800  0.62868100  0.35902900  1
  N  N138  1  0.26396800  0.62868100  0.89097100  1
  N  N139  1  0.50000000  0.62029000  0.89216400  1
  N  N140  1  0.73603200  0.37131900  0.89097100  1
  N  N141  1  0.62868100  0.23603200  0.64097100  1
  N  N142  1  0.37131900  0.73603200  0.10902900  1
  N  N143  1  0.50000000  0.12029000  0.85783600  1
  N  N144  1  0.37971000  0.50000000  0.10783600  1
  N  N145  1  0.50000000  0.37971000  0.89216400  1
  N  N146  1  0.87971000  0.50000000  0.14216400  1
  N  N147  1  0.26396800  0.37131900  0.89097100  1
  N  N148  1  0.37131900  0.26396800  0.10902900  1
  N  N149  1  0.37131900  0.23603200  0.64097100  1
  N  N150  1  0.62029000  0.50000000  0.10783600  1
  N  N151  1  0.23603200  0.62868100  0.35902900  1
  N  N152  1  0.12029000  0.50000000  0.14216400  1
  N  N153  1  0.62868100  0.76396800  0.64097100  1
  N  N154  1  0.76396800  0.37131900  0.35902900  1
  N  N155  1  0.73603200  0.62868100  0.89097100  1
  N  N156  1  0.62868100  0.26396800  0.10902900  1
  N  N157  1  0.50000000  0.87971000  0.85783600  1
  N  N158  1  0.37131900  0.76396800  0.64097100  1
  N  N159  1  0.23603200  0.37131900  0.35902900  1
