# generated using pymatgen
data_Nb3ZnFe3(O6F)2
_symmetry_space_group_name_H-M   'P 1'
_cell_length_a   4.72739400
_cell_length_b   5.16571083
_cell_length_c   11.03187657
_cell_angle_alpha   92.78770032
_cell_angle_beta   90.31525136
_cell_angle_gamma   90.61526053
_symmetry_Int_Tables_number   1
_chemical_formula_structural   Nb3ZnFe3(O6F)2
_chemical_formula_sum   'Nb3 Zn1 Fe3 O12 F2'
_cell_volume   269.06307179
_cell_formula_units_Z   1
loop_
 _symmetry_equiv_pos_site_id
 _symmetry_equiv_pos_as_xyz
  1  'x, y, z'
loop_
 _atom_site_type_symbol
 _atom_site_label
 _atom_site_symmetry_multiplicity
 _atom_site_fract_x
 _atom_site_fract_y
 _atom_site_fract_z
 _atom_site_occupancy
  Nb  Nb0  1  0.50889400  0.71515300  0.83910200  1
  Nb  Nb1  1  0.51052700  0.76957500  0.33766400  1
  Nb  Nb2  1  0.08136100  0.80896200  0.62038500  1
  Zn  Zn3  1  0.49760000  0.25081400  0.18010800  1
  Fe  Fe4  1  0.01868700  0.26715300  0.40081700  1
  Fe  Fe5  1  0.03791500  0.24007800  0.88296600  1
  Fe  Fe6  1  0.03390600  0.78230500  0.09343200  1
  O  O7  1  0.76299100  0.92917400  0.93376900  1
  O  O8  1  0.76575800  0.96450600  0.44213300  1
  O  O9  1  0.71191400  0.79769100  0.67384500  1
  O  O10  1  0.72424200  0.91313300  0.18503800  1
  O  O11  1  0.70590000  0.40391700  0.83998600  1
  O  O12  1  0.72912200  0.44782900  0.31713400  1
  O  O13  1  0.21939800  0.53636700  0.70281100  1
  O  O14  1  0.23308000  0.01164300  0.77385700  1
  O  O15  1  0.26834800  0.58001300  0.19246900  1
  O  O16  1  0.25644600  0.06621400  0.29942900  1
  O  O17  1  0.21126900  0.58180000  0.94801300  1
  O  O18  1  0.22063800  0.62503800  0.45691800  1
  F  F19  1  0.22587800  0.10421400  0.03802900  1
  F  F20  1  0.22612700  0.14642200  0.54709500  1
