# generated using pymatgen
data_CaLaMnSnO6
_symmetry_space_group_name_H-M   'P 1'
_cell_length_a   5.61000157
_cell_length_b   5.85578100
_cell_length_c   9.59398107
_cell_angle_alpha   90.00000000
_cell_angle_beta   125.19650541
_cell_angle_gamma   90.00000000
_symmetry_Int_Tables_number   1
_chemical_formula_structural   CaLaMnSnO6
_chemical_formula_sum   'Ca2 La2 Mn2 Sn2 O12'
_cell_volume   257.55170237
_cell_formula_units_Z   2
loop_
 _symmetry_equiv_pos_site_id
 _symmetry_equiv_pos_as_xyz
  1  'x, y, z'
loop_
 _atom_site_type_symbol
 _atom_site_label
 _atom_site_symmetry_multiplicity
 _atom_site_fract_x
 _atom_site_fract_y
 _atom_site_fract_z
 _atom_site_occupancy
  Ca  Ca0  1  0.23442900  0.80772850  0.74725100  1
  Ca  Ca1  1  0.23442900  0.19227150  0.24725100  1
  La  La2  1  0.76451600  0.30413050  0.75142700  1
  La  La3  1  0.76451600  0.69586950  0.25142700  1
  Mn  Mn4  1  0.50184900  0.24779050  0.00117600  1
  Mn  Mn5  1  0.50184900  0.75220950  0.50117600  1
  Sn  Sn6  1  0.00020800  0.75344150  0.99860100  1
  Sn  Sn7  1  0.00020800  0.24655850  0.49860100  1
  O  O8  1  0.35302200  0.78157650  0.25974600  1
  O  O9  1  0.16234700  0.05443250  0.95514200  1
  O  O10  1  0.76296900  0.05455450  0.55301300  1
  O  O11  1  0.84099200  0.55337250  0.54724100  1
  O  O12  1  0.23924900  0.55984750  0.94586700  1
  O  O13  1  0.64046300  0.27803950  0.24055000  1
  O  O14  1  0.35302200  0.21842350  0.75974600  1
  O  O15  1  0.76296900  0.94544550  0.05301300  1
  O  O16  1  0.16234700  0.94556750  0.45514200  1
  O  O17  1  0.84099200  0.44662750  0.04724100  1
  O  O18  1  0.23924900  0.44015250  0.44586700  1
  O  O19  1  0.64046300  0.72196050  0.74055000  1
