# generated using pymatgen
data_Li2MoO3
_symmetry_space_group_name_H-M   'P 1'
_cell_length_a   6.06354591
_cell_length_b   6.06472231
_cell_length_c   13.55338717
_cell_angle_alpha   102.50719995
_cell_angle_beta   102.59995828
_cell_angle_gamma   89.35287628
_symmetry_Int_Tables_number   1
_chemical_formula_structural   Li2MoO3
_chemical_formula_sum   'Li16 Mo8 O24'
_cell_volume   474.52419162
_cell_formula_units_Z   8
loop_
 _symmetry_equiv_pos_site_id
 _symmetry_equiv_pos_as_xyz
  1  'x, y, z'
loop_
 _atom_site_type_symbol
 _atom_site_label
 _atom_site_symmetry_multiplicity
 _atom_site_fract_x
 _atom_site_fract_y
 _atom_site_fract_z
 _atom_site_occupancy
  Li  Li0  1  0.99945600  0.00166900  0.98889900  1
  Li  Li1  1  0.47800400  0.01031600  0.99284100  1
  Li  Li2  1  0.17059100  0.18101700  0.83793100  1
  Li  Li3  1  0.01424500  0.48587400  0.49653900  1
  Li  Li4  1  0.83726400  0.33183600  0.66887500  1
  Li  Li5  1  0.65758100  0.18571900  0.83879000  1
  Li  Li6  1  0.50213300  0.50502900  0.50156500  1
  Li  Li7  1  0.33806800  0.33230300  0.16494100  1
  Li  Li8  1  0.34062300  0.33269400  0.67423500  1
  Li  Li9  1  0.16799600  0.16784900  0.33050700  1
  Li  Li10  1  0.18537500  0.64975700  0.33772200  1
  Li  Li11  1  0.66417100  0.66661200  0.83922600  1
  Li  Li12  1  0.66020900  0.65377700  0.33544300  1
  Li  Li13  1  0.48248100  0.49143400  0.98995900  1
  Li  Li14  1  0.33363700  0.83079200  0.16329500  1
  Li  Li15  1  0.01168900  0.00152500  0.49987900  1
  Mo  Mo16  1  0.49831000  0.01054200  0.49235100  1
  Mo  Mo17  1  0.00781000  0.49517200  0.00322300  1
  Mo  Mo18  1  0.83509100  0.33359200  0.16640500  1
  Mo  Mo19  1  0.83354600  0.82672200  0.16552200  1
  Mo  Mo20  1  0.65593000  0.17090700  0.33781000  1
  Mo  Mo21  1  0.33344200  0.83135000  0.66920300  1
  Mo  Mo22  1  0.16792900  0.66449200  0.82907800  1
  Mo  Mo23  1  0.83943100  0.83223000  0.66743400  1
  O  O24  1  0.09488100  0.07079200  0.66336700  1
  O  O25  1  0.75354400  0.24484000  0.49740500  1
  O  O26  1  0.42613600  0.39597500  0.33338800  1
  O  O27  1  0.57834700  0.07965600  0.65819500  1
  O  O28  1  0.27954900  0.22722400  0.49657700  1
  O  O29  1  0.09206200  0.58086300  0.17247200  1
  O  O30  1  0.06176100  0.08000000  0.16675500  1
  O  O31  1  0.75356500  0.26461700  0.00725700  1
  O  O32  1  0.75545300  0.74678600  0.00858400  1
  O  O33  1  0.90641300  0.40067400  0.32725600  1
  O  O34  1  0.58577700  0.08320300  0.16964700  1
  O  O35  1  0.60226600  0.58292100  0.16953300  1
  O  O36  1  0.40798500  0.91446300  0.82884600  1
  O  O37  1  0.40391400  0.43600300  0.83327200  1
  O  O38  1  0.23423900  0.26300200  0.00259800  1
  O  O39  1  0.08747800  0.57124400  0.66019600  1
  O  O40  1  0.22784500  0.73845900  0.99530700  1
  O  O41  1  0.92902400  0.43688700  0.83875300  1
  O  O42  1  0.92527000  0.91286400  0.83175600  1
  O  O43  1  0.73193000  0.77693700  0.49898900  1
  O  O44  1  0.57421500  0.59560400  0.66477300  1
  O  O45  1  0.41981800  0.91315800  0.33530200  1
  O  O46  1  0.27172700  0.76799000  0.50568600  1
  O  O47  1  0.89781600  0.92110700  0.32440000  1
