# generated using pymatgen
data_TeHO3
_symmetry_space_group_name_H-M   'P 1'
_cell_length_a   4.91138600
_cell_length_b   8.27137800
_cell_length_c   12.06611057
_cell_angle_alpha   90.00000000
_cell_angle_beta   92.32612541
_cell_angle_gamma   90.00000000
_symmetry_Int_Tables_number   1
_chemical_formula_structural   TeHO3
_chemical_formula_sum   'Te8 H8 O24'
_cell_volume   489.76892623
_cell_formula_units_Z   8
loop_
 _symmetry_equiv_pos_site_id
 _symmetry_equiv_pos_as_xyz
  1  'x, y, z'
loop_
 _atom_site_type_symbol
 _atom_site_label
 _atom_site_symmetry_multiplicity
 _atom_site_fract_x
 _atom_site_fract_y
 _atom_site_fract_z
 _atom_site_occupancy
  Te  Te0  1  0.98684300  0.30067700  0.61449100  1
  Te  Te1  1  0.48540800  0.21863800  0.39342900  1
  Te  Te2  1  0.48540800  0.78136200  0.89342900  1
  Te  Te3  1  0.98684300  0.69932300  0.11449100  1
  Te  Te4  1  0.87728800  0.40246200  0.91774700  1
  Te  Te5  1  0.31720300  0.08773600  0.07138100  1
  Te  Te6  1  0.31720300  0.91226400  0.57138100  1
  Te  Te7  1  0.87728800  0.59753800  0.41774700  1
  H  H8  1  0.21297800  0.35789000  0.24342700  1
  H  H9  1  0.21297800  0.64211000  0.74342700  1
  H  H10  1  0.51011000  0.23073200  0.85708100  1
  H  H11  1  0.51011000  0.76926800  0.35708100  1
  H  H12  1  0.44100400  0.39227500  0.70159200  1
  H  H13  1  0.88204900  0.11673100  0.29858500  1
  H  H14  1  0.88204900  0.88326900  0.79858500  1
  H  H15  1  0.44100400  0.60772500  0.20159200  1
  O  O16  1  0.75524500  0.29674000  0.73524900  1
  O  O17  1  0.21861900  0.24171400  0.26667800  1
  O  O18  1  0.21861900  0.75828600  0.76667800  1
  O  O19  1  0.75524500  0.70326000  0.23524900  1
  O  O20  1  0.52270000  0.29183100  0.92728000  1
  O  O21  1  0.99600700  0.19883400  0.03314300  1
  O  O22  1  0.99600700  0.80116600  0.53314300  1
  O  O23  1  0.52270000  0.70816900  0.42728000  1
  O  O24  1  0.67431200  0.40734100  0.34509800  1
  O  O25  1  0.17205400  0.09680600  0.65526200  1
  O  O26  1  0.17205400  0.90319400  0.15526200  1
  O  O27  1  0.67431200  0.59265900  0.84509800  1
  O  O28  1  0.23257400  0.34578500  0.48522200  1
  O  O29  1  0.73102600  0.16476000  0.52164700  1
  O  O30  1  0.73102600  0.83524000  0.02164700  1
  O  O31  1  0.23257400  0.65421500  0.98522200  1
  O  O32  1  0.80164500  0.49729400  0.56201600  1
  O  O33  1  0.28052400  0.02482900  0.42814300  1
  O  O34  1  0.28052400  0.97517100  0.92814300  1
  O  O35  1  0.80164500  0.50270600  0.06201600  1
  O  O36  1  0.24640400  0.42970800  0.70523800  1
  O  O37  1  0.69017800  0.07996700  0.29781100  1
  O  O38  1  0.69017800  0.92003300  0.79781100  1
  O  O39  1  0.24640400  0.57029200  0.20523800  1
