# generated using pymatgen
data_Rb2CeO3
_symmetry_space_group_name_H-M   'P 1'
_cell_length_a   6.44007800
_cell_length_b   11.12080400
_cell_length_c   6.93883762
_cell_angle_alpha   90.00000000
_cell_angle_beta   108.25669670
_cell_angle_gamma   90.00000000
_symmetry_Int_Tables_number   1
_chemical_formula_structural   Rb2CeO3
_chemical_formula_sum   'Rb8 Ce4 O12'
_cell_volume   471.93624775
_cell_formula_units_Z   4
loop_
 _symmetry_equiv_pos_site_id
 _symmetry_equiv_pos_as_xyz
  1  'x, y, z'
loop_
 _atom_site_type_symbol
 _atom_site_label
 _atom_site_symmetry_multiplicity
 _atom_site_fract_x
 _atom_site_fract_y
 _atom_site_fract_z
 _atom_site_occupancy
  Rb  Rb0  1  0.00000000  0.00000000  0.00000000  1
  Rb  Rb1  1  0.50000000  0.00000000  0.50000000  1
  Rb  Rb2  1  0.50000000  0.84298300  0.00000000  1
  Rb  Rb3  1  0.50000000  0.15701700  0.00000000  1
  Rb  Rb4  1  0.50000000  0.50000000  0.00000000  1
  Rb  Rb5  1  0.00000000  0.50000000  0.50000000  1
  Rb  Rb6  1  0.00000000  0.34298300  0.00000000  1
  Rb  Rb7  1  0.00000000  0.65701700  0.00000000  1
  Ce  Ce8  1  0.50000000  0.33300700  0.50000000  1
  Ce  Ce9  1  0.50000000  0.66699300  0.50000000  1
  Ce  Ce10  1  0.00000000  0.83300700  0.50000000  1
  Ce  Ce11  1  0.00000000  0.16699300  0.50000000  1
  O  O12  1  0.83472100  0.00000000  0.31668000  1
  O  O13  1  0.23805100  0.80081800  0.31383100  1
  O  O14  1  0.23805100  0.19918200  0.31383100  1
  O  O15  1  0.76194900  0.80081800  0.68616900  1
  O  O16  1  0.76194900  0.19918200  0.68616900  1
  O  O17  1  0.16527900  0.00000000  0.68332000  1
  O  O18  1  0.33472100  0.50000000  0.31668000  1
  O  O19  1  0.73805100  0.30081800  0.31383100  1
  O  O20  1  0.73805100  0.69918200  0.31383100  1
  O  O21  1  0.26194900  0.30081800  0.68616900  1
  O  O22  1  0.26194900  0.69918200  0.68616900  1
  O  O23  1  0.66527900  0.50000000  0.68332000  1
