# generated using pymatgen
data_NaH3SO5
_symmetry_space_group_name_H-M   'P 1'
_cell_length_a   7.92236800
_cell_length_b   7.94827800
_cell_length_c   8.02822505
_cell_angle_alpha   90.00000000
_cell_angle_beta   117.37031389
_cell_angle_gamma   90.00000000
_symmetry_Int_Tables_number   1
_chemical_formula_structural   NaH3SO5
_chemical_formula_sum   'Na4 H12 S4 O20'
_cell_volume   448.93847737
_cell_formula_units_Z   4
loop_
 _symmetry_equiv_pos_site_id
 _symmetry_equiv_pos_as_xyz
  1  'x, y, z'
loop_
 _atom_site_type_symbol
 _atom_site_label
 _atom_site_symmetry_multiplicity
 _atom_site_fract_x
 _atom_site_fract_y
 _atom_site_fract_z
 _atom_site_occupancy
  Na  Na0  1  0.48285650  0.03662150  0.50676400  1
  Na  Na1  1  0.48285650  0.96337850  0.00676400  1
  Na  Na2  1  0.98285650  0.53662150  0.50676400  1
  Na  Na3  1  0.98285650  0.46337850  0.00676400  1
  H  H4  1  0.32297000  0.80264200  0.22369600  1
  H  H5  1  0.32297000  0.19735800  0.72369600  1
  H  H6  1  0.53606800  0.74679400  0.31912600  1
  H  H7  1  0.53606800  0.25320600  0.81912600  1
  H  H8  1  0.86874150  0.04031350  0.99920500  1
  H  H9  1  0.86874150  0.95968650  0.49920500  1
  H  H10  1  0.82297000  0.30264200  0.22369600  1
  H  H11  1  0.82297000  0.69735800  0.72369600  1
  H  H12  1  0.03606800  0.24679400  0.31912600  1
  H  H13  1  0.03606800  0.75320600  0.81912600  1
  H  H14  1  0.36874150  0.54031350  0.99920500  1
  H  H15  1  0.36874150  0.45968650  0.49920500  1
  S  S16  1  0.50019900  0.38317300  0.25072900  1
  S  S17  1  0.50019900  0.61682700  0.75072900  1
  S  S18  1  0.00019900  0.88317300  0.25072900  1
  S  S19  1  0.00019900  0.11682700  0.75072900  1
  O  O20  1  0.13941500  0.01688400  0.34189600  1
  O  O21  1  0.13941500  0.98311600  0.84189600  1
  O  O22  1  0.41135250  0.32236850  0.36610500  1
  O  O23  1  0.41135250  0.67763150  0.86610500  1
  O  O24  1  0.82392350  0.96695250  0.07480100  1
  O  O25  1  0.82392350  0.03304750  0.57480100  1
  O  O26  1  0.57131250  0.24569650  0.17917700  1
  O  O27  1  0.57131250  0.75430350  0.67917700  1
  O  O28  1  0.45356200  0.84506200  0.26550200  1
  O  O29  1  0.45356200  0.15493800  0.76550200  1
  O  O30  1  0.63941500  0.51688400  0.34189600  1
  O  O31  1  0.63941500  0.48311600  0.84189600  1
  O  O32  1  0.91135250  0.82236850  0.36610500  1
  O  O33  1  0.91135250  0.17763150  0.86610500  1
  O  O34  1  0.32392350  0.46695250  0.07480100  1
  O  O35  1  0.32392350  0.53304750  0.57480100  1
  O  O36  1  0.07131250  0.74569650  0.17917700  1
  O  O37  1  0.07131250  0.25430350  0.67917700  1
  O  O38  1  0.95356200  0.34506200  0.26550200  1
  O  O39  1  0.95356200  0.65493800  0.76550200  1
