# generated using pymatgen
data_BeF2
_symmetry_space_group_name_H-M   'P 1'
_cell_length_a   8.53875400
_cell_length_b   4.87484800
_cell_length_c   9.03220030
_cell_angle_alpha   90.00000000
_cell_angle_beta   92.53991358
_cell_angle_gamma   90.00000000
_symmetry_Int_Tables_number   1
_chemical_formula_structural   BeF2
_chemical_formula_sum   'Be6 F12'
_cell_volume   375.59714009
_cell_formula_units_Z   6
loop_
 _symmetry_equiv_pos_site_id
 _symmetry_equiv_pos_as_xyz
  1  'x, y, z'
loop_
 _atom_site_type_symbol
 _atom_site_label
 _atom_site_symmetry_multiplicity
 _atom_site_fract_x
 _atom_site_fract_y
 _atom_site_fract_z
 _atom_site_occupancy
  Be  Be0  1  0.76492650  0.82187950  0.33343400  1
  Be  Be1  1  0.00000000  0.45115200  0.50000000  1
  Be  Be2  1  0.73507350  0.32187950  0.66656600  1
  Be  Be3  1  0.26492650  0.32187950  0.33343400  1
  Be  Be4  1  0.50000000  0.95115200  0.50000000  1
  Be  Be5  1  0.23507350  0.82187950  0.66656600  1
  F  F6  1  0.71306100  0.54987000  0.75995600  1
  F  F7  1  0.89558550  0.63764250  0.39520000  1
  F  F8  1  0.88926300  0.26503200  0.59080000  1
  F  F9  1  0.60441450  0.13764250  0.60480000  1
  F  F10  1  0.61073700  0.76503200  0.40920000  1
  F  F11  1  0.78693900  0.04987000  0.24004400  1
  F  F12  1  0.21306100  0.04987000  0.75995600  1
  F  F13  1  0.39558550  0.13764250  0.39520000  1
  F  F14  1  0.38926300  0.76503200  0.59080000  1
  F  F15  1  0.10441450  0.63764250  0.60480000  1
  F  F16  1  0.11073700  0.26503200  0.40920000  1
  F  F17  1  0.28693900  0.54987000  0.24004400  1
