# generated using pymatgen
data_K3SiN(OF2)3
_symmetry_space_group_name_H-M   'P 1'
_cell_length_a   5.72195421
_cell_length_b   5.72195421
_cell_length_c   14.89028600
_cell_angle_alpha   90.00000000
_cell_angle_beta   90.00000000
_cell_angle_gamma   120.00000000
_symmetry_Int_Tables_number   1
_chemical_formula_structural   K3SiN(OF2)3
_chemical_formula_sum   'K6 Si2 N2 O6 F12'
_cell_volume   422.20408077
_cell_formula_units_Z   2
loop_
 _symmetry_equiv_pos_site_id
 _symmetry_equiv_pos_as_xyz
  1  'x, y, z'
loop_
 _atom_site_type_symbol
 _atom_site_label
 _atom_site_symmetry_multiplicity
 _atom_site_fract_x
 _atom_site_fract_y
 _atom_site_fract_z
 _atom_site_occupancy
  K  K0  1  0.33333333  0.66666667  0.58797500  1
  K  K1  1  0.66666667  0.33333333  0.08797500  1
  K  K2  1  0.66666667  0.33333333  0.41202500  1
  K  K3  1  0.33333333  0.66666667  0.91202500  1
  K  K4  1  0.00000000  0.00000000  0.25000000  1
  K  K5  1  0.00000000  0.00000000  0.75000000  1
  Si  Si6  1  0.00000000  0.00000000  0.50000000  1
  Si  Si7  1  0.00000000  0.00000000  0.00000000  1
  N  N8  1  0.33333333  0.66666667  0.25000000  1
  N  N9  1  0.66666667  0.33333333  0.75000000  1
  O  O10  1  0.07704400  0.53852200  0.25000000  1
  O  O11  1  0.46147800  0.92295600  0.25000000  1
  O  O12  1  0.53852200  0.07704400  0.75000000  1
  O  O13  1  0.53852200  0.46147800  0.75000000  1
  O  O14  1  0.46147800  0.53852200  0.25000000  1
  O  O15  1  0.92295600  0.46147800  0.75000000  1
  F  F16  1  0.85835700  0.14164300  0.56661300  1
  F  F17  1  0.14164300  0.85835700  0.06661300  1
  F  F18  1  0.85835700  0.71671400  0.93338700  1
  F  F19  1  0.28328600  0.14164300  0.56661300  1
  F  F20  1  0.71671400  0.85835700  0.06661300  1
  F  F21  1  0.14164300  0.28328600  0.06661300  1
  F  F22  1  0.85835700  0.71671400  0.56661300  1
  F  F23  1  0.71671400  0.85835700  0.43338700  1
  F  F24  1  0.28328600  0.14164300  0.93338700  1
  F  F25  1  0.14164300  0.28328600  0.43338700  1
  F  F26  1  0.14164300  0.85835700  0.43338700  1
  F  F27  1  0.85835700  0.14164300  0.93338700  1
