# generated using pymatgen
data_Tl9SbSe6
_symmetry_space_group_name_H-M   'P 1'
_cell_length_a   8.52787200
_cell_length_b   8.52787200
_cell_length_c   13.44569600
_cell_angle_alpha   90.00000000
_cell_angle_beta   90.00000000
_cell_angle_gamma   90.00000000
_symmetry_Int_Tables_number   1
_chemical_formula_structural   Tl9SbSe6
_chemical_formula_sum   'Tl18 Sb2 Se12'
_cell_volume   977.83287473
_cell_formula_units_Z   2
loop_
 _symmetry_equiv_pos_site_id
 _symmetry_equiv_pos_as_xyz
  1  'x, y, z'
loop_
 _atom_site_type_symbol
 _atom_site_label
 _atom_site_symmetry_multiplicity
 _atom_site_fract_x
 _atom_site_fract_y
 _atom_site_fract_z
 _atom_site_occupancy
  Tl  Tl0  1  0.14274000  0.65743100  0.34754000  1
  Tl  Tl1  1  0.84256900  0.64274000  0.15246000  1
  Tl  Tl2  1  0.00000000  0.00000000  0.00000000  1
  Tl  Tl3  1  0.85726000  0.34256900  0.34754000  1
  Tl  Tl4  1  0.15743100  0.35726000  0.15246000  1
  Tl  Tl5  1  0.34256900  0.14274000  0.34754000  1
  Tl  Tl6  1  0.64274000  0.15743100  0.15246000  1
  Tl  Tl7  1  0.65743100  0.85726000  0.34754000  1
  Tl  Tl8  1  0.35726000  0.84256900  0.15246000  1
  Tl  Tl9  1  0.64274000  0.15743100  0.84754000  1
  Tl  Tl10  1  0.34256900  0.14274000  0.65246000  1
  Tl  Tl11  1  0.50000000  0.50000000  0.50000000  1
  Tl  Tl12  1  0.35726000  0.84256900  0.84754000  1
  Tl  Tl13  1  0.65743100  0.85726000  0.65246000  1
  Tl  Tl14  1  0.84256900  0.64274000  0.84754000  1
  Tl  Tl15  1  0.14274000  0.65743100  0.65246000  1
  Tl  Tl16  1  0.15743100  0.35726000  0.84754000  1
  Tl  Tl17  1  0.85726000  0.34256900  0.65246000  1
  Sb  Sb18  1  0.50000000  0.50000000  0.00000000  1
  Sb  Sb19  1  0.00000000  0.00000000  0.50000000  1
  Se  Se20  1  0.50000000  0.50000000  0.21879900  1
  Se  Se21  1  0.14582750  0.31658050  0.50000000  1
  Se  Se22  1  0.18341950  0.64582750  0.00000000  1
  Se  Se23  1  0.00000000  0.00000000  0.28120100  1
  Se  Se24  1  0.81658050  0.35417250  0.00000000  1
  Se  Se25  1  0.35417250  0.18341950  0.00000000  1
  Se  Se26  1  0.00000000  0.00000000  0.71879900  1
  Se  Se27  1  0.64582750  0.81658050  0.00000000  1
  Se  Se28  1  0.68341950  0.14582750  0.50000000  1
  Se  Se29  1  0.50000000  0.50000000  0.78120100  1
  Se  Se30  1  0.31658050  0.85417250  0.50000000  1
  Se  Se31  1  0.85417250  0.68341950  0.50000000  1
