# generated using pymatgen
data_In2S3
_symmetry_space_group_name_H-M   'P 1'
_cell_length_a   13.42706000
_cell_length_b   7.64883000
_cell_length_c   13.51984662
_cell_angle_alpha   90.00000000
_cell_angle_beta   107.60069560
_cell_angle_gamma   90.00000000
_symmetry_Int_Tables_number   1
_chemical_formula_structural   In2S3
_chemical_formula_sum   'In16 S24'
_cell_volume   1323.50568792
_cell_formula_units_Z   8
loop_
 _symmetry_equiv_pos_site_id
 _symmetry_equiv_pos_as_xyz
  1  'x, y, z'
loop_
 _atom_site_type_symbol
 _atom_site_label
 _atom_site_symmetry_multiplicity
 _atom_site_fract_x
 _atom_site_fract_y
 _atom_site_fract_z
 _atom_site_occupancy
  In  In0  1  0.70620200  0.00000000  0.60604600  1
  In  In1  1  0.80450200  0.00000000  0.25011400  1
  In  In2  1  0.50278400  0.50000000  0.47806200  1
  In  In3  1  0.75456900  0.50000000  0.76326100  1
  In  In4  1  0.50076950  0.25299350  0.76162200  1
  In  In5  1  0.79040500  0.50000000  0.44476400  1
  In  In6  1  0.50076950  0.74700650  0.76162200  1
  In  In7  1  0.79374000  0.00000000  0.91939500  1
  In  In8  1  0.20620200  0.50000000  0.60604600  1
  In  In9  1  0.30450200  0.50000000  0.25011400  1
  In  In10  1  0.00278400  0.00000000  0.47806200  1
  In  In11  1  0.25456900  0.00000000  0.76326100  1
  In  In12  1  0.00076950  0.75299350  0.76162200  1
  In  In13  1  0.29040500  0.00000000  0.44476400  1
  In  In14  1  0.00076950  0.24700650  0.76162200  1
  In  In15  1  0.29374000  0.50000000  0.91939500  1
  S  S16  1  0.87460750  0.24528450  0.37329600  1
  S  S17  1  0.89317200  0.00000000  0.62496900  1
  S  S18  1  0.87460750  0.75471550  0.37329600  1
  S  S19  1  0.61715900  0.50000000  0.85855500  1
  S  S20  1  0.61872950  0.72907450  0.62533900  1
  S  S21  1  0.87337300  0.00000000  0.10950600  1
  S  S22  1  0.60701200  0.50000000  0.35513000  1
  S  S23  1  0.61872950  0.27092550  0.62533900  1
  S  S24  1  0.87574800  0.73377800  0.87256000  1
  S  S25  1  0.87574800  0.26622200  0.87256000  1
  S  S26  1  0.87831500  0.50000000  0.63952400  1
  S  S27  1  0.60155900  0.00000000  0.87253900  1
  S  S28  1  0.37460750  0.74528450  0.37329600  1
  S  S29  1  0.39317200  0.50000000  0.62496900  1
  S  S30  1  0.37460750  0.25471550  0.37329600  1
  S  S31  1  0.11715900  0.00000000  0.85855500  1
  S  S32  1  0.11872950  0.22907450  0.62533900  1
  S  S33  1  0.37337300  0.50000000  0.10950600  1
  S  S34  1  0.10701200  0.00000000  0.35513000  1
  S  S35  1  0.11872950  0.77092550  0.62533900  1
  S  S36  1  0.37574800  0.23377800  0.87256000  1
  S  S37  1  0.37574800  0.76622200  0.87256000  1
  S  S38  1  0.37831500  0.00000000  0.63952400  1
  S  S39  1  0.10155900  0.50000000  0.87253900  1
