# generated using pymatgen
data_Re(SeCl6)2
_symmetry_space_group_name_H-M   'P 1'
_cell_length_a   12.07886200
_cell_length_b   12.97220600
_cell_length_c   21.89434600
_cell_angle_alpha   90.00000000
_cell_angle_beta   90.00000000
_cell_angle_gamma   90.00000000
_symmetry_Int_Tables_number   1
_chemical_formula_structural   Re(SeCl6)2
_chemical_formula_sum   'Re8 Se16 Cl96'
_cell_volume   3430.61382345
_cell_formula_units_Z   8
loop_
 _symmetry_equiv_pos_site_id
 _symmetry_equiv_pos_as_xyz
  1  'x, y, z'
loop_
 _atom_site_type_symbol
 _atom_site_label
 _atom_site_symmetry_multiplicity
 _atom_site_fract_x
 _atom_site_fract_y
 _atom_site_fract_z
 _atom_site_occupancy
  Re  Re0  1  0.50000000  0.50000000  0.07989800  1
  Re  Re1  1  0.25000000  0.25000000  0.32989800  1
  Re  Re2  1  0.50000000  0.00000000  0.57989800  1
  Re  Re3  1  0.25000000  0.75000000  0.82989800  1
  Re  Re4  1  0.00000000  0.50000000  0.57989800  1
  Re  Re5  1  0.75000000  0.25000000  0.82989800  1
  Re  Re6  1  0.00000000  0.00000000  0.07989800  1
  Re  Re7  1  0.75000000  0.75000000  0.32989800  1
  Se  Se8  1  0.50816100  0.27683700  0.49746800  1
  Se  Se9  1  0.49183900  0.72316300  0.49746800  1
  Se  Se10  1  0.25816100  0.97316300  0.24746800  1
  Se  Se11  1  0.24183900  0.52683700  0.24746800  1
  Se  Se12  1  0.50816100  0.77683700  0.99746800  1
  Se  Se13  1  0.49183900  0.22316300  0.99746800  1
  Se  Se14  1  0.25816100  0.47316300  0.74746800  1
  Se  Se15  1  0.24183900  0.02683700  0.74746800  1
  Se  Se16  1  0.00816100  0.27683700  0.99746800  1
  Se  Se17  1  0.99183900  0.72316300  0.99746800  1
  Se  Se18  1  0.75816100  0.97316300  0.74746800  1
  Se  Se19  1  0.74183900  0.52683700  0.74746800  1
  Se  Se20  1  0.00816100  0.77683700  0.49746800  1
  Se  Se21  1  0.99183900  0.22316300  0.49746800  1
  Se  Se22  1  0.75816100  0.47316300  0.24746800  1
  Se  Se23  1  0.74183900  0.02683700  0.24746800  1
  Cl  Cl24  1  0.36275000  0.91911550  0.32317450  1
  Cl  Cl25  1  0.36092150  0.17352600  0.25232850  1
  Cl  Cl26  1  0.13307700  0.32536250  0.40437550  1
  Cl  Cl27  1  0.36054600  0.40072250  0.32855650  1
  Cl  Cl28  1  0.38483550  0.66314550  0.42315600  1
  Cl  Cl29  1  0.61092150  0.57647400  0.00232850  1
  Cl  Cl30  1  0.36692300  0.17463750  0.40437550  1
  Cl  Cl31  1  0.38945400  0.65072250  0.07855650  1
  Cl  Cl32  1  0.11733150  0.60048150  0.00264200  1
  Cl  Cl33  1  0.13907850  0.32647400  0.25232850  1
  Cl  Cl34  1  0.86516450  0.41314550  0.17315600  1
  Cl  Cl35  1  0.61516450  0.33685450  0.42315600  1
  Cl  Cl36  1  0.11275000  0.33088450  0.07317450  1
  Cl  Cl37  1  0.38907850  0.42352600  0.00232850  1
  Cl  Cl38  1  0.36733150  0.64951850  0.25264200  1
  Cl  Cl39  1  0.13725000  0.58088450  0.32317450  1
  Cl  Cl40  1  0.38307700  0.42463750  0.15437550  1
  Cl  Cl41  1  0.88725000  0.66911550  0.07317450  1
  Cl  Cl42  1  0.13483550  0.58685450  0.17315600  1
  Cl  Cl43  1  0.11692300  0.07536250  0.15437550  1
  Cl  Cl44  1  0.63945400  0.59927750  0.32855650  1
  Cl  Cl45  1  0.13266850  0.85048150  0.25264200  1
  Cl  Cl46  1  0.88266850  0.39951850  0.00264200  1
  Cl  Cl47  1  0.11054600  0.84927750  0.07855650  1
  Cl  Cl48  1  0.36275000  0.41911550  0.82317450  1
  Cl  Cl49  1  0.36092150  0.67352600  0.75232850  1
  Cl  Cl50  1  0.13307700  0.82536250  0.90437550  1
  Cl  Cl51  1  0.36054600  0.90072250  0.82855650  1
  Cl  Cl52  1  0.38483550  0.16314550  0.92315600  1
  Cl  Cl53  1  0.61092150  0.07647400  0.50232850  1
  Cl  Cl54  1  0.36692300  0.67463750  0.90437550  1
  Cl  Cl55  1  0.38945400  0.15072250  0.57855650  1
  Cl  Cl56  1  0.11733150  0.10048150  0.50264200  1
  Cl  Cl57  1  0.13907850  0.82647400  0.75232850  1
  Cl  Cl58  1  0.86516450  0.91314550  0.67315600  1
  Cl  Cl59  1  0.61516450  0.83685450  0.92315600  1
  Cl  Cl60  1  0.11275000  0.83088450  0.57317450  1
  Cl  Cl61  1  0.38907850  0.92352600  0.50232850  1
  Cl  Cl62  1  0.36733150  0.14951850  0.75264200  1
  Cl  Cl63  1  0.13725000  0.08088450  0.82317450  1
  Cl  Cl64  1  0.38307700  0.92463750  0.65437550  1
  Cl  Cl65  1  0.88725000  0.16911550  0.57317450  1
  Cl  Cl66  1  0.13483550  0.08685450  0.67315600  1
  Cl  Cl67  1  0.11692300  0.57536250  0.65437550  1
  Cl  Cl68  1  0.63945400  0.09927750  0.82855650  1
  Cl  Cl69  1  0.13266850  0.35048150  0.75264200  1
  Cl  Cl70  1  0.88266850  0.89951850  0.50264200  1
  Cl  Cl71  1  0.11054600  0.34927750  0.57855650  1
  Cl  Cl72  1  0.86275000  0.91911550  0.82317450  1
  Cl  Cl73  1  0.86092150  0.17352600  0.75232850  1
  Cl  Cl74  1  0.63307700  0.32536250  0.90437550  1
  Cl  Cl75  1  0.86054600  0.40072250  0.82855650  1
  Cl  Cl76  1  0.88483550  0.66314550  0.92315600  1
  Cl  Cl77  1  0.11092150  0.57647400  0.50232850  1
  Cl  Cl78  1  0.86692300  0.17463750  0.90437550  1
  Cl  Cl79  1  0.88945400  0.65072250  0.57855650  1
  Cl  Cl80  1  0.61733150  0.60048150  0.50264200  1
  Cl  Cl81  1  0.63907850  0.32647400  0.75232850  1
  Cl  Cl82  1  0.36516450  0.41314550  0.67315600  1
  Cl  Cl83  1  0.11516450  0.33685450  0.92315600  1
  Cl  Cl84  1  0.61275000  0.33088450  0.57317450  1
  Cl  Cl85  1  0.88907850  0.42352600  0.50232850  1
  Cl  Cl86  1  0.86733150  0.64951850  0.75264200  1
  Cl  Cl87  1  0.63725000  0.58088450  0.82317450  1
  Cl  Cl88  1  0.88307700  0.42463750  0.65437550  1
  Cl  Cl89  1  0.38725000  0.66911550  0.57317450  1
  Cl  Cl90  1  0.63483550  0.58685450  0.67315600  1
  Cl  Cl91  1  0.61692300  0.07536250  0.65437550  1
  Cl  Cl92  1  0.13945400  0.59927750  0.82855650  1
  Cl  Cl93  1  0.63266850  0.85048150  0.75264200  1
  Cl  Cl94  1  0.38266850  0.39951850  0.50264200  1
  Cl  Cl95  1  0.61054600  0.84927750  0.57855650  1
  Cl  Cl96  1  0.86275000  0.41911550  0.32317450  1
  Cl  Cl97  1  0.86092150  0.67352600  0.25232850  1
  Cl  Cl98  1  0.63307700  0.82536250  0.40437550  1
  Cl  Cl99  1  0.86054600  0.90072250  0.32855650  1
  Cl  Cl100  1  0.88483550  0.16314550  0.42315600  1
  Cl  Cl101  1  0.11092150  0.07647400  0.00232850  1
  Cl  Cl102  1  0.86692300  0.67463750  0.40437550  1
  Cl  Cl103  1  0.88945400  0.15072250  0.07855650  1
  Cl  Cl104  1  0.61733150  0.10048150  0.00264200  1
  Cl  Cl105  1  0.63907850  0.82647400  0.25232850  1
  Cl  Cl106  1  0.36516450  0.91314550  0.17315600  1
  Cl  Cl107  1  0.11516450  0.83685450  0.42315600  1
  Cl  Cl108  1  0.61275000  0.83088450  0.07317450  1
  Cl  Cl109  1  0.88907850  0.92352600  0.00232850  1
  Cl  Cl110  1  0.86733150  0.14951850  0.25264200  1
  Cl  Cl111  1  0.63725000  0.08088450  0.32317450  1
  Cl  Cl112  1  0.88307700  0.92463750  0.15437550  1
  Cl  Cl113  1  0.38725000  0.16911550  0.07317450  1
  Cl  Cl114  1  0.63483550  0.08685450  0.17315600  1
  Cl  Cl115  1  0.61692300  0.57536250  0.15437550  1
  Cl  Cl116  1  0.13945400  0.09927750  0.32855650  1
  Cl  Cl117  1  0.63266850  0.35048150  0.25264200  1
  Cl  Cl118  1  0.38266850  0.89951850  0.00264200  1
  Cl  Cl119  1  0.61054600  0.34927750  0.07855650  1
