# generated using pymatgen
data_Li6I3N
_symmetry_space_group_name_H-M   'P 1'
_cell_length_a   9.51340800
_cell_length_b   9.57968800
_cell_length_c   6.75503514
_cell_angle_alpha   90.00000000
_cell_angle_beta   134.60474673
_cell_angle_gamma   90.00000000
_symmetry_Int_Tables_number   1
_chemical_formula_structural   Li6I3N
_chemical_formula_sum   'Li12 I6 N2'
_cell_volume   438.30406337
_cell_formula_units_Z   2
loop_
 _symmetry_equiv_pos_site_id
 _symmetry_equiv_pos_as_xyz
  1  'x, y, z'
loop_
 _atom_site_type_symbol
 _atom_site_label
 _atom_site_symmetry_multiplicity
 _atom_site_fract_x
 _atom_site_fract_y
 _atom_site_fract_z
 _atom_site_occupancy
  Li  Li0  1  0.27790300  0.00000000  0.40748200  1
  Li  Li1  1  0.52004150  0.70347450  0.04120300  1
  Li  Li2  1  0.13305400  0.00000000  0.88112400  1
  Li  Li3  1  0.89573300  0.00000000  0.17506100  1
  Li  Li4  1  0.75103500  0.00000000  0.64794500  1
  Li  Li5  1  0.52004150  0.29652550  0.04120300  1
  Li  Li6  1  0.77790300  0.50000000  0.40748200  1
  Li  Li7  1  0.02004150  0.20347450  0.04120300  1
  Li  Li8  1  0.63305400  0.50000000  0.88112400  1
  Li  Li9  1  0.39573300  0.50000000  0.17506100  1
  Li  Li10  1  0.25103500  0.50000000  0.64794500  1
  Li  Li11  1  0.02004150  0.79652550  0.04120300  1
  I  I12  1  0.50404050  0.75014850  0.50884600  1
  I  I13  1  0.50316300  0.00000000  0.00624800  1
  I  I14  1  0.50404050  0.24985150  0.50884600  1
  I  I15  1  0.00404050  0.25014850  0.50884600  1
  I  I16  1  0.00316300  0.50000000  0.00624800  1
  I  I17  1  0.00404050  0.74985150  0.50884600  1
  N  N18  1  0.01374800  0.00000000  0.02764300  1
  N  N19  1  0.51374800  0.50000000  0.02764300  1
