# generated using pymatgen
data_H4SO5
_symmetry_space_group_name_H-M   'P 1'
_cell_length_a   7.03231800
_cell_length_b   7.04388767
_cell_length_c   8.20421674
_cell_angle_alpha   86.60521742
_cell_angle_beta   81.29108073
_cell_angle_gamma   85.20157809
_symmetry_Int_Tables_number   1
_chemical_formula_structural   H4SO5
_chemical_formula_sum   'H16 S4 O20'
_cell_volume   399.85393644
_cell_formula_units_Z   4
loop_
 _symmetry_equiv_pos_site_id
 _symmetry_equiv_pos_as_xyz
  1  'x, y, z'
loop_
 _atom_site_type_symbol
 _atom_site_label
 _atom_site_symmetry_multiplicity
 _atom_site_fract_x
 _atom_site_fract_y
 _atom_site_fract_z
 _atom_site_occupancy
  H  H0  1  0.09336300  0.13069600  0.56376400  1
  H  H1  1  0.58956400  0.67600500  0.90542100  1
  H  H2  1  0.52189900  0.93982000  0.50393700  1
  H  H3  1  0.40622200  0.31159600  0.08978100  1
  H  H4  1  0.91298600  0.31017600  0.08600700  1
  H  H5  1  0.79242600  0.38373200  0.27476200  1
  H  H6  1  0.75973100  0.16565000  0.20656800  1
  H  H7  1  0.24782200  0.88999100  0.22726500  1
  H  H8  1  0.33759400  0.66533500  0.22905900  1
  H  H9  1  0.36779100  0.78283800  0.38204100  1
  H  H10  1  0.23883200  0.83097600  0.79710500  1
  H  H11  1  0.07741700  0.69140400  0.91491700  1
  H  H12  1  0.20736200  0.61393400  0.73059700  1
  H  H13  1  0.72710000  0.13087300  0.78658900  1
  H  H14  1  0.69907800  0.36835700  0.71563600  1
  H  H15  1  0.62529800  0.19971100  0.61447900  1
  S  S16  1  0.32323100  0.30196600  0.44916800  1
  S  S17  1  0.76085300  0.83932700  0.03329200  1
  S  S18  1  0.70907800  0.68015300  0.54966900  1
  S  S19  1  0.22564500  0.16018100  0.96341000  1
  O  O20  1  0.15297000  0.16406300  0.45068100  1
  O  O21  1  0.92056600  0.68969200  0.04363500  1
  O  O22  1  0.84515700  0.82188100  0.54418200  1
  O  O23  1  0.06878000  0.31188300  0.95042300  1
  O  O24  1  0.49520000  0.17419500  0.47995300  1
  O  O25  1  0.57389700  0.73082300  0.01804700  1
  O  O26  1  0.50320800  0.79913300  0.52144600  1
  O  O27  1  0.41513000  0.26229300  0.97546200  1
  O  O28  1  0.26573500  0.44003600  0.57511200  1
  O  O29  1  0.80378700  0.95980500  0.88266100  1
  O  O30  1  0.74323500  0.53848100  0.42439300  1
  O  O31  1  0.17922000  0.04030300  0.11359000  1
  O  O32  1  0.34712200  0.38363500  0.27959800  1
  O  O33  1  0.70396900  0.94131800  0.18383600  1
  O  O34  1  0.65716100  0.58350200  0.71688500  1
  O  O35  1  0.27622300  0.05618200  0.81146600  1
  O  O36  1  0.79188500  0.30205100  0.17894500  1
  O  O37  1  0.27565500  0.76797700  0.30026900  1
  O  O38  1  0.20575000  0.69481700  0.82599700  1
  O  O39  1  0.72392600  0.22671300  0.68762600  1
