# generated using pymatgen
data_Zn4B2O7
_symmetry_space_group_name_H-M   'P 1'
_cell_length_a   14.34446800
_cell_length_b   8.30790400
_cell_length_c   9.99078595
_cell_angle_alpha   90.00000000
_cell_angle_beta   117.52700560
_cell_angle_gamma   90.00000000
_symmetry_Int_Tables_number   1
_chemical_formula_structural   Zn4B2O7
_chemical_formula_sum   'Zn24 B12 O42'
_cell_volume   1055.83942145
_cell_formula_units_Z   6
loop_
 _symmetry_equiv_pos_site_id
 _symmetry_equiv_pos_as_xyz
  1  'x, y, z'
loop_
 _atom_site_type_symbol
 _atom_site_label
 _atom_site_symmetry_multiplicity
 _atom_site_fract_x
 _atom_site_fract_y
 _atom_site_fract_z
 _atom_site_occupancy
  Zn  Zn0  1  0.39441050  0.96523150  0.33803700  1
  Zn  Zn1  1  0.58011850  0.73045850  0.35894500  1
  Zn  Zn2  1  0.86980850  0.05810050  0.33538700  1
  Zn  Zn3  1  0.36954000  0.06748900  0.80359100  1
  Zn  Zn4  1  0.58197700  0.27437100  0.83745100  1
  Zn  Zn5  1  0.13019150  0.05810050  0.66461300  1
  Zn  Zn6  1  0.85597350  0.92601550  0.82859500  1
  Zn  Zn7  1  0.41988150  0.73045850  0.64105500  1
  Zn  Zn8  1  0.60558950  0.96523150  0.66196300  1
  Zn  Zn9  1  0.14402650  0.92601550  0.17140500  1
  Zn  Zn10  1  0.41802300  0.27437100  0.16254900  1
  Zn  Zn11  1  0.63046000  0.06748900  0.19640900  1
  Zn  Zn12  1  0.89441050  0.46523150  0.33803700  1
  Zn  Zn13  1  0.08011850  0.23045850  0.35894500  1
  Zn  Zn14  1  0.36980850  0.55810050  0.33538700  1
  Zn  Zn15  1  0.86954000  0.56748900  0.80359100  1
  Zn  Zn16  1  0.08197700  0.77437100  0.83745100  1
  Zn  Zn17  1  0.63019150  0.55810050  0.66461300  1
  Zn  Zn18  1  0.35597350  0.42601550  0.82859500  1
  Zn  Zn19  1  0.91988150  0.23045850  0.64105500  1
  Zn  Zn20  1  0.10558950  0.46523150  0.66196300  1
  Zn  Zn21  1  0.64402650  0.42601550  0.17140500  1
  Zn  Zn22  1  0.91802300  0.77437100  0.16254900  1
  Zn  Zn23  1  0.13046000  0.56748900  0.19640900  1
  B  B24  1  0.26122200  0.00871300  0.00067200  1
  B  B25  1  0.50000000  0.66675500  0.00000000  1
  B  B26  1  0.73877800  0.00871300  0.99932800  1
  B  B27  1  0.26045900  0.98964500  0.49923000  1
  B  B28  1  0.50000000  0.27009900  0.50000000  1
  B  B29  1  0.73954100  0.98964500  0.50077000  1
  B  B30  1  0.76122200  0.50871300  0.00067200  1
  B  B31  1  0.00000000  0.16675500  0.00000000  1
  B  B32  1  0.23877800  0.50871300  0.99932800  1
  B  B33  1  0.76045900  0.48964500  0.49923000  1
  B  B34  1  0.00000000  0.77009900  0.50000000  1
  B  B35  1  0.23954100  0.48964500  0.50077000  1
  O  O36  1  0.56054450  0.75008550  0.67624700  1
  O  O37  1  0.43945550  0.75008550  0.32375300  1
  O  O38  1  0.34198300  0.06651700  0.13287800  1
  O  O39  1  0.56511400  0.66224500  0.13909800  1
  O  O40  1  0.17434000  0.93189600  0.99893100  1
  O  O41  1  0.73712250  0.02418150  0.13644900  1
  O  O42  1  0.26287750  0.02418150  0.86355100  1
  O  O43  1  0.43488600  0.66224500  0.86090200  1
  O  O44  1  0.82566000  0.93189600  0.00106900  1
  O  O45  1  0.34147550  0.92975450  0.63227900  1
  O  O46  1  0.65801700  0.06651700  0.86712200  1
  O  O47  1  0.18013750  0.07566250  0.50543200  1
  O  O48  1  0.55546400  0.35258200  0.63441200  1
  O  O49  1  0.73596300  0.96384500  0.63455300  1
  O  O50  1  0.26403700  0.96384500  0.36544700  1
  O  O51  1  0.81986250  0.07566250  0.49456800  1
  O  O52  1  0.50000000  0.10314300  0.50000000  1
  O  O53  1  0.44453600  0.35258200  0.36558800  1
  O  O54  1  0.65852450  0.92975450  0.36772100  1
  O  O55  1  0.55377600  0.25520900  0.16693000  1
  O  O56  1  0.44622400  0.25520900  0.83307000  1
  O  O57  1  0.06054450  0.25008550  0.67624700  1
  O  O58  1  0.93945550  0.25008550  0.32375300  1
  O  O59  1  0.84198300  0.56651700  0.13287800  1
  O  O60  1  0.06511400  0.16224500  0.13909800  1
  O  O61  1  0.67434000  0.43189600  0.99893100  1
  O  O62  1  0.23712250  0.52418150  0.13644900  1
  O  O63  1  0.76287750  0.52418150  0.86355100  1
  O  O64  1  0.93488600  0.16224500  0.86090200  1
  O  O65  1  0.32566000  0.43189600  0.00106900  1
  O  O66  1  0.84147550  0.42975450  0.63227900  1
  O  O67  1  0.15801700  0.56651700  0.86712200  1
  O  O68  1  0.68013750  0.57566250  0.50543200  1
  O  O69  1  0.05546400  0.85258200  0.63441200  1
  O  O70  1  0.23596300  0.46384500  0.63455300  1
  O  O71  1  0.76403700  0.46384500  0.36544700  1
  O  O72  1  0.31986250  0.57566250  0.49456800  1
  O  O73  1  0.00000000  0.60314300  0.50000000  1
  O  O74  1  0.94453600  0.85258200  0.36558800  1
  O  O75  1  0.15852450  0.42975450  0.36772100  1
  O  O76  1  0.05377600  0.75520900  0.16693000  1
  O  O77  1  0.94622400  0.75520900  0.83307000  1
