# generated using pymatgen
data_Rb3Nb2AsSe11
_symmetry_space_group_name_H-M   'P 1'
_cell_length_a   15.47544800
_cell_length_b   13.84697600
_cell_length_c   10.24509946
_cell_angle_alpha   90.00000000
_cell_angle_beta   98.57541109
_cell_angle_gamma   90.00000000
_symmetry_Int_Tables_number   1
_chemical_formula_structural   Rb3Nb2AsSe11
_chemical_formula_sum   'Rb12 Nb8 As4 Se44'
_cell_volume   2170.85988939
_cell_formula_units_Z   4
loop_
 _symmetry_equiv_pos_site_id
 _symmetry_equiv_pos_as_xyz
  1  'x, y, z'
loop_
 _atom_site_type_symbol
 _atom_site_label
 _atom_site_symmetry_multiplicity
 _atom_site_fract_x
 _atom_site_fract_y
 _atom_site_fract_z
 _atom_site_occupancy
  Rb  Rb0  1  0.56582600  0.92222000  0.93112100  1
  Rb  Rb1  1  0.43159800  0.57955100  0.01473500  1
  Rb  Rb2  1  0.18015050  0.06757250  0.68545800  1
  Rb  Rb3  1  0.56582600  0.07778000  0.43112100  1
  Rb  Rb4  1  0.18015050  0.93242750  0.18545800  1
  Rb  Rb5  1  0.43159800  0.42044900  0.51473500  1
  Rb  Rb6  1  0.06582600  0.42222000  0.93112100  1
  Rb  Rb7  1  0.93159800  0.07955100  0.01473500  1
  Rb  Rb8  1  0.68015050  0.56757250  0.68545800  1
  Rb  Rb9  1  0.06582600  0.57778000  0.43112100  1
  Rb  Rb10  1  0.68015050  0.43242750  0.18545800  1
  Rb  Rb11  1  0.93159800  0.92044900  0.51473500  1
  Nb  Nb12  1  0.47890700  0.72682200  0.41365300  1
  Nb  Nb13  1  0.47890700  0.27317800  0.91365300  1
  Nb  Nb14  1  0.29626300  0.20580800  0.09924900  1
  Nb  Nb15  1  0.29626300  0.79419200  0.59924900  1
  Nb  Nb16  1  0.97890700  0.22682200  0.41365300  1
  Nb  Nb17  1  0.97890700  0.77317800  0.91365300  1
  Nb  Nb18  1  0.79626300  0.70580800  0.09924900  1
  Nb  Nb19  1  0.79626300  0.29419200  0.59924900  1
  As  As20  1  0.71183050  0.16063650  0.86005100  1
  As  As21  1  0.71183050  0.83936350  0.36005100  1
  As  As22  1  0.21183050  0.66063650  0.86005100  1
  As  As23  1  0.21183050  0.33936350  0.36005100  1
  Se  Se24  1  0.38034650  0.04444350  0.15950900  1
  Se  Se25  1  0.35215800  0.24844900  0.71384000  1
  Se  Se26  1  0.81344600  0.83468600  0.89900200  1
  Se  Se27  1  0.56013100  0.16004200  0.75847200  1
  Se  Se28  1  0.47143800  0.70497600  0.66772100  1
  Se  Se29  1  0.28183100  0.81548300  0.85216300  1
  Se  Se30  1  0.38034650  0.95555650  0.65950900  1
  Se  Se31  1  0.28183100  0.18451700  0.35216300  1
  Se  Se32  1  0.47143800  0.29502400  0.16772100  1
  Se  Se33  1  0.54735800  0.41793200  0.85541300  1
  Se  Se34  1  0.58523550  0.19467850  0.10480200  1
  Se  Se35  1  0.64864700  0.67045200  0.01448200  1
  Se  Se36  1  0.78405150  0.10605850  0.67319500  1
  Se  Se37  1  0.37460250  0.89864650  0.43827400  1
  Se  Se38  1  0.54735800  0.58206800  0.35541300  1
  Se  Se39  1  0.37460250  0.10135350  0.93827400  1
  Se  Se40  1  0.35215800  0.75155100  0.21384000  1
  Se  Se41  1  0.58523550  0.80532150  0.60480200  1
  Se  Se42  1  0.78405150  0.89394150  0.17319500  1
  Se  Se43  1  0.81344600  0.16531400  0.39900200  1
  Se  Se44  1  0.56013100  0.83995800  0.25847200  1
  Se  Se45  1  0.64864700  0.32954800  0.51448200  1
  Se  Se46  1  0.88034650  0.54444350  0.15950900  1
  Se  Se47  1  0.85215800  0.74844900  0.71384000  1
  Se  Se48  1  0.31344600  0.33468600  0.89900200  1
  Se  Se49  1  0.06013100  0.66004200  0.75847200  1
  Se  Se50  1  0.97143800  0.20497600  0.66772100  1
  Se  Se51  1  0.78183100  0.31548300  0.85216300  1
  Se  Se52  1  0.88034650  0.45555650  0.65950900  1
  Se  Se53  1  0.78183100  0.68451700  0.35216300  1
  Se  Se54  1  0.97143800  0.79502400  0.16772100  1
  Se  Se55  1  0.04735800  0.91793200  0.85541300  1
  Se  Se56  1  0.08523550  0.69467850  0.10480200  1
  Se  Se57  1  0.14864700  0.17045200  0.01448200  1
  Se  Se58  1  0.28405150  0.60605850  0.67319500  1
  Se  Se59  1  0.87460250  0.39864650  0.43827400  1
  Se  Se60  1  0.04735800  0.08206800  0.35541300  1
  Se  Se61  1  0.87460250  0.60135350  0.93827400  1
  Se  Se62  1  0.85215800  0.25155100  0.21384000  1
  Se  Se63  1  0.08523550  0.30532150  0.60480200  1
  Se  Se64  1  0.28405150  0.39394150  0.17319500  1
  Se  Se65  1  0.31344600  0.66531400  0.39900200  1
  Se  Se66  1  0.06013100  0.33995800  0.25847200  1
  Se  Se67  1  0.14864700  0.82954800  0.51448200  1
