# generated using pymatgen
data_CuH12N2(OF2)2
_symmetry_space_group_name_H-M   'P 1'
_cell_length_a   10.88259200
_cell_length_b   9.24543400
_cell_length_c   7.33736375
_cell_angle_alpha   90.00000000
_cell_angle_beta   109.79039507
_cell_angle_gamma   90.00000000
_symmetry_Int_Tables_number   1
_chemical_formula_structural   CuH12N2(OF2)2
_chemical_formula_sum   'Cu4 H48 N8 O8 F16'
_cell_volume   694.64113174
_cell_formula_units_Z   4
loop_
 _symmetry_equiv_pos_site_id
 _symmetry_equiv_pos_as_xyz
  1  'x, y, z'
loop_
 _atom_site_type_symbol
 _atom_site_label
 _atom_site_symmetry_multiplicity
 _atom_site_fract_x
 _atom_site_fract_y
 _atom_site_fract_z
 _atom_site_occupancy
  Cu  Cu0  1  0.00000000  0.19967400  0.25000000  1
  Cu  Cu1  1  0.00000000  0.80032600  0.75000000  1
  Cu  Cu2  1  0.50000000  0.69967400  0.25000000  1
  Cu  Cu3  1  0.50000000  0.30032600  0.75000000  1
  H  H4  1  0.76043050  0.39326550  0.58206100  1
  H  H5  1  0.23956950  0.39326550  0.91793900  1
  H  H6  1  0.23956950  0.60673450  0.41793900  1
  H  H7  1  0.76043050  0.60673450  0.08206100  1
  H  H8  1  0.82957000  0.36587800  0.40914000  1
  H  H9  1  0.17043000  0.36587800  0.09086000  1
  H  H10  1  0.17043000  0.63412200  0.59086000  1
  H  H11  1  0.82957000  0.63412200  0.90914000  1
  H  H12  1  0.74414400  0.51998900  0.40046600  1
  H  H13  1  0.25585600  0.51998900  0.09953400  1
  H  H14  1  0.25585600  0.48001100  0.59953400  1
  H  H15  1  0.74414400  0.48001100  0.90046600  1
  H  H16  1  0.88837200  0.49774600  0.58149400  1
  H  H17  1  0.11162800  0.49774600  0.91850600  1
  H  H18  1  0.11162800  0.50225400  0.41850600  1
  H  H19  1  0.88837200  0.50225400  0.08149400  1
  H  H20  1  0.03934300  0.12535800  0.60640600  1
  H  H21  1  0.96065700  0.12535800  0.89359400  1
  H  H22  1  0.96065700  0.87464200  0.39359400  1
  H  H23  1  0.03934300  0.87464200  0.10640600  1
  H  H24  1  0.15028850  0.24648250  0.61127800  1
  H  H25  1  0.84971150  0.24648250  0.88872200  1
  H  H26  1  0.84971150  0.75351750  0.38872200  1
  H  H27  1  0.15028850  0.75351750  0.11127800  1
  H  H28  1  0.26043050  0.89326550  0.58206100  1
  H  H29  1  0.73956950  0.89326550  0.91793900  1
  H  H30  1  0.73956950  0.10673450  0.41793900  1
  H  H31  1  0.26043050  0.10673450  0.08206100  1
  H  H32  1  0.32957000  0.86587800  0.40914000  1
  H  H33  1  0.67043000  0.86587800  0.09086000  1
  H  H34  1  0.67043000  0.13412200  0.59086000  1
  H  H35  1  0.32957000  0.13412200  0.90914000  1
  H  H36  1  0.24414400  0.01998900  0.40046600  1
  H  H37  1  0.75585600  0.01998900  0.09953400  1
  H  H38  1  0.75585600  0.98001100  0.59953400  1
  H  H39  1  0.24414400  0.98001100  0.90046600  1
  H  H40  1  0.38837200  0.99774600  0.58149400  1
  H  H41  1  0.61162800  0.99774600  0.91850600  1
  H  H42  1  0.61162800  0.00225400  0.41850600  1
  H  H43  1  0.38837200  0.00225400  0.08149400  1
  H  H44  1  0.53934300  0.62535800  0.60640600  1
  H  H45  1  0.46065700  0.62535800  0.89359400  1
  H  H46  1  0.46065700  0.37464200  0.39359400  1
  H  H47  1  0.53934300  0.37464200  0.10640600  1
  H  H48  1  0.65028850  0.74648250  0.61127800  1
  H  H49  1  0.34971150  0.74648250  0.88872200  1
  H  H50  1  0.34971150  0.25351750  0.38872200  1
  H  H51  1  0.65028850  0.25351750  0.11127800  1
  N  N52  1  0.80481450  0.44423050  0.49154600  1
  N  N53  1  0.19518550  0.44423050  0.00845400  1
  N  N54  1  0.19518550  0.55576950  0.50845400  1
  N  N55  1  0.80481450  0.55576950  0.99154600  1
  N  N56  1  0.30481450  0.94423050  0.49154600  1
  N  N57  1  0.69518550  0.94423050  0.00845400  1
  N  N58  1  0.69518550  0.05576950  0.50845400  1
  N  N59  1  0.30481450  0.05576950  0.99154600  1
  O  O60  1  0.06055150  0.20778350  0.53402800  1
  O  O61  1  0.93944850  0.20778350  0.96597200  1
  O  O62  1  0.93944850  0.79221650  0.46597200  1
  O  O63  1  0.06055150  0.79221650  0.03402800  1
  O  O64  1  0.56055150  0.70778350  0.53402800  1
  O  O65  1  0.43944850  0.70778350  0.96597200  1
  O  O66  1  0.43944850  0.29221650  0.46597200  1
  O  O67  1  0.56055150  0.29221650  0.03402800  1
  F  F68  1  0.00000000  0.41155700  0.25000000  1
  F  F69  1  0.00000000  0.58844300  0.75000000  1
  F  F70  1  0.00000000  0.98756700  0.25000000  1
  F  F71  1  0.00000000  0.01243300  0.75000000  1
  F  F72  1  0.72175750  0.68882450  0.24949100  1
  F  F73  1  0.27824250  0.68882450  0.25050900  1
  F  F74  1  0.27824250  0.31117550  0.75050900  1
  F  F75  1  0.72175750  0.31117550  0.74949100  1
  F  F76  1  0.50000000  0.91155700  0.25000000  1
  F  F77  1  0.50000000  0.08844300  0.75000000  1
  F  F78  1  0.50000000  0.48756700  0.25000000  1
  F  F79  1  0.50000000  0.51243300  0.75000000  1
  F  F80  1  0.22175750  0.18882450  0.24949100  1
  F  F81  1  0.77824250  0.18882450  0.25050900  1
  F  F82  1  0.77824250  0.81117550  0.75050900  1
  F  F83  1  0.22175750  0.81117550  0.74949100  1
