# generated using pymatgen
data_MgH6(NCl)2
_symmetry_space_group_name_H-M   'P 1'
_cell_length_a   7.52226000
_cell_length_b   8.21737000
_cell_length_c   8.23100800
_cell_angle_alpha   90.00000000
_cell_angle_beta   90.00000000
_cell_angle_gamma   90.00000000
_symmetry_Int_Tables_number   1
_chemical_formula_structural   MgH6(NCl)2
_chemical_formula_sum   'Mg4 H24 N8 Cl8'
_cell_volume   508.78489149
_cell_formula_units_Z   4
loop_
 _symmetry_equiv_pos_site_id
 _symmetry_equiv_pos_as_xyz
  1  'x, y, z'
loop_
 _atom_site_type_symbol
 _atom_site_label
 _atom_site_symmetry_multiplicity
 _atom_site_fract_x
 _atom_site_fract_y
 _atom_site_fract_z
 _atom_site_occupancy
  Mg  Mg0  1  0.50000000  0.75000000  0.25312000  1
  Mg  Mg1  1  0.00000000  0.75000000  0.24688000  1
  Mg  Mg2  1  0.00000000  0.25000000  0.75312000  1
  Mg  Mg3  1  0.50000000  0.25000000  0.74688000  1
  H  H4  1  0.50000000  0.42888500  0.15332400  1
  H  H5  1  0.00000000  0.42888500  0.34667600  1
  H  H6  1  0.00000000  0.07111500  0.34667600  1
  H  H7  1  0.50000000  0.07111500  0.15332400  1
  H  H8  1  0.10789750  0.94216950  0.82634350  1
  H  H9  1  0.89210250  0.44216950  0.17365650  1
  H  H10  1  0.10789750  0.44216950  0.17365650  1
  H  H11  1  0.39210250  0.44216950  0.32634350  1
  H  H12  1  0.39210250  0.55783050  0.67365650  1
  H  H13  1  0.60789750  0.05783050  0.32634350  1
  H  H14  1  0.39210250  0.05783050  0.32634350  1
  H  H15  1  0.10789750  0.05783050  0.17365650  1
  H  H16  1  0.00000000  0.92888500  0.65332400  1
  H  H17  1  0.50000000  0.92888500  0.84667600  1
  H  H18  1  0.50000000  0.57111500  0.84667600  1
  H  H19  1  0.00000000  0.57111500  0.65332400  1
  H  H20  1  0.60789750  0.44216950  0.32634350  1
  H  H21  1  0.39210250  0.94216950  0.67365650  1
  H  H22  1  0.60789750  0.94216950  0.67365650  1
  H  H23  1  0.89210250  0.94216950  0.82634350  1
  H  H24  1  0.89210250  0.05783050  0.17365650  1
  H  H25  1  0.10789750  0.55783050  0.82634350  1
  H  H26  1  0.89210250  0.55783050  0.82634350  1
  H  H27  1  0.60789750  0.55783050  0.67365650  1
  N  N28  1  0.50000000  0.48652250  0.26369550  1
  N  N29  1  0.00000000  0.48652250  0.23630450  1
  N  N30  1  0.00000000  0.01347750  0.23630450  1
  N  N31  1  0.50000000  0.01347750  0.26369550  1
  N  N32  1  0.00000000  0.98652250  0.76369550  1
  N  N33  1  0.50000000  0.98652250  0.73630450  1
  N  N34  1  0.50000000  0.51347750  0.73630450  1
  N  N35  1  0.00000000  0.51347750  0.76369550  1
  Cl  Cl36  1  0.74368800  0.25000000  0.96518400  1
  Cl  Cl37  1  0.75631200  0.25000000  0.53481600  1
  Cl  Cl38  1  0.24368800  0.25000000  0.53481600  1
  Cl  Cl39  1  0.25631200  0.25000000  0.96518400  1
  Cl  Cl40  1  0.24368800  0.75000000  0.46518400  1
  Cl  Cl41  1  0.25631200  0.75000000  0.03481600  1
  Cl  Cl42  1  0.74368800  0.75000000  0.03481600  1
  Cl  Cl43  1  0.75631200  0.75000000  0.46518400  1
