# generated using pymatgen
data_SrH10(SO4)2
_symmetry_space_group_name_H-M   'P 1'
_cell_length_a   21.22290400
_cell_length_b   8.18526800
_cell_length_c   10.67926155
_cell_angle_alpha   90.00000000
_cell_angle_beta   107.44150475
_cell_angle_gamma   90.00000000
_symmetry_Int_Tables_number   1
_chemical_formula_structural   SrH10(SO4)2
_chemical_formula_sum   'Sr8 H80 S16 O64'
_cell_volume   1769.85622753
_cell_formula_units_Z   8
loop_
 _symmetry_equiv_pos_site_id
 _symmetry_equiv_pos_as_xyz
  1  'x, y, z'
loop_
 _atom_site_type_symbol
 _atom_site_label
 _atom_site_symmetry_multiplicity
 _atom_site_fract_x
 _atom_site_fract_y
 _atom_site_fract_z
 _atom_site_occupancy
  Sr  Sr0  1  0.27711700  0.17368000  0.81409600  1
  Sr  Sr1  1  0.22288300  0.67368000  0.68590400  1
  Sr  Sr2  1  0.22288300  0.32632000  0.18590400  1
  Sr  Sr3  1  0.27711700  0.82632000  0.31409600  1
  Sr  Sr4  1  0.77711700  0.67368000  0.81409600  1
  Sr  Sr5  1  0.72288300  0.17368000  0.68590400  1
  Sr  Sr6  1  0.72288300  0.82632000  0.18590400  1
  Sr  Sr7  1  0.77711700  0.32632000  0.31409600  1
  H  H8  1  0.17652400  0.43620000  0.85783300  1
  H  H9  1  0.32347600  0.93620000  0.64216700  1
  H  H10  1  0.32347600  0.06380000  0.14216700  1
  H  H11  1  0.17652400  0.56380000  0.35783300  1
  H  H12  1  0.14045900  0.35390400  0.72140400  1
  H  H13  1  0.35954100  0.85390400  0.77859600  1
  H  H14  1  0.35954100  0.14609600  0.27859600  1
  H  H15  1  0.14045900  0.64609600  0.22140400  1
  H  H16  1  0.32811450  0.87309950  0.99083600  1
  H  H17  1  0.17188550  0.37309950  0.50916400  1
  H  H18  1  0.17188550  0.62690050  0.00916400  1
  H  H19  1  0.32811450  0.12690050  0.49083600  1
  H  H20  1  0.39327100  0.98355600  0.04299300  1
  H  H21  1  0.10672900  0.48355600  0.45700700  1
  H  H22  1  0.10672900  0.51644400  0.95700700  1
  H  H23  1  0.39327100  0.01644400  0.54299300  1
  H  H24  1  0.06822950  0.17842750  0.57989500  1
  H  H25  1  0.43177050  0.67842750  0.92010500  1
  H  H26  1  0.43177050  0.32157250  0.42010500  1
  H  H27  1  0.06822950  0.82157250  0.07989500  1
  H  H28  1  0.06521000  0.15868400  0.72500400  1
  H  H29  1  0.43479000  0.65868400  0.77499600  1
  H  H30  1  0.43479000  0.34131600  0.27499600  1
  H  H31  1  0.06521000  0.84131600  0.22500400  1
  H  H32  1  0.41753100  0.31307900  0.94874500  1
  H  H33  1  0.08246900  0.81307900  0.55125500  1
  H  H34  1  0.08246900  0.18692100  0.05125500  1
  H  H35  1  0.41753100  0.68692100  0.44874500  1
  H  H36  1  0.41652750  0.29968250  0.80176700  1
  H  H37  1  0.08347250  0.79968250  0.69823300  1
  H  H38  1  0.08347250  0.20031750  0.19823300  1
  H  H39  1  0.41652750  0.70031750  0.30176700  1
  H  H40  1  0.49710950  0.90383050  0.62944200  1
  H  H41  1  0.00289050  0.40383050  0.87055800  1
  H  H42  1  0.00289050  0.59616950  0.37055800  1
  H  H43  1  0.49710950  0.09616950  0.12944200  1
  H  H44  1  0.00690300  0.58266700  0.59573600  1
  H  H45  1  0.49309700  0.08266700  0.90426400  1
  H  H46  1  0.49309700  0.91733300  0.40426400  1
  H  H47  1  0.00690300  0.41733300  0.09573600  1
  H  H48  1  0.67652400  0.93620000  0.85783300  1
  H  H49  1  0.82347600  0.43620000  0.64216700  1
  H  H50  1  0.82347600  0.56380000  0.14216700  1
  H  H51  1  0.67652400  0.06380000  0.35783300  1
  H  H52  1  0.64045900  0.85390400  0.72140400  1
  H  H53  1  0.85954100  0.35390400  0.77859600  1
  H  H54  1  0.85954100  0.64609600  0.27859600  1
  H  H55  1  0.64045900  0.14609600  0.22140400  1
  H  H56  1  0.82811450  0.37309950  0.99083600  1
  H  H57  1  0.67188550  0.87309950  0.50916400  1
  H  H58  1  0.67188550  0.12690050  0.00916400  1
  H  H59  1  0.82811450  0.62690050  0.49083600  1
  H  H60  1  0.89327100  0.48355600  0.04299300  1
  H  H61  1  0.60672900  0.98355600  0.45700700  1
  H  H62  1  0.60672900  0.01644400  0.95700700  1
  H  H63  1  0.89327100  0.51644400  0.54299300  1
  H  H64  1  0.56822950  0.67842750  0.57989500  1
  H  H65  1  0.93177050  0.17842750  0.92010500  1
  H  H66  1  0.93177050  0.82157250  0.42010500  1
  H  H67  1  0.56822950  0.32157250  0.07989500  1
  H  H68  1  0.56521000  0.65868400  0.72500400  1
  H  H69  1  0.93479000  0.15868400  0.77499600  1
  H  H70  1  0.93479000  0.84131600  0.27499600  1
  H  H71  1  0.56521000  0.34131600  0.22500400  1
  H  H72  1  0.91753100  0.81307900  0.94874500  1
  H  H73  1  0.58246900  0.31307900  0.55125500  1
  H  H74  1  0.58246900  0.68692100  0.05125500  1
  H  H75  1  0.91753100  0.18692100  0.44874500  1
  H  H76  1  0.91652750  0.79968250  0.80176700  1
  H  H77  1  0.58347250  0.29968250  0.69823300  1
  H  H78  1  0.58347250  0.70031750  0.19823300  1
  H  H79  1  0.91652750  0.20031750  0.30176700  1
  H  H80  1  0.99710950  0.40383050  0.62944200  1
  H  H81  1  0.50289050  0.90383050  0.87055800  1
  H  H82  1  0.50289050  0.09616950  0.37055800  1
  H  H83  1  0.99710950  0.59616950  0.12944200  1
  H  H84  1  0.50690300  0.08266700  0.59573600  1
  H  H85  1  0.99309700  0.58266700  0.90426400  1
  H  H86  1  0.99309700  0.41733300  0.40426400  1
  H  H87  1  0.50690300  0.91733300  0.09573600  1
  S  S88  1  0.42547550  0.46138950  0.61498700  1
  S  S89  1  0.07452450  0.96138950  0.88501300  1
  S  S90  1  0.07452450  0.03861050  0.38501300  1
  S  S91  1  0.42547550  0.53861050  0.11498700  1
  S  S92  1  0.32555300  0.46484700  0.55314300  1
  S  S93  1  0.17444700  0.96484700  0.94685700  1
  S  S94  1  0.17444700  0.03515300  0.44685700  1
  S  S95  1  0.32555300  0.53515300  0.05314300  1
  S  S96  1  0.92547550  0.96138950  0.61498700  1
  S  S97  1  0.57452450  0.46138950  0.88501300  1
  S  S98  1  0.57452450  0.53861050  0.38501300  1
  S  S99  1  0.92547550  0.03861050  0.11498700  1
  S  S100  1  0.82555300  0.96484700  0.55314300  1
  S  S101  1  0.67444700  0.46484700  0.94685700  1
  S  S102  1  0.67444700  0.53515300  0.44685700  1
  S  S103  1  0.82555300  0.03515300  0.05314300  1
  O  O104  1  0.30222150  0.35077150  0.44003300  1
  O  O105  1  0.19777850  0.85077150  0.05996700  1
  O  O106  1  0.19777850  0.14922850  0.55996700  1
  O  O107  1  0.30222150  0.64922850  0.94003300  1
  O  O108  1  0.30258050  0.63473450  0.51505100  1
  O  O109  1  0.19741950  0.13473450  0.98494900  1
  O  O110  1  0.19741950  0.86526550  0.48494900  1
  O  O111  1  0.30258050  0.36526550  0.01505100  1
  O  O112  1  0.30000050  0.41603350  0.66367700  1
  O  O113  1  0.19999950  0.91603350  0.83632300  1
  O  O114  1  0.19999950  0.08396650  0.33632300  1
  O  O115  1  0.30000050  0.58396650  0.16367700  1
  O  O116  1  0.18363900  0.40220000  0.77236900  1
  O  O117  1  0.31636100  0.90220000  0.72763100  1
  O  O118  1  0.31636100  0.09780000  0.22763100  1
  O  O119  1  0.18363900  0.59780000  0.27236900  1
  O  O120  1  0.34324050  0.98531850  0.01571800  1
  O  O121  1  0.15675950  0.48531850  0.48428200  1
  O  O122  1  0.15675950  0.51468150  0.98428200  1
  O  O123  1  0.34324050  0.01468150  0.51571800  1
  O  O124  1  0.06580950  0.24171850  0.65725100  1
  O  O125  1  0.43419050  0.74171850  0.84274900  1
  O  O126  1  0.43419050  0.25828150  0.34274900  1
  O  O127  1  0.06580950  0.75828150  0.15725100  1
  O  O128  1  0.40745500  0.23681000  0.87333600  1
  O  O129  1  0.09254500  0.73681000  0.62666400  1
  O  O130  1  0.09254500  0.26319000  0.12666400  1
  O  O131  1  0.40745500  0.76319000  0.37333600  1
  O  O132  1  0.47238200  0.00595900  0.60201600  1
  O  O133  1  0.02761800  0.50595900  0.89798400  1
  O  O134  1  0.02761800  0.49404100  0.39798400  1
  O  O135  1  0.47238200  0.99404100  0.10201600  1
  O  O136  1  0.80222150  0.85077150  0.44003300  1
  O  O137  1  0.69777850  0.35077150  0.05996700  1
  O  O138  1  0.69777850  0.64922850  0.55996700  1
  O  O139  1  0.80222150  0.14922850  0.94003300  1
  O  O140  1  0.80258050  0.13473450  0.51505100  1
  O  O141  1  0.69741950  0.63473450  0.98494900  1
  O  O142  1  0.69741950  0.36526550  0.48494900  1
  O  O143  1  0.80258050  0.86526550  0.01505100  1
  O  O144  1  0.80000050  0.91603350  0.66367700  1
  O  O145  1  0.69999950  0.41603350  0.83632300  1
  O  O146  1  0.69999950  0.58396650  0.33632300  1
  O  O147  1  0.80000050  0.08396650  0.16367700  1
  O  O148  1  0.68363900  0.90220000  0.77236900  1
  O  O149  1  0.81636100  0.40220000  0.72763100  1
  O  O150  1  0.81636100  0.59780000  0.22763100  1
  O  O151  1  0.68363900  0.09780000  0.27236900  1
  O  O152  1  0.84324050  0.48531850  0.01571800  1
  O  O153  1  0.65675950  0.98531850  0.48428200  1
  O  O154  1  0.65675950  0.01468150  0.98428200  1
  O  O155  1  0.84324050  0.51468150  0.51571800  1
  O  O156  1  0.56580950  0.74171850  0.65725100  1
  O  O157  1  0.93419050  0.24171850  0.84274900  1
  O  O158  1  0.93419050  0.75828150  0.34274900  1
  O  O159  1  0.56580950  0.25828150  0.15725100  1
  O  O160  1  0.90745500  0.73681000  0.87333600  1
  O  O161  1  0.59254500  0.23681000  0.62666400  1
  O  O162  1  0.59254500  0.76319000  0.12666400  1
  O  O163  1  0.90745500  0.26319000  0.37333600  1
  O  O164  1  0.97238200  0.50595900  0.60201600  1
  O  O165  1  0.52761800  0.00595900  0.89798400  1
  O  O166  1  0.52761800  0.99404100  0.39798400  1
  O  O167  1  0.97238200  0.49404100  0.10201600  1
