# generated using pymatgen
data_KHgSbS3
_symmetry_space_group_name_H-M   'P 1'
_cell_length_a   9.04334400
_cell_length_b   9.16183400
_cell_length_c   17.62289384
_cell_angle_alpha   90.00000000
_cell_angle_beta   104.79936284
_cell_angle_gamma   90.00000000
_symmetry_Int_Tables_number   1
_chemical_formula_structural   KHgSbS3
_chemical_formula_sum   'K8 Hg8 Sb8 S24'
_cell_volume   1411.68278609
_cell_formula_units_Z   8
loop_
 _symmetry_equiv_pos_site_id
 _symmetry_equiv_pos_as_xyz
  1  'x, y, z'
loop_
 _atom_site_type_symbol
 _atom_site_label
 _atom_site_symmetry_multiplicity
 _atom_site_fract_x
 _atom_site_fract_y
 _atom_site_fract_z
 _atom_site_occupancy
  K  K0  1  0.67837250  0.91291550  0.08444100  1
  K  K1  1  0.32162750  0.08708450  0.91555900  1
  K  K2  1  0.32162750  0.91291550  0.41555900  1
  K  K3  1  0.67837250  0.08708450  0.58444100  1
  K  K4  1  0.17837250  0.41291550  0.08444100  1
  K  K5  1  0.82162750  0.58708450  0.91555900  1
  K  K6  1  0.82162750  0.41291550  0.41555900  1
  K  K7  1  0.17837250  0.58708450  0.58444100  1
  Hg  Hg8  1  0.50000000  0.86336800  0.75000000  1
  Hg  Hg9  1  0.50000000  0.13663200  0.25000000  1
  Hg  Hg10  1  0.50000000  0.33722900  0.75000000  1
  Hg  Hg11  1  0.50000000  0.66277100  0.25000000  1
  Hg  Hg12  1  0.00000000  0.36336800  0.75000000  1
  Hg  Hg13  1  0.00000000  0.63663200  0.25000000  1
  Hg  Hg14  1  0.00000000  0.83722900  0.75000000  1
  Hg  Hg15  1  0.00000000  0.16277100  0.25000000  1
  Sb  Sb16  1  0.82666750  0.88336650  0.40100700  1
  Sb  Sb17  1  0.17333250  0.88336650  0.09899300  1
  Sb  Sb18  1  0.17333250  0.11663350  0.59899300  1
  Sb  Sb19  1  0.82666750  0.11663350  0.90100700  1
  Sb  Sb20  1  0.32666750  0.38336650  0.40100700  1
  Sb  Sb21  1  0.67333250  0.38336650  0.09899300  1
  Sb  Sb22  1  0.67333250  0.61663350  0.59899300  1
  Sb  Sb23  1  0.32666750  0.61663350  0.90100700  1
  S  S24  1  0.60744800  0.71553700  0.39181700  1
  S  S25  1  0.52824500  0.79482300  0.89292000  1
  S  S26  1  0.52824500  0.20517700  0.39292000  1
  S  S27  1  0.47175500  0.20517700  0.10708000  1
  S  S28  1  0.60744800  0.28446300  0.89181700  1
  S  S29  1  0.39255200  0.28446300  0.60818300  1
  S  S30  1  0.39255200  0.71553700  0.10818300  1
  S  S31  1  0.23872250  0.97186350  0.23307000  1
  S  S32  1  0.76127750  0.97186350  0.26693000  1
  S  S33  1  0.76127750  0.02813650  0.76693000  1
  S  S34  1  0.23872250  0.02813650  0.73307000  1
  S  S35  1  0.47175500  0.79482300  0.60708000  1
  S  S36  1  0.10744800  0.21553700  0.39181700  1
  S  S37  1  0.02824500  0.29482300  0.89292000  1
  S  S38  1  0.02824500  0.70517700  0.39292000  1
  S  S39  1  0.97175500  0.70517700  0.10708000  1
  S  S40  1  0.10744800  0.78446300  0.89181700  1
  S  S41  1  0.89255200  0.78446300  0.60818300  1
  S  S42  1  0.89255200  0.21553700  0.10818300  1
  S  S43  1  0.73872250  0.47186350  0.23307000  1
  S  S44  1  0.26127750  0.47186350  0.26693000  1
  S  S45  1  0.26127750  0.52813650  0.76693000  1
  S  S46  1  0.73872250  0.52813650  0.73307000  1
  S  S47  1  0.97175500  0.29482300  0.60708000  1
