# generated using pymatgen
data_LiBi(PO3)4
_symmetry_space_group_name_H-M   'P 1'
_cell_length_a   10.48897800
_cell_length_b   11.84919200
_cell_length_c   17.59899500
_cell_angle_alpha   90.00000000
_cell_angle_beta   90.00000000
_cell_angle_gamma   90.00000000
_symmetry_Int_Tables_number   1
_chemical_formula_structural   LiBi(PO3)4
_chemical_formula_sum   'Li8 Bi8 P32 O96'
_cell_volume   2187.30718268
_cell_formula_units_Z   8
loop_
 _symmetry_equiv_pos_site_id
 _symmetry_equiv_pos_as_xyz
  1  'x, y, z'
loop_
 _atom_site_type_symbol
 _atom_site_label
 _atom_site_symmetry_multiplicity
 _atom_site_fract_x
 _atom_site_fract_y
 _atom_site_fract_z
 _atom_site_occupancy
  Li  Li0  1  0.85162250  0.05698250  0.14202700  1
  Li  Li1  1  0.14837750  0.94301750  0.64202700  1
  Li  Li2  1  0.14837750  0.05698250  0.35797300  1
  Li  Li3  1  0.85162250  0.94301750  0.85797300  1
  Li  Li4  1  0.35162250  0.55698250  0.14202700  1
  Li  Li5  1  0.64837750  0.44301750  0.64202700  1
  Li  Li6  1  0.64837750  0.55698250  0.35797300  1
  Li  Li7  1  0.35162250  0.44301750  0.85797300  1
  Bi  Bi8  1  0.78264900  0.80523800  0.13999800  1
  Bi  Bi9  1  0.78264900  0.19476200  0.86000200  1
  Bi  Bi10  1  0.21735100  0.80523800  0.36000200  1
  Bi  Bi11  1  0.21735100  0.19476200  0.63999800  1
  Bi  Bi12  1  0.28264900  0.30523800  0.13999800  1
  Bi  Bi13  1  0.28264900  0.69476200  0.86000200  1
  Bi  Bi14  1  0.71735100  0.30523800  0.36000200  1
  Bi  Bi15  1  0.71735100  0.69476200  0.63999800  1
  P  P16  1  0.45160650  0.76227350  0.50919100  1
  P  P17  1  0.34908300  0.00000000  0.50000000  1
  P  P18  1  0.69753600  0.98208600  0.69296300  1
  P  P19  1  0.38950950  0.64473450  0.65496300  1
  P  P20  1  0.61049050  0.35526550  0.15496300  1
  P  P21  1  0.50000000  0.14008000  0.75000000  1
  P  P22  1  0.30246400  0.98208600  0.80703700  1
  P  P23  1  0.38950950  0.35526550  0.34503700  1
  P  P24  1  0.61049050  0.64473450  0.84503700  1
  P  P25  1  0.30246400  0.01791400  0.19296300  1
  P  P26  1  0.65091700  0.00000000  0.00000000  1
  P  P27  1  0.50000000  0.85992000  0.25000000  1
  P  P28  1  0.54839350  0.23772650  0.00919100  1
  P  P29  1  0.69753600  0.01791400  0.30703700  1
  P  P30  1  0.54839350  0.76227350  0.99080900  1
  P  P31  1  0.45160650  0.23772650  0.49080900  1
  P  P32  1  0.95160650  0.26227350  0.50919100  1
  P  P33  1  0.84908300  0.50000000  0.50000000  1
  P  P34  1  0.19753600  0.48208600  0.69296300  1
  P  P35  1  0.88950950  0.14473450  0.65496300  1
  P  P36  1  0.11049050  0.85526550  0.15496300  1
  P  P37  1  0.00000000  0.64008000  0.75000000  1
  P  P38  1  0.80246400  0.48208600  0.80703700  1
  P  P39  1  0.88950950  0.85526550  0.34503700  1
  P  P40  1  0.11049050  0.14473450  0.84503700  1
  P  P41  1  0.80246400  0.51791400  0.19296300  1
  P  P42  1  0.15091700  0.50000000  0.00000000  1
  P  P43  1  0.00000000  0.35992000  0.25000000  1
  P  P44  1  0.04839350  0.73772650  0.00919100  1
  P  P45  1  0.19753600  0.51791400  0.30703700  1
  P  P46  1  0.04839350  0.26227350  0.99080900  1
  P  P47  1  0.95160650  0.73772650  0.49080900  1
  O  O48  1  0.64750900  0.70814200  0.77518600  1
  O  O49  1  0.40499300  0.20955900  0.70716700  1
  O  O50  1  0.48311400  0.58426300  0.85085700  1
  O  O51  1  0.65983450  0.12565750  0.34578800  1
  O  O52  1  0.64750900  0.29185800  0.22481400  1
  O  O53  1  0.24144900  0.01941000  0.26967500  1
  O  O54  1  0.44950350  0.10024850  0.48854000  1
  O  O55  1  0.24144900  0.98059000  0.73032500  1
  O  O56  1  0.56749650  0.05550150  0.69146300  1
  O  O57  1  0.35249100  0.70814200  0.72481400  1
  O  O58  1  0.55049650  0.89975150  0.98854000  1
  O  O59  1  0.56749650  0.94449850  0.30853700  1
  O  O60  1  0.27126500  0.98601700  0.42820400  1
  O  O61  1  0.48311400  0.41573700  0.14914300  1
  O  O62  1  0.40499300  0.79044100  0.29283300  1
  O  O63  1  0.78345050  0.94932750  0.36701500  1
  O  O64  1  0.58686950  0.27642250  0.48224700  1
  O  O65  1  0.21654950  0.05067250  0.86701500  1
  O  O66  1  0.62430800  0.72462600  0.05873700  1
  O  O67  1  0.72873500  0.98601700  0.07179600  1
  O  O68  1  0.58686950  0.72357750  0.51775300  1
  O  O69  1  0.43250350  0.05550150  0.80853700  1
  O  O70  1  0.51688600  0.41573700  0.35085700  1
  O  O71  1  0.41313050  0.72357750  0.98224700  1
  O  O72  1  0.37144650  0.73242950  0.58548000  1
  O  O73  1  0.78345050  0.05067250  0.63298500  1
  O  O74  1  0.43250350  0.94449850  0.19146300  1
  O  O75  1  0.62430800  0.27537400  0.94126300  1
  O  O76  1  0.72873500  0.01398300  0.92820400  1
  O  O77  1  0.37144650  0.26757050  0.41452000  1
  O  O78  1  0.37569200  0.27537400  0.55873700  1
  O  O79  1  0.37569200  0.72462600  0.44126300  1
  O  O80  1  0.34016550  0.87434250  0.84578800  1
  O  O81  1  0.59500700  0.20955900  0.79283300  1
  O  O82  1  0.27126500  0.01398300  0.57179600  1
  O  O83  1  0.59500700  0.79044100  0.20716700  1
  O  O84  1  0.75855100  0.01941000  0.23032500  1
  O  O85  1  0.62855350  0.26757050  0.08548000  1
  O  O86  1  0.21654950  0.94932750  0.13298500  1
  O  O87  1  0.35249100  0.29185800  0.27518600  1
  O  O88  1  0.55049650  0.10024850  0.01146000  1
  O  O89  1  0.34016550  0.12565750  0.15421200  1
  O  O90  1  0.44950350  0.89975150  0.51146000  1
  O  O91  1  0.51688600  0.58426300  0.64914300  1
  O  O92  1  0.75855100  0.98059000  0.76967500  1
  O  O93  1  0.62855350  0.73242950  0.91452000  1
  O  O94  1  0.41313050  0.27642250  0.01775300  1
  O  O95  1  0.65983450  0.87434250  0.65421200  1
  O  O96  1  0.14750900  0.20814200  0.77518600  1
  O  O97  1  0.90499300  0.70955900  0.70716700  1
  O  O98  1  0.98311400  0.08426300  0.85085700  1
  O  O99  1  0.15983450  0.62565750  0.34578800  1
  O  O100  1  0.14750900  0.79185800  0.22481400  1
  O  O101  1  0.74144900  0.51941000  0.26967500  1
  O  O102  1  0.94950350  0.60024850  0.48854000  1
  O  O103  1  0.74144900  0.48059000  0.73032500  1
  O  O104  1  0.06749650  0.55550150  0.69146300  1
  O  O105  1  0.85249100  0.20814200  0.72481400  1
  O  O106  1  0.05049650  0.39975150  0.98854000  1
  O  O107  1  0.06749650  0.44449850  0.30853700  1
  O  O108  1  0.77126500  0.48601700  0.42820400  1
  O  O109  1  0.98311400  0.91573700  0.14914300  1
  O  O110  1  0.90499300  0.29044100  0.29283300  1
  O  O111  1  0.28345050  0.44932750  0.36701500  1
  O  O112  1  0.08686950  0.77642250  0.48224700  1
  O  O113  1  0.71654950  0.55067250  0.86701500  1
  O  O114  1  0.12430800  0.22462600  0.05873700  1
  O  O115  1  0.22873500  0.48601700  0.07179600  1
  O  O116  1  0.08686950  0.22357750  0.51775300  1
  O  O117  1  0.93250350  0.55550150  0.80853700  1
  O  O118  1  0.01688600  0.91573700  0.35085700  1
  O  O119  1  0.91313050  0.22357750  0.98224700  1
  O  O120  1  0.87144650  0.23242950  0.58548000  1
  O  O121  1  0.28345050  0.55067250  0.63298500  1
  O  O122  1  0.93250350  0.44449850  0.19146300  1
  O  O123  1  0.12430800  0.77537400  0.94126300  1
  O  O124  1  0.22873500  0.51398300  0.92820400  1
  O  O125  1  0.87144650  0.76757050  0.41452000  1
  O  O126  1  0.87569200  0.77537400  0.55873700  1
  O  O127  1  0.87569200  0.22462600  0.44126300  1
  O  O128  1  0.84016550  0.37434250  0.84578800  1
  O  O129  1  0.09500700  0.70955900  0.79283300  1
  O  O130  1  0.77126500  0.51398300  0.57179600  1
  O  O131  1  0.09500700  0.29044100  0.20716700  1
  O  O132  1  0.25855100  0.51941000  0.23032500  1
  O  O133  1  0.12855350  0.76757050  0.08548000  1
  O  O134  1  0.71654950  0.44932750  0.13298500  1
  O  O135  1  0.85249100  0.79185800  0.27518600  1
  O  O136  1  0.05049650  0.60024850  0.01146000  1
  O  O137  1  0.84016550  0.62565750  0.15421200  1
  O  O138  1  0.94950350  0.39975150  0.51146000  1
  O  O139  1  0.01688600  0.08426300  0.64914300  1
  O  O140  1  0.25855100  0.48059000  0.76967500  1
  O  O141  1  0.12855350  0.23242950  0.91452000  1
  O  O142  1  0.91313050  0.77642250  0.01775300  1
  O  O143  1  0.15983450  0.37434250  0.65421200  1
