# generated using pymatgen
data_PH9C(NO)4
_symmetry_space_group_name_H-M   'P 1'
_cell_length_a   6.90477300
_cell_length_b   7.56027160
_cell_length_c   14.33597201
_cell_angle_alpha   87.00279182
_cell_angle_beta   80.67463412
_cell_angle_gamma   81.03863951
_symmetry_Int_Tables_number   1
_chemical_formula_structural   PH9C(NO)4
_chemical_formula_sum   'P4 H36 C4 N16 O16'
_cell_volume   729.18049514
_cell_formula_units_Z   4
loop_
 _symmetry_equiv_pos_site_id
 _symmetry_equiv_pos_as_xyz
  1  'x, y, z'
loop_
 _atom_site_type_symbol
 _atom_site_label
 _atom_site_symmetry_multiplicity
 _atom_site_fract_x
 _atom_site_fract_y
 _atom_site_fract_z
 _atom_site_occupancy
  P  P0  1  0.68832900  0.01630400  0.86909800  1
  P  P1  1  0.28005600  0.00011200  0.62139300  1
  P  P2  1  0.31167100  0.98369600  0.13090200  1
  P  P3  1  0.71994400  0.99988800  0.37860700  1
  H  H4  1  0.56031400  0.15590900  0.50196600  1
  H  H5  1  0.93335000  0.27467100  0.63717400  1
  H  H6  1  0.43968600  0.84409100  0.49803400  1
  H  H7  1  0.06312900  0.73110800  0.85945400  1
  H  H8  1  0.29749400  0.28218600  0.85485000  1
  H  H9  1  0.46852700  0.98988300  0.73711200  1
  H  H10  1  0.08594000  0.17925800  0.37723500  1
  H  H11  1  0.02684000  0.99788000  0.23782500  1
  H  H12  1  0.60943300  0.37891900  0.22336100  1
  H  H13  1  0.30554300  0.27711100  0.35640300  1
  H  H14  1  0.39620900  0.64239300  0.28690600  1
  H  H15  1  0.77251900  0.38237500  0.90650600  1
  H  H16  1  0.06665000  0.72532900  0.36282600  1
  H  H17  1  0.59977400  0.36429800  0.59850900  1
  H  H18  1  0.40249600  0.65485000  0.88802200  1
  H  H19  1  0.22989400  0.38214800  0.10091700  1
  H  H20  1  0.91406000  0.82074200  0.62276500  1
  H  H21  1  0.60379100  0.35760700  0.71309400  1
  H  H22  1  0.78205400  0.37152100  0.40364000  1
  H  H23  1  0.22381000  0.39367700  0.60369700  1
  H  H24  1  0.92413600  0.81109000  0.12024000  1
  H  H25  1  0.55866800  0.15608800  0.00206600  1
  H  H26  1  0.77619000  0.60632300  0.39630300  1
  H  H27  1  0.22748100  0.61762500  0.09349400  1
  H  H28  1  0.53147300  0.01011700  0.26288800  1
  H  H29  1  0.21794600  0.62847900  0.59636000  1
  H  H30  1  0.07586400  0.18891000  0.87976000  1
  H  H31  1  0.39056700  0.62108100  0.77663900  1
  H  H32  1  0.77010600  0.61785200  0.89908300  1
  H  H33  1  0.93687100  0.26889200  0.14054600  1
  H  H34  1  0.59750400  0.34515000  0.11197800  1
  H  H35  1  0.44133200  0.84391200  0.99793400  1
  H  H36  1  0.97316000  0.00212000  0.76217500  1
  H  H37  1  0.70250600  0.71781400  0.14515000  1
  H  H38  1  0.40022600  0.63570200  0.40149100  1
  H  H39  1  0.69445700  0.72288900  0.64359700  1
  C  C40  1  0.04349800  0.46266400  0.87537100  1
  C  C41  1  0.94925500  0.54556100  0.62731800  1
  C  C42  1  0.95650200  0.53733600  0.12462900  1
  C  C43  1  0.05074500  0.45443900  0.37268200  1
  N  N44  1  0.85904300  0.39478900  0.13403600  1
  N  N45  1  0.65162800  0.42236400  0.15527200  1
  N  N46  1  0.14717100  0.29761400  0.87263100  1
  N  N47  1  0.15501000  0.28984500  0.36960100  1
  N  N48  1  0.84499000  0.71015500  0.63039900  1
  N  N49  1  0.85174100  0.47941500  0.38150800  1
  N  N50  1  0.14825900  0.52058500  0.61849200  1
  N  N51  1  0.14502300  0.59807300  0.36645400  1
  N  N52  1  0.64685700  0.42523500  0.65102100  1
  N  N53  1  0.85282900  0.70238600  0.12736900  1
  N  N54  1  0.35314300  0.57476500  0.34897900  1
  N  N55  1  0.85497700  0.40192700  0.63354600  1
  N  N56  1  0.15486400  0.51026200  0.11278900  1
  N  N57  1  0.34837200  0.57763600  0.84472800  1
  N  N58  1  0.84513600  0.48973800  0.88721100  1
  N  N59  1  0.14095700  0.60521100  0.86596400  1
  O  O60  1  0.37876600  0.15521100  0.08482800  1
  O  O61  1  0.59767300  0.09303400  0.29953000  1
  O  O62  1  0.63531300  0.83479200  0.42239200  1
  O  O63  1  0.92284100  0.97973800  0.83371300  1
  O  O64  1  0.62123400  0.84478900  0.91517200  1
  O  O65  1  0.57741100  0.10194400  0.79075400  1
  O  O66  1  0.36468700  0.16520800  0.57760800  1
  O  O67  1  0.67829100  0.15925000  0.94947100  1
  O  O68  1  0.94217900  0.96847300  0.33999100  1
  O  O69  1  0.40232700  0.90696600  0.70047000  1
  O  O70  1  0.32170900  0.84075000  0.05052900  1
  O  O71  1  0.69033900  0.15256900  0.45530800  1
  O  O72  1  0.07715900  0.02026200  0.16628700  1
  O  O73  1  0.05782100  0.03152700  0.66000900  1
  O  O74  1  0.42258900  0.89805600  0.20924600  1
  O  O75  1  0.30966100  0.84743100  0.54469200  1
