# generated using pymatgen
data_SrMgH4
_symmetry_space_group_name_H-M   'P 1'
_cell_length_a   3.95386600
_cell_length_b   13.54414000
_cell_length_c   5.61371700
_cell_angle_alpha   90.00000000
_cell_angle_beta   90.00000000
_cell_angle_gamma   90.00000000
_symmetry_Int_Tables_number   1
_chemical_formula_structural   SrMgH4
_chemical_formula_sum   'Sr4 Mg4 H16'
_cell_volume   300.62417088
_cell_formula_units_Z   4
loop_
 _symmetry_equiv_pos_site_id
 _symmetry_equiv_pos_as_xyz
  1  'x, y, z'
loop_
 _atom_site_type_symbol
 _atom_site_label
 _atom_site_symmetry_multiplicity
 _atom_site_fract_x
 _atom_site_fract_y
 _atom_site_fract_z
 _atom_site_occupancy
  Sr  Sr0  1  0.00000000  0.84868700  0.24434100  1
  Sr  Sr1  1  0.50000000  0.65131300  0.74434100  1
  Sr  Sr2  1  0.50000000  0.34868700  0.24434100  1
  Sr  Sr3  1  0.00000000  0.15131300  0.74434100  1
  Mg  Mg4  1  0.00000000  0.58484200  0.29009400  1
  Mg  Mg5  1  0.50000000  0.91515800  0.79009400  1
  Mg  Mg6  1  0.50000000  0.08484200  0.29009400  1
  Mg  Mg7  1  0.00000000  0.41515800  0.79009400  1
  H  H8  1  0.00000000  0.66569100  0.01333300  1
  H  H9  1  0.50000000  0.83430900  0.51333300  1
  H  H10  1  0.00000000  0.70029600  0.49160800  1
  H  H11  1  0.50000000  0.79970400  0.99160800  1
  H  H12  1  0.00000000  0.92539400  0.82675900  1
  H  H13  1  0.50000000  0.57460600  0.32675900  1
  H  H14  1  0.50000000  0.96139500  0.13286500  1
  H  H15  1  0.00000000  0.53860500  0.63286500  1
  H  H16  1  0.50000000  0.16569100  0.01333300  1
  H  H17  1  0.00000000  0.33430900  0.51333300  1
  H  H18  1  0.50000000  0.20029600  0.49160800  1
  H  H19  1  0.00000000  0.29970400  0.99160800  1
  H  H20  1  0.50000000  0.42539400  0.82675900  1
  H  H21  1  0.00000000  0.07460600  0.32675900  1
  H  H22  1  0.00000000  0.46139500  0.13286500  1
  H  H23  1  0.50000000  0.03860500  0.63286500  1
