# generated using pymatgen
data_TaAsPCl13
_symmetry_space_group_name_H-M   'P 1'
_cell_length_a   10.41476800
_cell_length_b   16.32642000
_cell_length_c   12.08862500
_cell_angle_alpha   90.00000000
_cell_angle_beta   90.00000000
_cell_angle_gamma   90.00000000
_symmetry_Int_Tables_number   1
_chemical_formula_structural   TaAsPCl13
_chemical_formula_sum   'Ta4 As4 P4 Cl52'
_cell_volume   2055.49994841
_cell_formula_units_Z   4
loop_
 _symmetry_equiv_pos_site_id
 _symmetry_equiv_pos_as_xyz
  1  'x, y, z'
loop_
 _atom_site_type_symbol
 _atom_site_label
 _atom_site_symmetry_multiplicity
 _atom_site_fract_x
 _atom_site_fract_y
 _atom_site_fract_z
 _atom_site_occupancy
  Ta  Ta0  1  0.50000000  0.29589000  0.00247000  1
  Ta  Ta1  1  0.50000000  0.70411000  0.50247000  1
  Ta  Ta2  1  0.00000000  0.79589000  0.00247000  1
  Ta  Ta3  1  0.00000000  0.20411000  0.50247000  1
  As  As4  1  0.50000000  0.04597200  0.15386300  1
  As  As5  1  0.50000000  0.95402800  0.65386300  1
  As  As6  1  0.00000000  0.54597200  0.15386300  1
  As  As7  1  0.00000000  0.45402800  0.65386300  1
  P  P8  1  0.50000000  0.64236300  0.96667700  1
  P  P9  1  0.50000000  0.35763700  0.46667700  1
  P  P10  1  0.00000000  0.14236300  0.96667700  1
  P  P11  1  0.00000000  0.85763700  0.46667700  1
  Cl  Cl12  1  0.15365800  0.08849700  0.90783600  1
  Cl  Cl13  1  0.50000000  0.82355600  0.39116700  1
  Cl  Cl14  1  0.66286400  0.03994200  0.63350100  1
  Cl  Cl15  1  0.50000000  0.05313300  0.33746400  1
  Cl  Cl16  1  0.16099050  0.85426350  0.88936200  1
  Cl  Cl17  1  0.84634200  0.08849700  0.90783600  1
  Cl  Cl18  1  0.50000000  0.75704000  0.91827400  1
  Cl  Cl19  1  0.83900950  0.14573650  0.38936200  1
  Cl  Cl20  1  0.15365800  0.91150300  0.40783600  1
  Cl  Cl21  1  0.66112500  0.23702800  0.11849900  1
  Cl  Cl22  1  0.83900950  0.85426350  0.88936200  1
  Cl  Cl23  1  0.66112500  0.76297200  0.61849900  1
  Cl  Cl24  1  0.33713600  0.03994200  0.63350100  1
  Cl  Cl25  1  0.50000000  0.36100100  0.62808100  1
  Cl  Cl26  1  0.33713600  0.96005800  0.13350100  1
  Cl  Cl27  1  0.50000000  0.63899900  0.12808100  1
  Cl  Cl28  1  0.66286400  0.96005800  0.13350100  1
  Cl  Cl29  1  0.84634200  0.91150300  0.40783600  1
  Cl  Cl30  1  0.50000000  0.58545600  0.61730700  1
  Cl  Cl31  1  0.50000000  0.41454400  0.11730700  1
  Cl  Cl32  1  0.50000000  0.94686700  0.83746400  1
  Cl  Cl33  1  0.16099050  0.14573650  0.38936200  1
  Cl  Cl34  1  0.33887500  0.23702800  0.11849900  1
  Cl  Cl35  1  0.50000000  0.24296000  0.41827400  1
  Cl  Cl36  1  0.50000000  0.17644400  0.89116700  1
  Cl  Cl37  1  0.33887500  0.76297200  0.61849900  1
  Cl  Cl38  1  0.65365800  0.58849700  0.90783600  1
  Cl  Cl39  1  0.00000000  0.32355600  0.39116700  1
  Cl  Cl40  1  0.16286400  0.53994200  0.63350100  1
  Cl  Cl41  1  0.00000000  0.55313300  0.33746400  1
  Cl  Cl42  1  0.66099050  0.35426350  0.88936200  1
  Cl  Cl43  1  0.34634200  0.58849700  0.90783600  1
  Cl  Cl44  1  0.00000000  0.25704000  0.91827400  1
  Cl  Cl45  1  0.33900950  0.64573650  0.38936200  1
  Cl  Cl46  1  0.65365800  0.41150300  0.40783600  1
  Cl  Cl47  1  0.16112500  0.73702800  0.11849900  1
  Cl  Cl48  1  0.33900950  0.35426350  0.88936200  1
  Cl  Cl49  1  0.16112500  0.26297200  0.61849900  1
  Cl  Cl50  1  0.83713600  0.53994200  0.63350100  1
  Cl  Cl51  1  0.00000000  0.86100100  0.62808100  1
  Cl  Cl52  1  0.83713600  0.46005800  0.13350100  1
  Cl  Cl53  1  0.00000000  0.13899900  0.12808100  1
  Cl  Cl54  1  0.16286400  0.46005800  0.13350100  1
  Cl  Cl55  1  0.34634200  0.41150300  0.40783600  1
  Cl  Cl56  1  0.00000000  0.08545600  0.61730700  1
  Cl  Cl57  1  0.00000000  0.91454400  0.11730700  1
  Cl  Cl58  1  0.00000000  0.44686700  0.83746400  1
  Cl  Cl59  1  0.66099050  0.64573650  0.38936200  1
  Cl  Cl60  1  0.83887500  0.73702800  0.11849900  1
  Cl  Cl61  1  0.00000000  0.74296000  0.41827400  1
  Cl  Cl62  1  0.00000000  0.67644400  0.89116700  1
  Cl  Cl63  1  0.83887500  0.26297200  0.61849900  1
