# generated using pymatgen
data_RbCdH2I3O
_symmetry_space_group_name_H-M   'P 1'
_cell_length_a   11.09460200
_cell_length_b   10.24316200
_cell_length_c   8.98693949
_cell_angle_alpha   90.00000000
_cell_angle_beta   90.50312507
_cell_angle_gamma   90.00000000
_symmetry_Int_Tables_number   1
_chemical_formula_structural   RbCdH2I3O
_chemical_formula_sum   'Rb4 Cd4 H8 I12 O4'
_cell_volume   1021.27062800
_cell_formula_units_Z   4
loop_
 _symmetry_equiv_pos_site_id
 _symmetry_equiv_pos_as_xyz
  1  'x, y, z'
loop_
 _atom_site_type_symbol
 _atom_site_label
 _atom_site_symmetry_multiplicity
 _atom_site_fract_x
 _atom_site_fract_y
 _atom_site_fract_z
 _atom_site_occupancy
  Rb  Rb0  1  0.39764150  0.11049350  0.82601300  1
  Rb  Rb1  1  0.39764150  0.88950650  0.32601300  1
  Rb  Rb2  1  0.89764150  0.61049350  0.82601300  1
  Rb  Rb3  1  0.89764150  0.38950650  0.32601300  1
  Cd  Cd4  1  0.50031400  0.46618100  0.50005000  1
  Cd  Cd5  1  0.50031400  0.53381900  0.00005000  1
  Cd  Cd6  1  0.00031400  0.96618100  0.50005000  1
  Cd  Cd7  1  0.00031400  0.03381900  0.00005000  1
  H  H8  1  0.32103050  0.80862450  0.67802500  1
  H  H9  1  0.32103050  0.19137550  0.17802500  1
  H  H10  1  0.46094100  0.80843700  0.67919300  1
  H  H11  1  0.46094100  0.19156300  0.17919300  1
  H  H12  1  0.82103050  0.30862450  0.67802500  1
  H  H13  1  0.82103050  0.69137550  0.17802500  1
  H  H14  1  0.96094100  0.30843700  0.67919300  1
  H  H15  1  0.96094100  0.69156300  0.17919300  1
  I  I16  1  0.59088700  0.21192300  0.49455500  1
  I  I17  1  0.59088700  0.78807700  0.99455500  1
  I  I18  1  0.83914400  0.00710300  0.24868000  1
  I  I19  1  0.83914400  0.99289700  0.74868000  1
  I  I20  1  0.17353750  0.16441250  0.49424800  1
  I  I21  1  0.17353750  0.83558750  0.99424800  1
  I  I22  1  0.09088700  0.71192300  0.49455500  1
  I  I23  1  0.09088700  0.28807700  0.99455500  1
  I  I24  1  0.33914400  0.50710300  0.24868000  1
  I  I25  1  0.33914400  0.49289700  0.74868000  1
  I  I26  1  0.67353750  0.66441250  0.49424800  1
  I  I27  1  0.67353750  0.33558750  0.99424800  1
  O  O28  1  0.39160450  0.86236650  0.65173600  1
  O  O29  1  0.39160450  0.13763350  0.15173600  1
  O  O30  1  0.89160450  0.36236650  0.65173600  1
  O  O31  1  0.89160450  0.63763350  0.15173600  1
