# generated using pymatgen
data_Na4Al3Si3NO13
_symmetry_space_group_name_H-M   'P 1'
_cell_length_a   9.25470200
_cell_length_b   9.29733400
_cell_length_c   9.29859200
_cell_angle_alpha   90.00000000
_cell_angle_beta   90.02663117
_cell_angle_gamma   90.00000000
_symmetry_Int_Tables_number   1
_chemical_formula_structural   Na4Al3Si3NO13
_chemical_formula_sum   'Na8 Al6 Si6 N2 O26'
_cell_volume   800.08848068
_cell_formula_units_Z   2
loop_
 _symmetry_equiv_pos_site_id
 _symmetry_equiv_pos_as_xyz
  1  'x, y, z'
loop_
 _atom_site_type_symbol
 _atom_site_label
 _atom_site_symmetry_multiplicity
 _atom_site_fract_x
 _atom_site_fract_y
 _atom_site_fract_z
 _atom_site_occupancy
  Na  Na0  1  0.78451800  0.21941100  0.21482500  1
  Na  Na1  1  0.78451800  0.78058900  0.21482500  1
  Na  Na2  1  0.28429100  0.71933400  0.28528200  1
  Na  Na3  1  0.28429100  0.28066600  0.28528200  1
  Na  Na4  1  0.70644500  0.71001800  0.71572900  1
  Na  Na5  1  0.70644500  0.28998200  0.71572900  1
  Na  Na6  1  0.20640600  0.79016400  0.78409800  1
  Na  Na7  1  0.20640600  0.20983600  0.78409800  1
  Al  Al8  1  0.49971200  0.75008800  0.99969100  1
  Al  Al9  1  0.49971200  0.24991200  0.99969100  1
  Al  Al10  1  0.00272800  0.50000000  0.25023200  1
  Al  Al11  1  0.75023100  0.00000000  0.49831200  1
  Al  Al12  1  0.24999600  0.00000000  0.50217800  1
  Al  Al13  1  0.99801800  0.50000000  0.74978400  1
  Si  Si14  1  0.25001300  0.50000000  0.00405700  1
  Si  Si15  1  0.75021600  0.50000000  0.99668300  1
  Si  Si16  1  0.50420500  0.00000000  0.24979700  1
  Si  Si17  1  0.99967900  0.74975400  0.49972500  1
  Si  Si18  1  0.99967900  0.25024600  0.49972500  1
  Si  Si19  1  0.49632500  0.00000000  0.75011100  1
  N  N20  1  0.48567600  0.50000000  0.49793000  1
  N  N21  1  0.98579100  0.00000000  0.00209200  1
  O  O22  1  0.34131200  0.64963900  0.00277500  1
  O  O23  1  0.65827500  0.64927300  0.00127300  1
  O  O24  1  0.34131200  0.35036100  0.00277500  1
  O  O25  1  0.65827500  0.35072700  0.00127300  1
  O  O26  1  0.50052500  0.85084000  0.15799500  1
  O  O27  1  0.50052500  0.14916000  0.15799500  1
  O  O28  1  0.16840400  0.50000000  0.16081300  1
  O  O29  1  0.85231000  0.50000000  0.13916400  1
  O  O30  1  0.00149800  0.65790000  0.35004400  1
  O  O31  1  0.00149800  0.34210000  0.35004400  1
  O  O32  1  0.36185800  0.00000000  0.35186300  1
  O  O33  1  0.66052300  0.00000000  0.33200400  1
  O  O34  1  0.14946100  0.84179500  0.49976000  1
  O  O35  1  0.84995800  0.84140500  0.49616700  1
  O  O36  1  0.14946100  0.15820500  0.49976000  1
  O  O37  1  0.84995800  0.15859500  0.49616700  1
  O  O38  1  0.53256000  0.50000000  0.62730600  1
  O  O39  1  0.34110900  0.00000000  0.66633500  1
  O  O40  1  0.63756000  0.00000000  0.64707100  1
  O  O41  1  0.99831900  0.65687000  0.64764800  1
  O  O42  1  0.99831900  0.34313000  0.64764800  1
  O  O43  1  0.14688000  0.50000000  0.86345700  1
  O  O44  1  0.83373100  0.50000000  0.84231900  1
  O  O45  1  0.49935400  0.85168000  0.84292800  1
  O  O46  1  0.49935400  0.14832000  0.84292800  1
  O  O47  1  0.03235600  0.00000000  0.87261200  1
