# generated using pymatgen
data_Bi(Mo2Cl5)3
_symmetry_space_group_name_H-M   'P 1'
_cell_length_a   13.04045600
_cell_length_b   13.37811000
_cell_length_c   26.49434626
_cell_angle_alpha   90.00000000
_cell_angle_beta   91.71654289
_cell_angle_gamma   90.00000000
_symmetry_Int_Tables_number   1
_chemical_formula_structural   Bi(Mo2Cl5)3
_chemical_formula_sum   'Bi8 Mo48 Cl120'
_cell_volume   4620.04085959
_cell_formula_units_Z   8
loop_
 _symmetry_equiv_pos_site_id
 _symmetry_equiv_pos_as_xyz
  1  'x, y, z'
loop_
 _atom_site_type_symbol
 _atom_site_label
 _atom_site_symmetry_multiplicity
 _atom_site_fract_x
 _atom_site_fract_y
 _atom_site_fract_z
 _atom_site_occupancy
  Bi  Bi0  1  0.71311200  0.04436300  0.60832900  1
  Bi  Bi1  1  0.71311200  0.95563700  0.10832900  1
  Bi  Bi2  1  0.28688800  0.95563700  0.39167100  1
  Bi  Bi3  1  0.28688800  0.04436300  0.89167100  1
  Bi  Bi4  1  0.21311200  0.54436300  0.60832900  1
  Bi  Bi5  1  0.21311200  0.45563700  0.10832900  1
  Bi  Bi6  1  0.78688800  0.45563700  0.39167100  1
  Bi  Bi7  1  0.78688800  0.54436300  0.89167100  1
  Mo  Mo8  1  0.73435600  0.06241700  0.93607900  1
  Mo  Mo9  1  0.20529400  0.02305600  0.69890600  1
  Mo  Mo10  1  0.37066450  0.92890750  0.14987100  1
  Mo  Mo11  1  0.73144800  0.90767300  0.87417400  1
  Mo  Mo12  1  0.90050350  0.98597550  0.38788800  1
  Mo  Mo13  1  0.79961050  0.82256150  0.36292900  1
  Mo  Mo14  1  0.79470600  0.97694400  0.30109400  1
  Mo  Mo15  1  0.20038950  0.82256150  0.13707100  1
  Mo  Mo16  1  0.73144800  0.09232700  0.37417400  1
  Mo  Mo17  1  0.26564400  0.93758300  0.06392100  1
  Mo  Mo18  1  0.90050350  0.01402450  0.88788800  1
  Mo  Mo19  1  0.20529400  0.97694400  0.19890600  1
  Mo  Mo20  1  0.62933550  0.07109250  0.85012900  1
  Mo  Mo21  1  0.73435600  0.93758300  0.43607900  1
  Mo  Mo22  1  0.20038950  0.17743850  0.63707100  1
  Mo  Mo23  1  0.37066450  0.07109250  0.64987100  1
  Mo  Mo24  1  0.62933550  0.92890750  0.35012900  1
  Mo  Mo25  1  0.79961050  0.17743850  0.86292900  1
  Mo  Mo26  1  0.26564400  0.06241700  0.56392100  1
  Mo  Mo27  1  0.09949650  0.01402450  0.61211200  1
  Mo  Mo28  1  0.26855200  0.90767300  0.62582600  1
  Mo  Mo29  1  0.79470600  0.02305600  0.80109400  1
  Mo  Mo30  1  0.26855200  0.09232700  0.12582600  1
  Mo  Mo31  1  0.09949650  0.98597550  0.11211200  1
  Mo  Mo32  1  0.23435600  0.56241700  0.93607900  1
  Mo  Mo33  1  0.70529400  0.52305600  0.69890600  1
  Mo  Mo34  1  0.87066450  0.42890750  0.14987100  1
  Mo  Mo35  1  0.23144800  0.40767300  0.87417400  1
  Mo  Mo36  1  0.40050350  0.48597550  0.38788800  1
  Mo  Mo37  1  0.29961050  0.32256150  0.36292900  1
  Mo  Mo38  1  0.29470600  0.47694400  0.30109400  1
  Mo  Mo39  1  0.70038950  0.32256150  0.13707100  1
  Mo  Mo40  1  0.23144800  0.59232700  0.37417400  1
  Mo  Mo41  1  0.76564400  0.43758300  0.06392100  1
  Mo  Mo42  1  0.40050350  0.51402450  0.88788800  1
  Mo  Mo43  1  0.70529400  0.47694400  0.19890600  1
  Mo  Mo44  1  0.12933550  0.57109250  0.85012900  1
  Mo  Mo45  1  0.23435600  0.43758300  0.43607900  1
  Mo  Mo46  1  0.70038950  0.67743850  0.63707100  1
  Mo  Mo47  1  0.87066450  0.57109250  0.64987100  1
  Mo  Mo48  1  0.12933550  0.42890750  0.35012900  1
  Mo  Mo49  1  0.29961050  0.67743850  0.86292900  1
  Mo  Mo50  1  0.76564400  0.56241700  0.56392100  1
  Mo  Mo51  1  0.59949650  0.51402450  0.61211200  1
  Mo  Mo52  1  0.76855200  0.40767300  0.62582600  1
  Mo  Mo53  1  0.29470600  0.52305600  0.80109400  1
  Mo  Mo54  1  0.76855200  0.59232700  0.12582600  1
  Mo  Mo55  1  0.59949650  0.48597550  0.11211200  1
  Cl  Cl56  1  0.54758750  0.62233050  0.68282400  1
  Cl  Cl57  1  0.92041900  0.02148900  0.08063000  1
  Cl  Cl58  1  0.64067500  0.21596900  0.90831600  1
  Cl  Cl59  1  0.36225500  0.14861300  0.35062900  1
  Cl  Cl60  1  0.39590550  0.33964750  0.44508100  1
  Cl  Cl61  1  0.39078500  0.62941900  0.32839500  1
  Cl  Cl62  1  0.36225500  0.85138700  0.85062900  1
  Cl  Cl63  1  0.57813900  0.03925500  0.42020700  1
  Cl  Cl64  1  0.69738500  0.82033900  0.28244600  1
  Cl  Cl65  1  0.83280750  0.00532150  0.21229300  1
  Cl  Cl66  1  0.16719250  0.00532150  0.28770700  1
  Cl  Cl67  1  0.32282300  0.72609000  0.62325800  1
  Cl  Cl68  1  0.60921500  0.62941900  0.17160500  1
  Cl  Cl69  1  0.55658000  0.10451800  0.67470400  1
  Cl  Cl70  1  0.63774500  0.85138700  0.64937100  1
  Cl  Cl71  1  0.16941850  0.09296850  0.04433500  1
  Cl  Cl72  1  0.35932500  0.21596900  0.59168400  1
  Cl  Cl73  1  0.67717700  0.27391000  0.37674200  1
  Cl  Cl74  1  0.30261500  0.17966100  0.71755400  1
  Cl  Cl75  1  0.38692800  0.85226200  0.45564700  1
  Cl  Cl76  1  0.42186100  0.03925500  0.07979300  1
  Cl  Cl77  1  0.32282300  0.27391000  0.12325800  1
  Cl  Cl78  1  0.60409450  0.33964750  0.05491900  1
  Cl  Cl79  1  0.63774500  0.14861300  0.14937100  1
  Cl  Cl80  1  0.31146650  0.09641650  0.47483300  1
  Cl  Cl81  1  0.60921500  0.37058100  0.67160500  1
  Cl  Cl82  1  0.64067500  0.78403100  0.40831600  1
  Cl  Cl83  1  0.35932500  0.78403100  0.09168400  1
  Cl  Cl84  1  0.36669400  0.92464700  0.70745100  1
  Cl  Cl85  1  0.30261500  0.82033900  0.21755400  1
  Cl  Cl86  1  0.63330600  0.07535300  0.29254900  1
  Cl  Cl87  1  0.39590550  0.66035250  0.94508100  1
  Cl  Cl88  1  0.16941850  0.90703150  0.54433500  1
  Cl  Cl89  1  0.54758750  0.37766950  0.18282400  1
  Cl  Cl90  1  0.55658000  0.89548200  0.17470400  1
  Cl  Cl91  1  0.68853350  0.90358350  0.52516700  1
  Cl  Cl92  1  0.44342000  0.89548200  0.32529600  1
  Cl  Cl93  1  0.31146650  0.90358350  0.97483300  1
  Cl  Cl94  1  0.45241250  0.37766950  0.31717600  1
  Cl  Cl95  1  0.83280750  0.99467850  0.71229300  1
  Cl  Cl96  1  0.42186100  0.96074500  0.57979300  1
  Cl  Cl97  1  0.63330600  0.92464700  0.79254900  1
  Cl  Cl98  1  0.61307200  0.14773800  0.54435300  1
  Cl  Cl99  1  0.07958100  0.02148900  0.41937000  1
  Cl  Cl100  1  0.16719250  0.99467850  0.78770700  1
  Cl  Cl101  1  0.44342000  0.10451800  0.82529600  1
  Cl  Cl102  1  0.68853350  0.09641650  0.02516700  1
  Cl  Cl103  1  0.60409450  0.66035250  0.55491900  1
  Cl  Cl104  1  0.92041900  0.97851100  0.58063000  1
  Cl  Cl105  1  0.07958100  0.97851100  0.91937000  1
  Cl  Cl106  1  0.38692800  0.14773800  0.95564700  1
  Cl  Cl107  1  0.39078500  0.37058100  0.82839500  1
  Cl  Cl108  1  0.67717700  0.72609000  0.87674200  1
  Cl  Cl109  1  0.45241250  0.62233050  0.81717600  1
  Cl  Cl110  1  0.57813900  0.96074500  0.92020700  1
  Cl  Cl111  1  0.36669400  0.07535300  0.20745100  1
  Cl  Cl112  1  0.61307200  0.85226200  0.04435300  1
  Cl  Cl113  1  0.83058150  0.09296850  0.45566500  1
  Cl  Cl114  1  0.69738500  0.17966100  0.78244600  1
  Cl  Cl115  1  0.83058150  0.90703150  0.95566500  1
  Cl  Cl116  1  0.04758750  0.12233050  0.68282400  1
  Cl  Cl117  1  0.42041900  0.52148900  0.08063000  1
  Cl  Cl118  1  0.14067500  0.71596900  0.90831600  1
  Cl  Cl119  1  0.86225500  0.64861300  0.35062900  1
  Cl  Cl120  1  0.89590550  0.83964750  0.44508100  1
  Cl  Cl121  1  0.89078500  0.12941900  0.32839500  1
  Cl  Cl122  1  0.86225500  0.35138700  0.85062900  1
  Cl  Cl123  1  0.07813900  0.53925500  0.42020700  1
  Cl  Cl124  1  0.19738500  0.32033900  0.28244600  1
  Cl  Cl125  1  0.33280750  0.50532150  0.21229300  1
  Cl  Cl126  1  0.66719250  0.50532150  0.28770700  1
  Cl  Cl127  1  0.82282300  0.22609000  0.62325800  1
  Cl  Cl128  1  0.10921500  0.12941900  0.17160500  1
  Cl  Cl129  1  0.05658000  0.60451800  0.67470400  1
  Cl  Cl130  1  0.13774500  0.35138700  0.64937100  1
  Cl  Cl131  1  0.66941850  0.59296850  0.04433500  1
  Cl  Cl132  1  0.85932500  0.71596900  0.59168400  1
  Cl  Cl133  1  0.17717700  0.77391000  0.37674200  1
  Cl  Cl134  1  0.80261500  0.67966100  0.71755400  1
  Cl  Cl135  1  0.88692800  0.35226200  0.45564700  1
  Cl  Cl136  1  0.92186100  0.53925500  0.07979300  1
  Cl  Cl137  1  0.82282300  0.77391000  0.12325800  1
  Cl  Cl138  1  0.10409450  0.83964750  0.05491900  1
  Cl  Cl139  1  0.13774500  0.64861300  0.14937100  1
  Cl  Cl140  1  0.81146650  0.59641650  0.47483300  1
  Cl  Cl141  1  0.10921500  0.87058100  0.67160500  1
  Cl  Cl142  1  0.14067500  0.28403100  0.40831600  1
  Cl  Cl143  1  0.85932500  0.28403100  0.09168400  1
  Cl  Cl144  1  0.86669400  0.42464700  0.70745100  1
  Cl  Cl145  1  0.80261500  0.32033900  0.21755400  1
  Cl  Cl146  1  0.13330600  0.57535300  0.29254900  1
  Cl  Cl147  1  0.89590550  0.16035250  0.94508100  1
  Cl  Cl148  1  0.66941850  0.40703150  0.54433500  1
  Cl  Cl149  1  0.04758750  0.87766950  0.18282400  1
  Cl  Cl150  1  0.05658000  0.39548200  0.17470400  1
  Cl  Cl151  1  0.18853350  0.40358350  0.52516700  1
  Cl  Cl152  1  0.94342000  0.39548200  0.32529600  1
  Cl  Cl153  1  0.81146650  0.40358350  0.97483300  1
  Cl  Cl154  1  0.95241250  0.87766950  0.31717600  1
  Cl  Cl155  1  0.33280750  0.49467850  0.71229300  1
  Cl  Cl156  1  0.92186100  0.46074500  0.57979300  1
  Cl  Cl157  1  0.13330600  0.42464700  0.79254900  1
  Cl  Cl158  1  0.11307200  0.64773800  0.54435300  1
  Cl  Cl159  1  0.57958100  0.52148900  0.41937000  1
  Cl  Cl160  1  0.66719250  0.49467850  0.78770700  1
  Cl  Cl161  1  0.94342000  0.60451800  0.82529600  1
  Cl  Cl162  1  0.18853350  0.59641650  0.02516700  1
  Cl  Cl163  1  0.10409450  0.16035250  0.55491900  1
  Cl  Cl164  1  0.42041900  0.47851100  0.58063000  1
  Cl  Cl165  1  0.57958100  0.47851100  0.91937000  1
  Cl  Cl166  1  0.88692800  0.64773800  0.95564700  1
  Cl  Cl167  1  0.89078500  0.87058100  0.82839500  1
  Cl  Cl168  1  0.17717700  0.22609000  0.87674200  1
  Cl  Cl169  1  0.95241250  0.12233050  0.81717600  1
  Cl  Cl170  1  0.07813900  0.46074500  0.92020700  1
  Cl  Cl171  1  0.86669400  0.57535300  0.20745100  1
  Cl  Cl172  1  0.11307200  0.35226200  0.04435300  1
  Cl  Cl173  1  0.33058150  0.59296850  0.45566500  1
  Cl  Cl174  1  0.19738500  0.67966100  0.78244600  1
  Cl  Cl175  1  0.33058150  0.40703150  0.95566500  1
