# generated using pymatgen
data_Cs5SiP3
_symmetry_space_group_name_H-M   'P 1'
_cell_length_a   6.06390400
_cell_length_b   14.33632200
_cell_length_c   15.72158900
_cell_angle_alpha   90.00000000
_cell_angle_beta   90.00000000
_cell_angle_gamma   90.00000000
_symmetry_Int_Tables_number   1
_chemical_formula_structural   Cs5SiP3
_chemical_formula_sum   'Cs20 Si4 P12'
_cell_volume   1366.74188090
_cell_formula_units_Z   4
loop_
 _symmetry_equiv_pos_site_id
 _symmetry_equiv_pos_as_xyz
  1  'x, y, z'
loop_
 _atom_site_type_symbol
 _atom_site_label
 _atom_site_symmetry_multiplicity
 _atom_site_fract_x
 _atom_site_fract_y
 _atom_site_fract_z
 _atom_site_occupancy
  Cs  Cs0  1  0.25000000  0.06227300  0.04875300  1
  Cs  Cs1  1  0.75000000  0.95273800  0.65158200  1
  Cs  Cs2  1  0.75000000  0.45273800  0.84841800  1
  Cs  Cs3  1  0.25000000  0.56227300  0.45124700  1
  Cs  Cs4  1  0.25000000  0.77587600  0.29483500  1
  Cs  Cs5  1  0.25000000  0.35390300  0.94973600  1
  Cs  Cs6  1  0.75000000  0.64609700  0.05026400  1
  Cs  Cs7  1  0.25000000  0.27587600  0.20516500  1
  Cs  Cs8  1  0.25000000  0.11717100  0.81203300  1
  Cs  Cs9  1  0.75000000  0.14609700  0.44973600  1
  Cs  Cs10  1  0.25000000  0.54726200  0.15158200  1
  Cs  Cs11  1  0.25000000  0.04726200  0.34841800  1
  Cs  Cs12  1  0.75000000  0.22412400  0.70516500  1
  Cs  Cs13  1  0.75000000  0.38282900  0.31203300  1
  Cs  Cs14  1  0.75000000  0.43772700  0.54875300  1
  Cs  Cs15  1  0.25000000  0.61717100  0.68796700  1
  Cs  Cs16  1  0.25000000  0.85390300  0.55026400  1
  Cs  Cs17  1  0.75000000  0.72412400  0.79483500  1
  Cs  Cs18  1  0.75000000  0.93772700  0.95124700  1
  Cs  Cs19  1  0.75000000  0.88282900  0.18796700  1
  Si  Si20  1  0.25000000  0.76054800  0.93575500  1
  Si  Si21  1  0.75000000  0.23945200  0.06424500  1
  Si  Si22  1  0.75000000  0.73945200  0.43575500  1
  Si  Si23  1  0.25000000  0.26054800  0.56424500  1
  P  P24  1  0.25000000  0.86223000  0.82903300  1
  P  P25  1  0.25000000  0.80659700  0.07029900  1
  P  P26  1  0.25000000  0.36223000  0.67096700  1
  P  P27  1  0.75000000  0.19340300  0.92970100  1
  P  P28  1  0.75000000  0.89215700  0.41409900  1
  P  P29  1  0.75000000  0.63777000  0.32903300  1
  P  P30  1  0.75000000  0.39215700  0.08590100  1
  P  P31  1  0.25000000  0.10784300  0.58590100  1
  P  P32  1  0.75000000  0.13777000  0.17096700  1
  P  P33  1  0.25000000  0.60784300  0.91409900  1
  P  P34  1  0.25000000  0.30659700  0.42970100  1
  P  P35  1  0.75000000  0.69340300  0.57029900  1
