# generated using pymatgen
data_V2Ni(PO5)2
_symmetry_space_group_name_H-M   'P 1'
_cell_length_a   7.35972519
_cell_length_b   7.40567900
_cell_length_c   7.38267701
_cell_angle_alpha   90.00000000
_cell_angle_beta   119.62271769
_cell_angle_gamma   90.00000000
_symmetry_Int_Tables_number   1
_chemical_formula_structural   V2Ni(PO5)2
_chemical_formula_sum   'V4 Ni2 P4 O20'
_cell_volume   349.79173033
_cell_formula_units_Z   2
loop_
 _symmetry_equiv_pos_site_id
 _symmetry_equiv_pos_as_xyz
  1  'x, y, z'
loop_
 _atom_site_type_symbol
 _atom_site_label
 _atom_site_symmetry_multiplicity
 _atom_site_fract_x
 _atom_site_fract_y
 _atom_site_fract_z
 _atom_site_occupancy
  V  V0  1  0.26049750  0.22505800  0.46435650  1
  V  V1  1  0.26049750  0.27494200  0.96435650  1
  V  V2  1  0.73950250  0.72505800  0.03564350  1
  V  V3  1  0.73950250  0.77494200  0.53564350  1
  Ni  Ni4  1  0.00000000  0.00000000  0.00000000  1
  Ni  Ni5  1  0.00000000  0.50000000  0.50000000  1
  P  P6  1  0.74861150  0.37707100  0.75011450  1
  P  P7  1  0.74861150  0.12292900  0.25011450  1
  P  P8  1  0.25138850  0.87707100  0.74988550  1
  P  P9  1  0.25138850  0.62292900  0.24988550  1
  O  O10  1  0.05745450  0.75040800  0.64543950  1
  O  O11  1  0.94254550  0.25040800  0.85456050  1
  O  O12  1  0.94254550  0.24959200  0.35456050  1
  O  O13  1  0.05745450  0.74959200  0.14543950  1
  O  O14  1  0.22072250  0.00270900  0.90385050  1
  O  O15  1  0.22072250  0.49729100  0.40385050  1
  O  O16  1  0.77927750  0.50270900  0.59614950  1
  O  O17  1  0.77927750  0.99729100  0.09614950  1
  O  O18  1  0.27068150  0.50731100  0.08883050  1
  O  O19  1  0.72931850  0.00731100  0.41116950  1
  O  O20  1  0.72931850  0.49268900  0.91116950  1
  O  O21  1  0.27068150  0.99268900  0.58883050  1
  O  O22  1  0.55856250  0.24656300  0.13446650  1
  O  O23  1  0.55856250  0.25343700  0.63446650  1
  O  O24  1  0.44143750  0.75343700  0.86553350  1
  O  O25  1  0.44143750  0.74656300  0.36553350  1
  O  O26  1  0.76975650  0.66167200  0.27290450  1
  O  O27  1  0.23024350  0.33832800  0.72709550  1
  O  O28  1  0.76975650  0.83832800  0.77290450  1
  O  O29  1  0.23024350  0.16167200  0.22709550  1
