# generated using pymatgen
data_NbBi7O13
_symmetry_space_group_name_H-M   'P 1'
_cell_length_a   3.92753000
_cell_length_b   3.96808893
_cell_length_c   22.63866642
_cell_angle_alpha   90.18365843
_cell_angle_beta   91.15872914
_cell_angle_gamma   91.05677372
_symmetry_Int_Tables_number   1
_chemical_formula_structural   NbBi7O13
_chemical_formula_sum   'Nb1 Bi7 O13'
_cell_volume   352.68441747
_cell_formula_units_Z   1
loop_
 _symmetry_equiv_pos_site_id
 _symmetry_equiv_pos_as_xyz
  1  'x, y, z'
loop_
 _atom_site_type_symbol
 _atom_site_label
 _atom_site_symmetry_multiplicity
 _atom_site_fract_x
 _atom_site_fract_y
 _atom_site_fract_z
 _atom_site_occupancy
  Nb  Nb0  1  0.50822900  0.43508000  0.87433200  1
  Bi  Bi1  1  0.83541900  0.13368500  0.99594400  1
  Bi  Bi2  1  0.50486300  0.52355400  0.14297100  1
  Bi  Bi3  1  0.97619600  0.03033600  0.25738900  1
  Bi  Bi4  1  0.50380500  0.59535500  0.39198200  1
  Bi  Bi5  1  0.97862400  0.04242300  0.50639800  1
  Bi  Bi6  1  0.55780600  0.51081900  0.64386300  1
  Bi  Bi7  1  0.04359700  0.98018600  0.75778200  1
  O  O8  1  0.73407500  0.02523100  0.16488900  1
  O  O9  1  0.83391700  0.54523800  0.06977200  1
  O  O10  1  0.72153700  0.52446600  0.24165400  1
  O  O11  1  0.73602200  0.04326300  0.34084000  1
  O  O12  1  0.96031000  0.58460500  0.44682500  1
  O  O13  1  0.46577900  0.04596100  0.45583300  1
  O  O14  1  0.00978300  0.68504200  0.58455900  1
  O  O15  1  0.03014000  0.47685600  0.70615500  1
  O  O16  1  0.54424200  0.96821200  0.69943200  1
  O  O17  1  0.56632200  0.99548800  0.83755500  1
  O  O18  1  0.05790600  0.48901100  0.83931100  1
  O  O19  1  0.77191000  0.60790100  0.94207200  1
  O  O20  1  0.32481500  0.15999300  0.94261500  1
