# generated using pymatgen
data_P2WO8
_symmetry_space_group_name_H-M   'P 1'
_cell_length_a   16.19267600
_cell_length_b   5.24559200
_cell_length_c   6.99866820
_cell_angle_alpha   90.00000000
_cell_angle_beta   101.19914226
_cell_angle_gamma   90.00000000
_symmetry_Int_Tables_number   1
_chemical_formula_structural   P2WO8
_chemical_formula_sum   'P8 W4 O32'
_cell_volume   583.14825468
_cell_formula_units_Z   4
loop_
 _symmetry_equiv_pos_site_id
 _symmetry_equiv_pos_as_xyz
  1  'x, y, z'
loop_
 _atom_site_type_symbol
 _atom_site_label
 _atom_site_symmetry_multiplicity
 _atom_site_fract_x
 _atom_site_fract_y
 _atom_site_fract_z
 _atom_site_occupancy
  P  P0  1  0.83775800  0.50000000  0.38372000  1
  P  P1  1  0.83609000  0.50000000  0.95381000  1
  P  P2  1  0.66224200  0.00000000  0.61628000  1
  P  P3  1  0.66391000  0.00000000  0.04619000  1
  P  P4  1  0.33775800  0.00000000  0.38372000  1
  P  P5  1  0.33609000  0.00000000  0.95381000  1
  P  P6  1  0.16224200  0.50000000  0.61628000  1
  P  P7  1  0.16391000  0.50000000  0.04619000  1
  W  W8  1  0.60665300  0.50000000  0.29957600  1
  W  W9  1  0.89334700  0.00000000  0.70042400  1
  W  W10  1  0.10665300  0.00000000  0.29957600  1
  W  W11  1  0.39334700  0.50000000  0.70042400  1
  O  O12  1  0.88490250  0.26592550  0.89031400  1
  O  O13  1  0.61509750  0.76592550  0.10968600  1
  O  O14  1  0.62894000  0.00000000  0.81415200  1
  O  O15  1  0.88490250  0.73407450  0.89031400  1
  O  O16  1  0.87996000  0.26427500  0.49381700  1
  O  O17  1  0.62004000  0.76427500  0.50618300  1
  O  O18  1  0.87106000  0.50000000  0.18584800  1
  O  O19  1  0.61509750  0.23407450  0.10968600  1
  O  O20  1  0.74441100  0.50000000  0.88751600  1
  O  O21  1  0.99793400  0.00000000  0.25837900  1
  O  O22  1  0.75631500  0.00000000  0.64135700  1
  O  O23  1  0.74368500  0.50000000  0.35864300  1
  O  O24  1  0.87996000  0.73572500  0.49381700  1
  O  O25  1  0.75558900  0.00000000  0.11248400  1
  O  O26  1  0.62004000  0.23572500  0.50618300  1
  O  O27  1  0.50206600  0.50000000  0.74162100  1
  O  O28  1  0.38490250  0.76592550  0.89031400  1
  O  O29  1  0.11509750  0.26592550  0.10968600  1
  O  O30  1  0.12894000  0.50000000  0.81415200  1
  O  O31  1  0.38490250  0.23407450  0.89031400  1
  O  O32  1  0.37996000  0.76427500  0.49381700  1
  O  O33  1  0.12004000  0.26427500  0.50618300  1
  O  O34  1  0.37106000  0.00000000  0.18584800  1
  O  O35  1  0.11509750  0.73407450  0.10968600  1
  O  O36  1  0.24441100  0.00000000  0.88751600  1
  O  O37  1  0.49793400  0.50000000  0.25837900  1
  O  O38  1  0.25631500  0.50000000  0.64135700  1
  O  O39  1  0.24368500  0.00000000  0.35864300  1
  O  O40  1  0.37996000  0.23572500  0.49381700  1
  O  O41  1  0.25558900  0.50000000  0.11248400  1
  O  O42  1  0.12004000  0.73572500  0.50618300  1
  O  O43  1  0.00206600  0.00000000  0.74162100  1
