# generated using pymatgen
data_CoH2SO5
_symmetry_space_group_name_H-M   'P 1'
_cell_length_a   6.88755197
_cell_length_b   7.81373400
_cell_length_c   7.59937299
_cell_angle_alpha   90.00000000
_cell_angle_beta   115.89677594
_cell_angle_gamma   90.00000000
_symmetry_Int_Tables_number   1
_chemical_formula_structural   CoH2SO5
_chemical_formula_sum   'Co4 H8 S4 O20'
_cell_volume   367.91051616
_cell_formula_units_Z   4
loop_
 _symmetry_equiv_pos_site_id
 _symmetry_equiv_pos_as_xyz
  1  'x, y, z'
loop_
 _atom_site_type_symbol
 _atom_site_label
 _atom_site_symmetry_multiplicity
 _atom_site_fract_x
 _atom_site_fract_y
 _atom_site_fract_z
 _atom_site_occupancy
  Co  Co0  1  0.75000000  0.25000000  0.50000000  1
  Co  Co1  1  0.25000000  0.25000000  0.00000000  1
  Co  Co2  1  0.25000000  0.75000000  0.50000000  1
  Co  Co3  1  0.75000000  0.75000000  0.00000000  1
  H  H4  1  0.08867350  0.54173300  0.20595650  1
  H  H5  1  0.41132650  0.04173300  0.29404350  1
  H  H6  1  0.41132650  0.95826700  0.79404350  1
  H  H7  1  0.08867350  0.45826700  0.70595650  1
  H  H8  1  0.58867350  0.04173300  0.20595650  1
  H  H9  1  0.91132650  0.54173300  0.29404350  1
  H  H10  1  0.91132650  0.45826700  0.79404350  1
  H  H11  1  0.58867350  0.95826700  0.70595650  1
  S  S12  1  0.00000000  0.09053300  0.25000000  1
  S  S13  1  0.50000000  0.40946700  0.75000000  1
  S  S14  1  0.50000000  0.59053300  0.25000000  1
  S  S15  1  0.00000000  0.90946700  0.75000000  1
  O  O16  1  0.50000000  0.11596000  0.25000000  1
  O  O17  1  0.00000000  0.38404000  0.75000000  1
  O  O18  1  0.02129850  0.19959800  0.10027850  1
  O  O19  1  0.97870150  0.19959800  0.39972150  1
  O  O20  1  0.47870150  0.30040200  0.89972150  1
  O  O21  1  0.52129850  0.30040200  0.60027850  1
  O  O22  1  0.19732550  0.97929950  0.34322600  1
  O  O23  1  0.30267450  0.47929950  0.15677400  1
  O  O24  1  0.30267450  0.52070050  0.65677400  1
  O  O25  1  0.19732550  0.02070050  0.84322600  1
  O  O26  1  0.00000000  0.61596000  0.25000000  1
  O  O27  1  0.50000000  0.88404000  0.75000000  1
  O  O28  1  0.52129850  0.69959800  0.10027850  1
  O  O29  1  0.47870150  0.69959800  0.39972150  1
  O  O30  1  0.97870150  0.80040200  0.89972150  1
  O  O31  1  0.02129850  0.80040200  0.60027850  1
  O  O32  1  0.69732550  0.47929950  0.34322600  1
  O  O33  1  0.80267450  0.97929950  0.15677400  1
  O  O34  1  0.80267450  0.02070050  0.65677400  1
  O  O35  1  0.69732550  0.52070050  0.84322600  1
