# generated using pymatgen
data_UTa2O7
_symmetry_space_group_name_H-M   'P 1'
_cell_length_a   7.37294800
_cell_length_b   7.48781000
_cell_length_c   10.55055200
_cell_angle_alpha   90.00000000
_cell_angle_beta   90.00000000
_cell_angle_gamma   90.00000000
_symmetry_Int_Tables_number   1
_chemical_formula_structural   UTa2O7
_chemical_formula_sum   'U4 Ta8 O28'
_cell_volume   582.46679060
_cell_formula_units_Z   4
loop_
 _symmetry_equiv_pos_site_id
 _symmetry_equiv_pos_as_xyz
  1  'x, y, z'
loop_
 _atom_site_type_symbol
 _atom_site_label
 _atom_site_symmetry_multiplicity
 _atom_site_fract_x
 _atom_site_fract_y
 _atom_site_fract_z
 _atom_site_occupancy
  U  U0  1  0.50000000  0.00000000  0.00000000  1
  U  U1  1  0.50000000  0.50000000  0.00000000  1
  U  U2  1  0.00000000  0.50000000  0.50000000  1
  U  U3  1  0.00000000  0.00000000  0.50000000  1
  Ta  Ta4  1  0.00000000  0.00000000  0.00000000  1
  Ta  Ta5  1  0.00000000  0.50000000  0.00000000  1
  Ta  Ta6  1  0.75000000  0.25000000  0.25000000  1
  Ta  Ta7  1  0.25000000  0.25000000  0.25000000  1
  Ta  Ta8  1  0.50000000  0.50000000  0.50000000  1
  Ta  Ta9  1  0.50000000  0.00000000  0.50000000  1
  Ta  Ta10  1  0.25000000  0.75000000  0.75000000  1
  Ta  Ta11  1  0.75000000  0.75000000  0.75000000  1
  O  O12  1  0.00000000  0.75000000  0.05512800  1
  O  O13  1  0.20356950  0.93666550  0.88042950  1
  O  O14  1  0.70356950  0.06333450  0.38042950  1
  O  O15  1  0.79643050  0.93666550  0.88042950  1
  O  O16  1  0.50000000  0.25000000  0.17867300  1
  O  O17  1  0.79643050  0.06333450  0.11957050  1
  O  O18  1  0.00000000  0.25000000  0.94487200  1
  O  O19  1  0.29643050  0.06333450  0.38042950  1
  O  O20  1  0.20356950  0.06333450  0.11957050  1
  O  O21  1  0.29643050  0.93666550  0.61957050  1
  O  O22  1  0.50000000  0.75000000  0.08688000  1
  O  O23  1  0.70356950  0.93666550  0.61957050  1
  O  O24  1  0.50000000  0.75000000  0.82132700  1
  O  O25  1  0.50000000  0.25000000  0.91312000  1
  O  O26  1  0.50000000  0.25000000  0.55512800  1
  O  O27  1  0.70356950  0.43666550  0.38042950  1
  O  O28  1  0.20356950  0.56333450  0.88042950  1
  O  O29  1  0.29643050  0.43666550  0.38042950  1
  O  O30  1  0.00000000  0.75000000  0.67867300  1
  O  O31  1  0.29643050  0.56333450  0.61957050  1
  O  O32  1  0.50000000  0.75000000  0.44487200  1
  O  O33  1  0.79643050  0.56333450  0.88042950  1
  O  O34  1  0.70356950  0.56333450  0.61957050  1
  O  O35  1  0.79643050  0.43666550  0.11957050  1
  O  O36  1  0.00000000  0.25000000  0.58688000  1
  O  O37  1  0.20356950  0.43666550  0.11957050  1
  O  O38  1  0.00000000  0.25000000  0.32132700  1
  O  O39  1  0.00000000  0.75000000  0.41312000  1
