# generated using pymatgen
data_Ca2CO3F2
_symmetry_space_group_name_H-M   'P 1'
_cell_length_a   6.70872200
_cell_length_b   7.54761900
_cell_length_c   7.73786700
_cell_angle_alpha   90.00000000
_cell_angle_beta   90.00000000
_cell_angle_gamma   90.00000000
_symmetry_Int_Tables_number   1
_chemical_formula_structural   Ca2CO3F2
_chemical_formula_sum   'Ca8 C4 O12 F8'
_cell_volume   391.80594868
_cell_formula_units_Z   4
loop_
 _symmetry_equiv_pos_site_id
 _symmetry_equiv_pos_as_xyz
  1  'x, y, z'
loop_
 _atom_site_type_symbol
 _atom_site_label
 _atom_site_symmetry_multiplicity
 _atom_site_fract_x
 _atom_site_fract_y
 _atom_site_fract_z
 _atom_site_occupancy
  Ca  Ca0  1  0.53920100  0.33687100  0.82707700  1
  Ca  Ca1  1  0.03920100  0.16312900  0.67292300  1
  Ca  Ca2  1  0.96079900  0.33687100  0.17292300  1
  Ca  Ca3  1  0.46079900  0.16312900  0.32707700  1
  Ca  Ca4  1  0.46079900  0.66312900  0.17292300  1
  Ca  Ca5  1  0.96079900  0.83687100  0.32707700  1
  Ca  Ca6  1  0.03920100  0.66312900  0.82707700  1
  Ca  Ca7  1  0.53920100  0.83687100  0.67292300  1
  C  C8  1  0.75000000  0.46689100  0.50000000  1
  C  C9  1  0.25000000  0.03310900  0.00000000  1
  C  C10  1  0.25000000  0.53310900  0.50000000  1
  C  C11  1  0.75000000  0.96689100  0.00000000  1
  O  O12  1  0.32658300  0.44911000  0.37042600  1
  O  O13  1  0.17341700  0.44911000  0.62957400  1
  O  O14  1  0.82658300  0.05089000  0.12957400  1
  O  O15  1  0.67341700  0.55089000  0.62957400  1
  O  O16  1  0.32658300  0.94911000  0.12957400  1
  O  O17  1  0.82658300  0.55089000  0.37042600  1
  O  O18  1  0.17341700  0.94911000  0.87042600  1
  O  O19  1  0.25000000  0.20626200  0.00000000  1
  O  O20  1  0.75000000  0.79373800  0.00000000  1
  O  O21  1  0.25000000  0.70626200  0.50000000  1
  O  O22  1  0.75000000  0.29373800  0.50000000  1
  O  O23  1  0.67341700  0.05089000  0.87042600  1
  F  F24  1  0.89718200  0.37937000  0.87869200  1
  F  F25  1  0.39718200  0.12063000  0.62130800  1
  F  F26  1  0.60281800  0.37937000  0.12130800  1
  F  F27  1  0.10281800  0.12063000  0.37869200  1
  F  F28  1  0.89718200  0.87937000  0.62130800  1
  F  F29  1  0.39718200  0.62063000  0.87869200  1
  F  F30  1  0.60281800  0.87937000  0.37869200  1
  F  F31  1  0.10281800  0.62063000  0.12130800  1
