# generated using pymatgen
data_K6Cd4Sn3Se13
_symmetry_space_group_name_H-M   'P 1'
_cell_length_a   15.24562394
_cell_length_b   15.24562394
_cell_length_c   16.28197947
_cell_angle_alpha   90.00000000
_cell_angle_beta   90.00000000
_cell_angle_gamma   120.00000000
_symmetry_Int_Tables_number   1
_chemical_formula_structural   K6Cd4Sn3Se13
_chemical_formula_sum   'K18 Cd12 Sn9 Se39'
_cell_volume   3277.39087585
_cell_formula_units_Z   3
loop_
 _symmetry_equiv_pos_site_id
 _symmetry_equiv_pos_as_xyz
  1  'x, y, z'
loop_
 _atom_site_type_symbol
 _atom_site_label
 _atom_site_symmetry_multiplicity
 _atom_site_fract_x
 _atom_site_fract_y
 _atom_site_fract_z
 _atom_site_occupancy
  K  K0  1  0.85749067  0.71498133  0.50958733  1
  K  K1  1  0.28501867  0.14250933  0.50958733  1
  K  K2  1  0.85749067  0.14250933  0.50958733  1
  K  K3  1  0.13997067  0.86002933  0.85852233  1
  K  K4  1  0.13997067  0.27994133  0.85852233  1
  K  K5  1  0.72005867  0.86002933  0.85852233  1
  K  K6  1  0.52415733  0.04831467  0.84292067  1
  K  K7  1  0.95168533  0.47584267  0.84292067  1
  K  K8  1  0.52415733  0.47584267  0.84292067  1
  K  K9  1  0.80663733  0.19336267  0.19185567  1
  K  K10  1  0.80663733  0.61327467  0.19185567  1
  K  K11  1  0.38672533  0.19336267  0.19185567  1
  K  K12  1  0.19082400  0.38164800  0.17625400  1
  K  K13  1  0.61835200  0.80917600  0.17625400  1
  K  K14  1  0.19082400  0.80917600  0.17625400  1
  K  K15  1  0.47330400  0.52669600  0.52518900  1
  K  K16  1  0.47330400  0.94660800  0.52518900  1
  K  K17  1  0.05339200  0.52669600  0.52518900  1
  Cd  Cd18  1  0.00000000  0.00000000  0.52859100  1
  Cd  Cd19  1  0.90115300  0.09884700  0.73480500  1
  Cd  Cd20  1  0.19769400  0.09884700  0.73480500  1
  Cd  Cd21  1  0.90115300  0.80230600  0.73480500  1
  Cd  Cd22  1  0.66666667  0.33333333  0.86192433  1
  Cd  Cd23  1  0.56781967  0.43218033  0.06813833  1
  Cd  Cd24  1  0.86436067  0.43218033  0.06813833  1
  Cd  Cd25  1  0.56781967  0.13563933  0.06813833  1
  Cd  Cd26  1  0.33333333  0.66666667  0.19525767  1
  Cd  Cd27  1  0.23448633  0.76551367  0.40147167  1
  Cd  Cd28  1  0.53102733  0.76551367  0.40147167  1
  Cd  Cd29  1  0.23448633  0.46897267  0.40147167  1
  Sn  Sn30  1  0.15326467  0.30652933  0.60090033  1
  Sn  Sn31  1  0.15326467  0.84673533  0.60090033  1
  Sn  Sn32  1  0.69347067  0.84673533  0.60090033  1
  Sn  Sn33  1  0.81993133  0.63986267  0.93423367  1
  Sn  Sn34  1  0.81993133  0.18006867  0.93423367  1
  Sn  Sn35  1  0.36013733  0.18006867  0.93423367  1
  Sn  Sn36  1  0.48659800  0.97319600  0.26756700  1
  Sn  Sn37  1  0.48659800  0.51340200  0.26756700  1
  Sn  Sn38  1  0.02680400  0.51340200  0.26756700  1
  Se  Se39  1  0.00103167  0.70952533  0.68206333  1
  Se  Se40  1  0.00000000  0.00000000  0.69007400  1
  Se  Se41  1  0.09637867  0.19275733  0.47185833  1
  Se  Se42  1  0.09637867  0.90362133  0.47185833  1
  Se  Se43  1  0.80724267  0.90362133  0.47185833  1
  Se  Se44  1  0.24706133  0.75293867  0.56383167  1
  Se  Se45  1  0.50587733  0.75293867  0.56383167  1
  Se  Se46  1  0.24706133  0.49412267  0.56383167  1
  Se  Se47  1  0.00103167  0.29150633  0.68206333  1
  Se  Se48  1  0.29047467  0.99896833  0.68206333  1
  Se  Se49  1  0.70849367  0.70952533  0.68206333  1
  Se  Se50  1  0.70849367  0.99896833  0.68206333  1
  Se  Se51  1  0.29047467  0.29150633  0.68206333  1
  Se  Se52  1  0.66769833  0.04285867  0.01539667  1
  Se  Se53  1  0.66666667  0.33333333  0.02340733  1
  Se  Se54  1  0.76304533  0.52609067  0.80519167  1
  Se  Se55  1  0.76304533  0.23695467  0.80519167  1
  Se  Se56  1  0.47390933  0.23695467  0.80519167  1
  Se  Se57  1  0.91372800  0.08627200  0.89716500  1
  Se  Se58  1  0.17254400  0.08627200  0.89716500  1
  Se  Se59  1  0.91372800  0.82745600  0.89716500  1
  Se  Se60  1  0.66769833  0.62483967  0.01539667  1
  Se  Se61  1  0.95714133  0.33230167  0.01539667  1
  Se  Se62  1  0.37516033  0.04285867  0.01539667  1
  Se  Se63  1  0.37516033  0.33230167  0.01539667  1
  Se  Se64  1  0.95714133  0.62483967  0.01539667  1
  Se  Se65  1  0.33436500  0.37619200  0.34873000  1
  Se  Se66  1  0.33333333  0.66666667  0.35674067  1
  Se  Se67  1  0.42971200  0.85942400  0.13852500  1
  Se  Se68  1  0.42971200  0.57028800  0.13852500  1
  Se  Se69  1  0.14057600  0.57028800  0.13852500  1
  Se  Se70  1  0.58039467  0.41960533  0.23049833  1
  Se  Se71  1  0.83921067  0.41960533  0.23049833  1
  Se  Se72  1  0.58039467  0.16078933  0.23049833  1
  Se  Se73  1  0.33436500  0.95817300  0.34873000  1
  Se  Se74  1  0.62380800  0.66563500  0.34873000  1
  Se  Se75  1  0.04182700  0.37619200  0.34873000  1
  Se  Se76  1  0.04182700  0.66563500  0.34873000  1
  Se  Se77  1  0.62380800  0.95817300  0.34873000  1
