# generated using pymatgen
data_Ba6Mg7H26
_symmetry_space_group_name_H-M   'P 1'
_cell_length_a   5.81345000
_cell_length_b   11.97856600
_cell_length_c   14.99116400
_cell_angle_alpha   90.00000000
_cell_angle_beta   90.00000000
_cell_angle_gamma   90.00000000
_symmetry_Int_Tables_number   1
_chemical_formula_structural   Ba6Mg7H26
_chemical_formula_sum   'Ba12 Mg14 H52'
_cell_volume   1043.93660697
_cell_formula_units_Z   2
loop_
 _symmetry_equiv_pos_site_id
 _symmetry_equiv_pos_as_xyz
  1  'x, y, z'
loop_
 _atom_site_type_symbol
 _atom_site_label
 _atom_site_symmetry_multiplicity
 _atom_site_fract_x
 _atom_site_fract_y
 _atom_site_fract_z
 _atom_site_occupancy
  Ba  Ba0  1  0.50000000  0.75879300  0.14731300  1
  Ba  Ba1  1  0.50000000  0.24120700  0.85268700  1
  Ba  Ba2  1  0.50000000  0.75879300  0.85268700  1
  Ba  Ba3  1  0.50000000  0.24120700  0.14731300  1
  Ba  Ba4  1  0.00000000  0.50000000  0.14417200  1
  Ba  Ba5  1  0.00000000  0.50000000  0.85582800  1
  Ba  Ba6  1  0.00000000  0.25879300  0.64731300  1
  Ba  Ba7  1  0.00000000  0.74120700  0.35268700  1
  Ba  Ba8  1  0.00000000  0.25879300  0.35268700  1
  Ba  Ba9  1  0.00000000  0.74120700  0.64731300  1
  Ba  Ba10  1  0.50000000  0.00000000  0.64417200  1
  Ba  Ba11  1  0.50000000  0.00000000  0.35582800  1
  Mg  Mg12  1  0.50000000  0.50000000  0.28165200  1
  Mg  Mg13  1  0.50000000  0.50000000  0.71834800  1
  Mg  Mg14  1  0.00000000  0.25799800  0.00000000  1
  Mg  Mg15  1  0.00000000  0.74200200  0.00000000  1
  Mg  Mg16  1  0.25492200  0.00000000  0.00000000  1
  Mg  Mg17  1  0.74507800  0.00000000  0.00000000  1
  Mg  Mg18  1  0.50000000  0.50000000  0.00000000  1
  Mg  Mg19  1  0.00000000  0.00000000  0.78165200  1
  Mg  Mg20  1  0.00000000  0.00000000  0.21834800  1
  Mg  Mg21  1  0.50000000  0.75799800  0.50000000  1
  Mg  Mg22  1  0.50000000  0.24200200  0.50000000  1
  Mg  Mg23  1  0.75492200  0.50000000  0.50000000  1
  Mg  Mg24  1  0.24507800  0.50000000  0.50000000  1
  Mg  Mg25  1  0.00000000  0.00000000  0.50000000  1
  H  H26  1  0.73160600  0.61232500  0.25470700  1
  H  H27  1  0.73160600  0.38767500  0.74529300  1
  H  H28  1  0.26839400  0.61232500  0.74529300  1
  H  H29  1  0.26839400  0.38767500  0.25470700  1
  H  H30  1  0.26839400  0.38767500  0.74529300  1
  H  H31  1  0.26839400  0.61232500  0.25470700  1
  H  H32  1  0.73160600  0.38767500  0.25470700  1
  H  H33  1  0.73160600  0.61232500  0.74529300  1
  H  H34  1  0.24919200  0.38553600  0.00000000  1
  H  H35  1  0.24919200  0.61446400  0.00000000  1
  H  H36  1  0.75080800  0.38553600  0.00000000  1
  H  H37  1  0.75080800  0.61446400  0.00000000  1
  H  H38  1  0.26546800  0.16241500  0.00000000  1
  H  H39  1  0.26546800  0.83758500  0.00000000  1
  H  H40  1  0.73453200  0.16241500  0.00000000  1
  H  H41  1  0.73453200  0.83758500  0.00000000  1
  H  H42  1  0.00000000  0.27520600  0.87231600  1
  H  H43  1  0.00000000  0.72479400  0.12768400  1
  H  H44  1  0.00000000  0.27520600  0.12768400  1
  H  H45  1  0.00000000  0.72479400  0.87231600  1
  H  H46  1  0.00000000  0.50000000  0.41008600  1
  H  H47  1  0.00000000  0.50000000  0.58991400  1
  H  H48  1  0.50000000  0.50000000  0.41338500  1
  H  H49  1  0.50000000  0.50000000  0.58661500  1
  H  H50  1  0.50000000  0.50000000  0.12955100  1
  H  H51  1  0.50000000  0.50000000  0.87044900  1
  H  H52  1  0.23160600  0.11232500  0.75470700  1
  H  H53  1  0.23160600  0.88767500  0.24529300  1
  H  H54  1  0.76839400  0.11232500  0.24529300  1
  H  H55  1  0.76839400  0.88767500  0.75470700  1
  H  H56  1  0.76839400  0.88767500  0.24529300  1
  H  H57  1  0.76839400  0.11232500  0.75470700  1
  H  H58  1  0.23160600  0.88767500  0.75470700  1
  H  H59  1  0.23160600  0.11232500  0.24529300  1
  H  H60  1  0.74919200  0.88553600  0.50000000  1
  H  H61  1  0.74919200  0.11446400  0.50000000  1
  H  H62  1  0.25080800  0.88553600  0.50000000  1
  H  H63  1  0.25080800  0.11446400  0.50000000  1
  H  H64  1  0.76546800  0.66241500  0.50000000  1
  H  H65  1  0.76546800  0.33758500  0.50000000  1
  H  H66  1  0.23453200  0.66241500  0.50000000  1
  H  H67  1  0.23453200  0.33758500  0.50000000  1
  H  H68  1  0.50000000  0.77520600  0.37231600  1
  H  H69  1  0.50000000  0.22479400  0.62768400  1
  H  H70  1  0.50000000  0.77520600  0.62768400  1
  H  H71  1  0.50000000  0.22479400  0.37231600  1
  H  H72  1  0.50000000  0.00000000  0.91008600  1
  H  H73  1  0.50000000  0.00000000  0.08991400  1
  H  H74  1  0.00000000  0.00000000  0.91338500  1
  H  H75  1  0.00000000  0.00000000  0.08661500  1
  H  H76  1  0.00000000  0.00000000  0.62955100  1
  H  H77  1  0.00000000  0.00000000  0.37044900  1
