# generated using pymatgen
data_CdGeO3
_symmetry_space_group_name_H-M   'P 1'
_cell_length_a   5.46773600
_cell_length_b   10.83999000
_cell_length_c   5.22793700
_cell_angle_alpha   90.00000000
_cell_angle_beta   90.00000000
_cell_angle_gamma   90.00000000
_symmetry_Int_Tables_number   1
_chemical_formula_structural   CdGeO3
_chemical_formula_sum   'Cd4 Ge4 O12'
_cell_volume   309.86089020
_cell_formula_units_Z   4
loop_
 _symmetry_equiv_pos_site_id
 _symmetry_equiv_pos_as_xyz
  1  'x, y, z'
loop_
 _atom_site_type_symbol
 _atom_site_label
 _atom_site_symmetry_multiplicity
 _atom_site_fract_x
 _atom_site_fract_y
 _atom_site_fract_z
 _atom_site_occupancy
  Cd  Cd0  1  0.50000000  0.38420600  0.75704800  1
  Cd  Cd1  1  0.00000000  0.11579400  0.25704800  1
  Cd  Cd2  1  0.00000000  0.88420600  0.75704800  1
  Cd  Cd3  1  0.50000000  0.61579400  0.25704800  1
  Ge  Ge4  1  0.50000000  0.05867300  0.68609400  1
  Ge  Ge5  1  0.00000000  0.44132700  0.18609400  1
  Ge  Ge6  1  0.00000000  0.55867300  0.68609400  1
  Ge  Ge7  1  0.50000000  0.94132700  0.18609400  1
  O  O8  1  0.72458400  0.01451500  0.94972300  1
  O  O9  1  0.27541600  0.01451500  0.94972300  1
  O  O10  1  0.50000000  0.21011500  0.58804500  1
  O  O11  1  0.22458400  0.48548500  0.44972300  1
  O  O12  1  0.77541600  0.48548500  0.44972300  1
  O  O13  1  0.00000000  0.28988500  0.08804500  1
  O  O14  1  0.22458400  0.51451500  0.94972300  1
  O  O15  1  0.77541600  0.51451500  0.94972300  1
  O  O16  1  0.00000000  0.71011500  0.58804500  1
  O  O17  1  0.72458400  0.98548500  0.44972300  1
  O  O18  1  0.27541600  0.98548500  0.44972300  1
  O  O19  1  0.50000000  0.78988500  0.08804500  1
