# generated using pymatgen
data_Ca2NdF7
_symmetry_space_group_name_H-M   'P 1'
_cell_length_a   6.82932000
_cell_length_b   3.95345800
_cell_length_c   30.70899296
_cell_angle_alpha   90.00000000
_cell_angle_beta   90.80540286
_cell_angle_gamma   90.00000000
_symmetry_Int_Tables_number   1
_chemical_formula_structural   Ca2NdF7
_chemical_formula_sum   'Ca12 Nd6 F42'
_cell_volume   829.04338411
_cell_formula_units_Z   6
loop_
 _symmetry_equiv_pos_site_id
 _symmetry_equiv_pos_as_xyz
  1  'x, y, z'
loop_
 _atom_site_type_symbol
 _atom_site_label
 _atom_site_symmetry_multiplicity
 _atom_site_fract_x
 _atom_site_fract_y
 _atom_site_fract_z
 _atom_site_occupancy
  Ca  Ca0  1  0.98469400  0.00000000  0.98231200  1
  Ca  Ca1  1  0.29923700  0.00000000  0.87479200  1
  Ca  Ca2  1  0.61805300  0.00000000  0.77205200  1
  Ca  Ca3  1  0.93032800  0.00000000  0.66816800  1
  Ca  Ca4  1  0.24916300  0.00000000  0.56388100  1
  Ca  Ca5  1  0.64940200  0.00000000  0.08536700  1
  Ca  Ca6  1  0.48469400  0.50000000  0.98231200  1
  Ca  Ca7  1  0.79923700  0.50000000  0.87479200  1
  Ca  Ca8  1  0.11805300  0.50000000  0.77205200  1
  Ca  Ca9  1  0.43032800  0.50000000  0.66816800  1
  Ca  Ca10  1  0.74916300  0.50000000  0.56388100  1
  Ca  Ca11  1  0.14940200  0.50000000  0.08536700  1
  Nd  Nd12  1  0.63217900  0.00000000  0.44055900  1
  Nd  Nd13  1  0.31788800  0.00000000  0.19349900  1
  Nd  Nd14  1  0.98216000  0.00000000  0.31626400  1
  Nd  Nd15  1  0.13217900  0.50000000  0.44055900  1
  Nd  Nd16  1  0.81788800  0.50000000  0.19349900  1
  Nd  Nd17  1  0.48216000  0.50000000  0.31626400  1
  F  F18  1  0.97242100  0.00000000  0.90334000  1
  F  F19  1  0.63057500  0.00000000  0.85116800  1
  F  F20  1  0.28791400  0.00000000  0.79997400  1
  F  F21  1  0.94800300  0.00000000  0.74821200  1
  F  F22  1  0.58008900  0.00000000  0.59212900  1
  F  F23  1  0.60100800  0.00000000  0.69648200  1
  F  F24  1  0.25952300  0.00000000  0.64546300  1
  F  F25  1  0.96347700  0.00000000  0.43842800  1
  F  F26  1  0.91284700  0.00000000  0.54217100  1
  F  F27  1  0.27764900  0.00000000  0.48464800  1
  F  F28  1  0.31450400  0.00000000  0.31055600  1
  F  F29  1  0.29935600  0.00000000  0.40263600  1
  F  F30  1  0.63844300  0.00000000  0.36020600  1
  F  F31  1  0.65107700  0.00000000  0.18595500  1
  F  F32  1  0.64735200  0.00000000  0.27841800  1
  F  F33  1  0.98111400  0.00000000  0.23702900  1
  F  F34  1  0.98377100  0.00000000  0.06189900  1
  F  F35  1  0.98377000  0.00000000  0.15643700  1
  F  F36  1  0.31595400  0.00000000  0.11443400  1
  F  F37  1  0.32010900  0.00000000  0.01035500  1
  F  F38  1  0.65001500  0.00000000  0.96038700  1
  F  F39  1  0.47242100  0.50000000  0.90334000  1
  F  F40  1  0.13057500  0.50000000  0.85116800  1
  F  F41  1  0.78791400  0.50000000  0.79997400  1
  F  F42  1  0.44800300  0.50000000  0.74821200  1
  F  F43  1  0.08008900  0.50000000  0.59212900  1
  F  F44  1  0.10100800  0.50000000  0.69648200  1
  F  F45  1  0.75952300  0.50000000  0.64546300  1
  F  F46  1  0.46347700  0.50000000  0.43842800  1
  F  F47  1  0.41284700  0.50000000  0.54217100  1
  F  F48  1  0.77764900  0.50000000  0.48464800  1
  F  F49  1  0.81450400  0.50000000  0.31055600  1
  F  F50  1  0.79935600  0.50000000  0.40263600  1
  F  F51  1  0.13844300  0.50000000  0.36020600  1
  F  F52  1  0.15107700  0.50000000  0.18595500  1
  F  F53  1  0.14735200  0.50000000  0.27841800  1
  F  F54  1  0.48111400  0.50000000  0.23702900  1
  F  F55  1  0.48377100  0.50000000  0.06189900  1
  F  F56  1  0.48377000  0.50000000  0.15643700  1
  F  F57  1  0.81595400  0.50000000  0.11443400  1
  F  F58  1  0.82010900  0.50000000  0.01035500  1
  F  F59  1  0.15001500  0.50000000  0.96038700  1
