# generated using pymatgen
data_Dy14Ti10O41
_symmetry_space_group_name_H-M   'P 1'
_cell_length_a   12.60159800
_cell_length_b   7.30802400
_cell_length_c   17.67440767
_cell_angle_alpha   90.00000000
_cell_angle_beta   90.74264761
_cell_angle_gamma   90.00000000
_symmetry_Int_Tables_number   1
_chemical_formula_structural   Dy14Ti10O41
_chemical_formula_sum   'Dy28 Ti20 O82'
_cell_volume   1627.54862079
_cell_formula_units_Z   2
loop_
 _symmetry_equiv_pos_site_id
 _symmetry_equiv_pos_as_xyz
  1  'x, y, z'
loop_
 _atom_site_type_symbol
 _atom_site_label
 _atom_site_symmetry_multiplicity
 _atom_site_fract_x
 _atom_site_fract_y
 _atom_site_fract_z
 _atom_site_occupancy
  Dy  Dy0  1  0.65571100  0.00000000  0.18650500  1
  Dy  Dy1  1  0.48410200  0.00000000  0.99863400  1
  Dy  Dy2  1  0.17175300  0.00000000  0.15947900  1
  Dy  Dy3  1  0.41031350  0.75518850  0.16731900  1
  Dy  Dy4  1  0.02082400  0.00000000  0.99094300  1
  Dy  Dy5  1  0.41031350  0.24481150  0.16731900  1
  Dy  Dy6  1  0.49914600  0.00000000  0.50486300  1
  Dy  Dy7  1  0.74845450  0.75056750  0.50062500  1
  Dy  Dy8  1  0.33181600  0.00000000  0.33535900  1
  Dy  Dy9  1  0.74845450  0.24943250  0.50062500  1
  Dy  Dy10  1  0.83429500  0.00000000  0.83496200  1
  Dy  Dy11  1  0.57256150  0.24246050  0.82440600  1
  Dy  Dy12  1  0.67349500  0.00000000  0.66538100  1
  Dy  Dy13  1  0.57256150  0.75753950  0.82440600  1
  Dy  Dy14  1  0.15571100  0.50000000  0.18650500  1
  Dy  Dy15  1  0.98410200  0.50000000  0.99863400  1
  Dy  Dy16  1  0.67175300  0.50000000  0.15947900  1
  Dy  Dy17  1  0.91031350  0.25518850  0.16731900  1
  Dy  Dy18  1  0.52082400  0.50000000  0.99094300  1
  Dy  Dy19  1  0.91031350  0.74481150  0.16731900  1
  Dy  Dy20  1  0.99914600  0.50000000  0.50486300  1
  Dy  Dy21  1  0.24845450  0.25056750  0.50062500  1
  Dy  Dy22  1  0.83181600  0.50000000  0.33535900  1
  Dy  Dy23  1  0.24845450  0.74943250  0.50062500  1
  Dy  Dy24  1  0.33429500  0.50000000  0.83496200  1
  Dy  Dy25  1  0.07256150  0.74246050  0.82440600  1
  Dy  Dy26  1  0.17349500  0.50000000  0.66538100  1
  Dy  Dy27  1  0.07256150  0.25753950  0.82440600  1
  Ti  Ti28  1  0.74604600  0.23529300  0.00303400  1
  Ti  Ti29  1  0.74604600  0.76470700  0.00303400  1
  Ti  Ti30  1  0.57886850  0.73993150  0.33592200  1
  Ti  Ti31  1  0.57886850  0.26006850  0.33592200  1
  Ti  Ti32  1  0.83546200  0.00000000  0.33386600  1
  Ti  Ti33  1  0.41410350  0.24999950  0.66536300  1
  Ti  Ti34  1  0.33596300  0.00000000  0.83578300  1
  Ti  Ti35  1  0.41410350  0.75000050  0.66536300  1
  Ti  Ti36  1  0.16543400  0.00000000  0.66704900  1
  Ti  Ti37  1  0.99765800  0.00000000  0.50132100  1
  Ti  Ti38  1  0.24604600  0.73529300  0.00303400  1
  Ti  Ti39  1  0.24604600  0.26470700  0.00303400  1
  Ti  Ti40  1  0.07886850  0.23993150  0.33592200  1
  Ti  Ti41  1  0.07886850  0.76006850  0.33592200  1
  Ti  Ti42  1  0.33546200  0.50000000  0.33386600  1
  Ti  Ti43  1  0.91410350  0.74999950  0.66536300  1
  Ti  Ti44  1  0.83596300  0.50000000  0.83578300  1
  Ti  Ti45  1  0.91410350  0.25000050  0.66536300  1
  Ti  Ti46  1  0.66543400  0.50000000  0.66704900  1
  Ti  Ti47  1  0.49765800  0.50000000  0.50132100  1
  O  O48  1  0.20298900  0.00000000  0.02884100  1
  O  O49  1  0.57708750  0.72207250  0.21723300  1
  O  O50  1  0.41548050  0.72308050  0.04076300  1
  O  O51  1  0.57708750  0.27792750  0.21723300  1
  O  O52  1  0.50386000  0.00000000  0.12389700  1
  O  O53  1  0.42547600  0.28221300  0.32211000  1
  O  O54  1  0.54107300  0.00000000  0.34074000  1
  O  O55  1  0.43225650  0.29736950  0.55594700  1
  O  O56  1  0.83484100  0.00000000  0.21953100  1
  O  O57  1  0.41548050  0.27691950  0.04076300  1
  O  O58  1  0.72912450  0.78731150  0.10980400  1
  O  O59  1  0.33249500  0.00000000  0.46059100  1
  O  O60  1  0.72777300  0.81156700  0.34737100  1
  O  O61  1  0.32468800  0.00000000  0.21059400  1
  O  O62  1  0.42547600  0.71778700  0.32211000  1
  O  O63  1  0.43225650  0.70263050  0.55594700  1
  O  O64  1  0.85756300  0.00000000  0.44569800  1
  O  O65  1  0.26599150  0.79768950  0.63696900  1
  O  O66  1  0.86292500  0.00000000  0.68484800  1
  O  O67  1  0.29967150  0.81529650  0.90340500  1
  O  O68  1  0.72912450  0.21268850  0.10980400  1
  O  O69  1  0.72777300  0.18843300  0.34737100  1
  O  O70  1  0.14316600  0.00000000  0.32990900  1
  O  O71  1  0.13401900  0.00000000  0.55743400  1
  O  O72  1  0.56936850  0.28355450  0.44700800  1
  O  O73  1  0.26599150  0.20231050  0.63696900  1
  O  O74  1  0.57063800  0.29428100  0.69154700  1
  O  O75  1  0.66759400  0.00000000  0.54110000  1
  O  O76  1  0.67236300  0.00000000  0.78978900  1
  O  O77  1  0.29967150  0.18470350  0.90340500  1
  O  O78  1  0.60437550  0.77961650  0.96312800  1
  O  O79  1  0.20360800  0.00000000  0.77652700  1
  O  O80  1  0.48602200  0.00000000  0.86970600  1
  O  O81  1  0.56936850  0.71644550  0.44700800  1
  O  O82  1  0.57063800  0.70571900  0.69154700  1
  O  O83  1  0.46978700  0.00000000  0.63820500  1
  O  O84  1  0.39956800  0.77756900  0.77389200  1
  O  O85  1  0.60437550  0.22038350  0.96312800  1
  O  O86  1  0.00282600  0.00000000  0.87036500  1
  O  O87  1  0.78020800  0.00000000  0.96139200  1
  O  O88  1  0.39956800  0.22243100  0.77389200  1
  O  O89  1  0.70298900  0.50000000  0.02884100  1
  O  O90  1  0.07708750  0.22207250  0.21723300  1
  O  O91  1  0.91548050  0.22308050  0.04076300  1
  O  O92  1  0.07708750  0.77792750  0.21723300  1
  O  O93  1  0.00386000  0.50000000  0.12389700  1
  O  O94  1  0.92547600  0.78221300  0.32211000  1
  O  O95  1  0.04107300  0.50000000  0.34074000  1
  O  O96  1  0.93225650  0.79736950  0.55594700  1
  O  O97  1  0.33484100  0.50000000  0.21953100  1
  O  O98  1  0.91548050  0.77691950  0.04076300  1
  O  O99  1  0.22912450  0.28731150  0.10980400  1
  O  O100  1  0.83249500  0.50000000  0.46059100  1
  O  O101  1  0.22777300  0.31156700  0.34737100  1
  O  O102  1  0.82468800  0.50000000  0.21059400  1
  O  O103  1  0.92547600  0.21778700  0.32211000  1
  O  O104  1  0.93225650  0.20263050  0.55594700  1
  O  O105  1  0.35756300  0.50000000  0.44569800  1
  O  O106  1  0.76599150  0.29768950  0.63696900  1
  O  O107  1  0.36292500  0.50000000  0.68484800  1
  O  O108  1  0.79967150  0.31529650  0.90340500  1
  O  O109  1  0.22912450  0.71268850  0.10980400  1
  O  O110  1  0.22777300  0.68843300  0.34737100  1
  O  O111  1  0.64316600  0.50000000  0.32990900  1
  O  O112  1  0.63401900  0.50000000  0.55743400  1
  O  O113  1  0.06936850  0.78355450  0.44700800  1
  O  O114  1  0.76599150  0.70231050  0.63696900  1
  O  O115  1  0.07063800  0.79428100  0.69154700  1
  O  O116  1  0.16759400  0.50000000  0.54110000  1
  O  O117  1  0.17236300  0.50000000  0.78978900  1
  O  O118  1  0.79967150  0.68470350  0.90340500  1
  O  O119  1  0.10437550  0.27961650  0.96312800  1
  O  O120  1  0.70360800  0.50000000  0.77652700  1
  O  O121  1  0.98602200  0.50000000  0.86970600  1
  O  O122  1  0.06936850  0.21644550  0.44700800  1
  O  O123  1  0.07063800  0.20571900  0.69154700  1
  O  O124  1  0.96978700  0.50000000  0.63820500  1
  O  O125  1  0.89956800  0.27756900  0.77389200  1
  O  O126  1  0.10437550  0.72038350  0.96312800  1
  O  O127  1  0.50282600  0.50000000  0.87036500  1
  O  O128  1  0.28020800  0.50000000  0.96139200  1
  O  O129  1  0.89956800  0.72243100  0.77389200  1
