# generated using pymatgen
data_NaHNO2
_symmetry_space_group_name_H-M   'P 1'
_cell_length_a   6.35869100
_cell_length_b   6.80839300
_cell_length_c   9.88712400
_cell_angle_alpha   90.00000000
_cell_angle_beta   90.00000000
_cell_angle_gamma   90.00000000
_symmetry_Int_Tables_number   1
_chemical_formula_structural   NaHNO2
_chemical_formula_sum   'Na8 H8 N8 O16'
_cell_volume   428.03799240
_cell_formula_units_Z   8
loop_
 _symmetry_equiv_pos_site_id
 _symmetry_equiv_pos_as_xyz
  1  'x, y, z'
loop_
 _atom_site_type_symbol
 _atom_site_label
 _atom_site_symmetry_multiplicity
 _atom_site_fract_x
 _atom_site_fract_y
 _atom_site_fract_z
 _atom_site_occupancy
  Na  Na0  1  0.00000000  0.50000000  0.00000000  1
  Na  Na1  1  0.00000000  0.00000000  0.00000000  1
  Na  Na2  1  0.00000000  0.50000000  0.50000000  1
  Na  Na3  1  0.00000000  0.00000000  0.50000000  1
  Na  Na4  1  0.34116300  0.50000000  0.25000000  1
  Na  Na5  1  0.65883700  0.00000000  0.75000000  1
  Na  Na6  1  0.65883700  0.50000000  0.75000000  1
  Na  Na7  1  0.34116300  0.00000000  0.25000000  1
  H  H8  1  0.83844500  0.60648700  0.27587600  1
  H  H9  1  0.16155500  0.10648700  0.72412400  1
  H  H10  1  0.83844500  0.39351300  0.22412400  1
  H  H11  1  0.16155500  0.89351300  0.77587600  1
  H  H12  1  0.16155500  0.39351300  0.72412400  1
  H  H13  1  0.83844500  0.89351300  0.27587600  1
  H  H14  1  0.16155500  0.60648700  0.77587600  1
  H  H15  1  0.83844500  0.10648700  0.22412400  1
  N  N16  1  0.57930000  0.75000000  0.47507200  1
  N  N17  1  0.42070000  0.25000000  0.52492800  1
  N  N18  1  0.57930000  0.25000000  0.02492800  1
  N  N19  1  0.42070000  0.75000000  0.97507200  1
  N  N20  1  0.38983000  0.75000000  0.52451300  1
  N  N21  1  0.61017000  0.25000000  0.47548700  1
  N  N22  1  0.38983000  0.25000000  0.97548700  1
  N  N23  1  0.61017000  0.75000000  0.02451300  1
  O  O24  1  0.73927100  0.75000000  0.56011700  1
  O  O25  1  0.26072900  0.25000000  0.43988300  1
  O  O26  1  0.73927100  0.25000000  0.93988300  1
  O  O27  1  0.26072900  0.75000000  0.06011700  1
  O  O28  1  0.61819900  0.75000000  0.34301700  1
  O  O29  1  0.38180100  0.25000000  0.65698300  1
  O  O30  1  0.61819900  0.25000000  0.15698300  1
  O  O31  1  0.38180100  0.75000000  0.84301700  1
  O  O32  1  0.24077500  0.75000000  0.42843900  1
  O  O33  1  0.75922500  0.25000000  0.57156100  1
  O  O34  1  0.24077500  0.25000000  0.07156100  1
  O  O35  1  0.75922500  0.75000000  0.92843900  1
  O  O36  1  0.93711000  0.50000000  0.25000000  1
  O  O37  1  0.06289000  0.00000000  0.75000000  1
  O  O38  1  0.06289000  0.50000000  0.75000000  1
  O  O39  1  0.93711000  0.00000000  0.25000000  1
