# generated using pymatgen
data_Sr(H8O5)2
_symmetry_space_group_name_H-M   'P 1'
_cell_length_a   8.83551400
_cell_length_b   9.37674200
_cell_length_c   11.47879074
_cell_angle_alpha   90.00000000
_cell_angle_beta   90.41058999
_cell_angle_gamma   90.00000000
_symmetry_Int_Tables_number   1
_chemical_formula_structural   Sr(H8O5)2
_chemical_formula_sum   'Sr4 H64 O40'
_cell_volume   950.97428438
_cell_formula_units_Z   4
loop_
 _symmetry_equiv_pos_site_id
 _symmetry_equiv_pos_as_xyz
  1  'x, y, z'
loop_
 _atom_site_type_symbol
 _atom_site_label
 _atom_site_symmetry_multiplicity
 _atom_site_fract_x
 _atom_site_fract_y
 _atom_site_fract_z
 _atom_site_occupancy
  Sr  Sr0  1  0.49924050  0.49921050  0.24133500  1
  Sr  Sr1  1  0.49924050  0.50078950  0.74133500  1
  Sr  Sr2  1  0.99924050  0.99921050  0.24133500  1
  Sr  Sr3  1  0.99924050  0.00078950  0.74133500  1
  H  H4  1  0.44184300  0.82937000  0.35289900  1
  H  H5  1  0.41672850  0.72505050  0.46001900  1
  H  H6  1  0.55311300  0.16465200  0.35414700  1
  H  H7  1  0.69661850  0.25970650  0.36950300  1
  H  H8  1  0.80440500  0.82611300  0.39214000  1
  H  H9  1  0.66926900  0.94175600  0.35738200  1
  H  H10  1  0.21461600  0.17531600  0.34258100  1
  H  H11  1  0.34108350  0.05044050  0.35170900  1
  H  H12  1  0.66926900  0.05824400  0.85738200  1
  H  H13  1  0.80440500  0.17388700  0.89214000  1
  H  H14  1  0.21461600  0.82468400  0.84258100  1
  H  H15  1  0.34108350  0.94955950  0.85170900  1
  H  H16  1  0.69661850  0.74029350  0.86950300  1
  H  H17  1  0.55311300  0.83534800  0.85414700  1
  H  H18  1  0.44184300  0.17063000  0.85289900  1
  H  H19  1  0.41672850  0.27494950  0.96001900  1
  H  H20  1  0.58393850  0.27243550  0.54882200  1
  H  H21  1  0.56032300  0.16461100  0.65499200  1
  H  H22  1  0.45602000  0.82661600  0.64097300  1
  H  H23  1  0.29957050  0.74708050  0.62475300  1
  H  H24  1  0.33246900  0.04976700  0.64675900  1
  H  H25  1  0.22544250  0.08546350  0.53867000  1
  H  H26  1  0.67008750  0.95089450  0.65026500  1
  H  H27  1  0.77422100  0.93112600  0.53953600  1
  H  H28  1  0.33246900  0.95023300  0.14675900  1
  H  H29  1  0.22544250  0.91453650  0.03867000  1
  H  H30  1  0.67008750  0.04910550  0.15026500  1
  H  H31  1  0.77422100  0.06887400  0.03953600  1
  H  H32  1  0.29957050  0.25291950  0.12475300  1
  H  H33  1  0.45602000  0.17338400  0.14097300  1
  H  H34  1  0.58393850  0.72756450  0.04882200  1
  H  H35  1  0.56032300  0.83538900  0.15499200  1
  H  H36  1  0.94184300  0.32937000  0.35289900  1
  H  H37  1  0.91672850  0.22505050  0.46001900  1
  H  H38  1  0.05311300  0.66465200  0.35414700  1
  H  H39  1  0.19661850  0.75970650  0.36950300  1
  H  H40  1  0.30440500  0.32611300  0.39214000  1
  H  H41  1  0.16926900  0.44175600  0.35738200  1
  H  H42  1  0.71461600  0.67531600  0.34258100  1
  H  H43  1  0.84108350  0.55044050  0.35170900  1
  H  H44  1  0.16926900  0.55824400  0.85738200  1
  H  H45  1  0.30440500  0.67388700  0.89214000  1
  H  H46  1  0.71461600  0.32468400  0.84258100  1
  H  H47  1  0.84108350  0.44955950  0.85170900  1
  H  H48  1  0.19661850  0.24029350  0.86950300  1
  H  H49  1  0.05311300  0.33534800  0.85414700  1
  H  H50  1  0.94184300  0.67063000  0.85289900  1
  H  H51  1  0.91672850  0.77494950  0.96001900  1
  H  H52  1  0.08393850  0.77243550  0.54882200  1
  H  H53  1  0.06032300  0.66461100  0.65499200  1
  H  H54  1  0.95602000  0.32661600  0.64097300  1
  H  H55  1  0.79957050  0.24708050  0.62475300  1
  H  H56  1  0.83246900  0.54976700  0.64675900  1
  H  H57  1  0.72544250  0.58546350  0.53867000  1
  H  H58  1  0.17008750  0.45089450  0.65026500  1
  H  H59  1  0.27422100  0.43112600  0.53953600  1
  H  H60  1  0.83246900  0.45023300  0.14675900  1
  H  H61  1  0.72544250  0.41453650  0.03867000  1
  H  H62  1  0.17008750  0.54910550  0.15026500  1
  H  H63  1  0.27422100  0.56887400  0.03953600  1
  H  H64  1  0.79957050  0.75291950  0.12475300  1
  H  H65  1  0.95602000  0.67338400  0.14097300  1
  H  H66  1  0.08393850  0.22756450  0.04882200  1
  H  H67  1  0.06032300  0.33538900  0.15499200  1
  O  O68  1  0.50425150  0.99383250  0.32012200  1
  O  O69  1  0.50425150  0.00616750  0.82012200  1
  O  O70  1  0.50510550  0.00710150  0.68954500  1
  O  O71  1  0.50510550  0.99289850  0.18954500  1
  O  O72  1  0.40631650  0.72989150  0.37352000  1
  O  O73  1  0.58487450  0.26462850  0.37770400  1
  O  O74  1  0.78135200  0.92690100  0.38185500  1
  O  O75  1  0.23397300  0.08216900  0.37763100  1
  O  O76  1  0.78135200  0.07309900  0.88185500  1
  O  O77  1  0.23397300  0.91783100  0.87763100  1
  O  O78  1  0.58487450  0.73537150  0.87770400  1
  O  O79  1  0.40631650  0.27010850  0.87352000  1
  O  O80  1  0.60289500  0.26330600  0.63367000  1
  O  O81  1  0.41168350  0.73230450  0.61831100  1
  O  O82  1  0.22391100  0.06902800  0.62355600  1
  O  O83  1  0.77561850  0.92190350  0.62518200  1
  O  O84  1  0.22391100  0.93097200  0.12355600  1
  O  O85  1  0.77561850  0.07809650  0.12518200  1
  O  O86  1  0.41168350  0.26769550  0.11831100  1
  O  O87  1  0.60289500  0.73669400  0.13367000  1
  O  O88  1  0.00425150  0.49383250  0.32012200  1
  O  O89  1  0.00425150  0.50616750  0.82012200  1
  O  O90  1  0.00510550  0.50710150  0.68954500  1
  O  O91  1  0.00510550  0.49289850  0.18954500  1
  O  O92  1  0.90631650  0.22989150  0.37352000  1
  O  O93  1  0.08487450  0.76462850  0.37770400  1
  O  O94  1  0.28135200  0.42690100  0.38185500  1
  O  O95  1  0.73397300  0.58216900  0.37763100  1
  O  O96  1  0.28135200  0.57309900  0.88185500  1
  O  O97  1  0.73397300  0.41783100  0.87763100  1
  O  O98  1  0.08487450  0.23537150  0.87770400  1
  O  O99  1  0.90631650  0.77010850  0.87352000  1
  O  O100  1  0.10289500  0.76330600  0.63367000  1
  O  O101  1  0.91168350  0.23230450  0.61831100  1
  O  O102  1  0.72391100  0.56902800  0.62355600  1
  O  O103  1  0.27561850  0.42190350  0.62518200  1
  O  O104  1  0.72391100  0.43097200  0.12355600  1
  O  O105  1  0.27561850  0.57809650  0.12518200  1
  O  O106  1  0.91168350  0.76769550  0.11831100  1
  O  O107  1  0.10289500  0.23669400  0.13367000  1
