# generated using pymatgen
data_Zr(MoO4)2
_symmetry_space_group_name_H-M   'P 1'
_cell_length_a   6.00331600
_cell_length_b   7.43643800
_cell_length_c   9.33398000
_cell_angle_alpha   90.00000000
_cell_angle_beta   90.00000000
_cell_angle_gamma   90.00000000
_symmetry_Int_Tables_number   1
_chemical_formula_structural   Zr(MoO4)2
_chemical_formula_sum   'Zr2 Mo4 O16'
_cell_volume   416.69955012
_cell_formula_units_Z   2
loop_
 _symmetry_equiv_pos_site_id
 _symmetry_equiv_pos_as_xyz
  1  'x, y, z'
loop_
 _atom_site_type_symbol
 _atom_site_label
 _atom_site_symmetry_multiplicity
 _atom_site_fract_x
 _atom_site_fract_y
 _atom_site_fract_z
 _atom_site_occupancy
  Zr  Zr0  1  0.00000000  0.73789600  0.00069700  1
  Zr  Zr1  1  0.50000000  0.26210400  0.50069700  1
  Mo  Mo2  1  0.00000000  0.57635900  0.40032500  1
  Mo  Mo3  1  0.00000000  0.04530100  0.67743800  1
  Mo  Mo4  1  0.50000000  0.95469900  0.17743800  1
  Mo  Mo5  1  0.50000000  0.42364100  0.90032500  1
  O  O6  1  0.00000000  0.84642800  0.79552600  1
  O  O7  1  0.00000000  0.22157600  0.79677200  1
  O  O8  1  0.25585600  0.55492200  0.94868700  1
  O  O9  1  0.50000000  0.22171200  0.99372000  1
  O  O10  1  0.75585600  0.44507800  0.44868700  1
  O  O11  1  0.00000000  0.77828800  0.49372000  1
  O  O12  1  0.24414400  0.44507800  0.44868700  1
  O  O13  1  0.25487700  0.08261500  0.57429500  1
  O  O14  1  0.24512300  0.91738500  0.07429500  1
  O  O15  1  0.74512300  0.08261500  0.57429500  1
  O  O16  1  0.50000000  0.77842400  0.29677200  1
  O  O17  1  0.50000000  0.15357200  0.29552600  1
  O  O18  1  0.50000000  0.38008900  0.70995600  1
  O  O19  1  0.00000000  0.61991100  0.20995600  1
  O  O20  1  0.75487700  0.91738500  0.07429500  1
  O  O21  1  0.74414400  0.55492200  0.94868700  1
