# generated using pymatgen
data_KTa(CuSe2)2
_symmetry_space_group_name_H-M   'P 1'
_cell_length_a   5.72559200
_cell_length_b   19.26869600
_cell_length_c   7.81533300
_cell_angle_alpha   90.00000000
_cell_angle_beta   90.00000000
_cell_angle_gamma   90.00000000
_symmetry_Int_Tables_number   1
_chemical_formula_structural   KTa(CuSe2)2
_chemical_formula_sum   'K4 Ta4 Cu8 Se16'
_cell_volume   862.22420351
_cell_formula_units_Z   4
loop_
 _symmetry_equiv_pos_site_id
 _symmetry_equiv_pos_as_xyz
  1  'x, y, z'
loop_
 _atom_site_type_symbol
 _atom_site_label
 _atom_site_symmetry_multiplicity
 _atom_site_fract_x
 _atom_site_fract_y
 _atom_site_fract_z
 _atom_site_occupancy
  K  K0  1  0.26334300  0.81588800  0.75000000  1
  K  K1  1  0.76334300  0.68411200  0.25000000  1
  K  K2  1  0.76334300  0.31588800  0.75000000  1
  K  K3  1  0.26334300  0.18411200  0.25000000  1
  Ta  Ta4  1  0.50015350  0.89167250  0.25000000  1
  Ta  Ta5  1  0.00015350  0.60832750  0.75000000  1
  Ta  Ta6  1  0.00015350  0.39167250  0.25000000  1
  Ta  Ta7  1  0.50015350  0.10832750  0.75000000  1
  Cu  Cu8  1  0.99989100  0.89328600  0.25000000  1
  Cu  Cu9  1  0.49989100  0.60671400  0.75000000  1
  Cu  Cu10  1  0.51599400  0.00000000  0.50000000  1
  Cu  Cu11  1  0.51599400  0.00000000  0.00000000  1
  Cu  Cu12  1  0.49989100  0.39328600  0.25000000  1
  Cu  Cu13  1  0.99989100  0.10671400  0.75000000  1
  Cu  Cu14  1  0.01599400  0.50000000  0.50000000  1
  Cu  Cu15  1  0.01599400  0.50000000  0.00000000  1
  Se  Se16  1  0.25356900  0.99696100  0.25000000  1
  Se  Se17  1  0.75356900  0.50303900  0.75000000  1
  Se  Se18  1  0.25197000  0.78988900  0.25000000  1
  Se  Se19  1  0.75197000  0.71011100  0.75000000  1
  Se  Se20  1  0.24733950  0.60718450  0.00468000  1
  Se  Se21  1  0.74733950  0.89281550  0.99532000  1
  Se  Se22  1  0.24733950  0.60718450  0.49532000  1
  Se  Se23  1  0.74733950  0.89281550  0.50468000  1
  Se  Se24  1  0.75356900  0.49696100  0.25000000  1
  Se  Se25  1  0.25356900  0.00303900  0.75000000  1
  Se  Se26  1  0.75197000  0.28988900  0.25000000  1
  Se  Se27  1  0.25197000  0.21011100  0.75000000  1
  Se  Se28  1  0.74733950  0.10718450  0.00468000  1
  Se  Se29  1  0.24733950  0.39281550  0.99532000  1
  Se  Se30  1  0.74733950  0.10718450  0.49532000  1
  Se  Se31  1  0.24733950  0.39281550  0.50468000  1
