# generated using pymatgen
data_Nd2PbSe4
_symmetry_space_group_name_H-M   'P 1'
_cell_length_a   9.05836200
_cell_length_b   9.05836200
_cell_length_c   9.04052200
_cell_angle_alpha   90.00000000
_cell_angle_beta   90.00000000
_cell_angle_gamma   90.00000000
_symmetry_Int_Tables_number   1
_chemical_formula_structural   Nd2PbSe4
_chemical_formula_sum   'Nd8 Pb4 Se16'
_cell_volume   741.81028814
_cell_formula_units_Z   4
loop_
 _symmetry_equiv_pos_site_id
 _symmetry_equiv_pos_as_xyz
  1  'x, y, z'
loop_
 _atom_site_type_symbol
 _atom_site_label
 _atom_site_symmetry_multiplicity
 _atom_site_fract_x
 _atom_site_fract_y
 _atom_site_fract_z
 _atom_site_occupancy
  Nd  Nd0  1  0.86897000  0.75000000  0.87500000  1
  Nd  Nd1  1  0.63103000  0.75000000  0.37500000  1
  Nd  Nd2  1  0.75000000  0.36897000  0.62500000  1
  Nd  Nd3  1  0.75000000  0.13103000  0.12500000  1
  Nd  Nd4  1  0.36897000  0.25000000  0.37500000  1
  Nd  Nd5  1  0.13103000  0.25000000  0.87500000  1
  Nd  Nd6  1  0.25000000  0.86897000  0.12500000  1
  Nd  Nd7  1  0.25000000  0.63103000  0.62500000  1
  Pb  Pb8  1  0.00000000  0.00000000  0.50000000  1
  Pb  Pb9  1  0.50000000  0.00000000  0.75000000  1
  Pb  Pb10  1  0.50000000  0.50000000  0.00000000  1
  Pb  Pb11  1  0.00000000  0.50000000  0.25000000  1
  Se  Se12  1  0.07522400  0.17259700  0.19262300  1
  Se  Se13  1  0.82740300  0.07522400  0.80737700  1
  Se  Se14  1  0.67259700  0.07522400  0.44262300  1
  Se  Se15  1  0.67259700  0.42477600  0.30737700  1
  Se  Se16  1  0.07522400  0.32740300  0.55737700  1
  Se  Se17  1  0.42477600  0.32740300  0.69262300  1
  Se  Se18  1  0.42477600  0.17259700  0.05737700  1
  Se  Se19  1  0.82740300  0.42477600  0.94262300  1
  Se  Se20  1  0.57522400  0.67259700  0.69262300  1
  Se  Se21  1  0.32740300  0.57522400  0.30737700  1
  Se  Se22  1  0.17259700  0.57522400  0.94262300  1
  Se  Se23  1  0.17259700  0.92477600  0.80737700  1
  Se  Se24  1  0.57522400  0.82740300  0.05737700  1
  Se  Se25  1  0.92477600  0.82740300  0.19262300  1
  Se  Se26  1  0.92477600  0.67259700  0.55737700  1
  Se  Se27  1  0.32740300  0.92477600  0.44262300  1
