# generated using pymatgen
data_La2PbF8
_symmetry_space_group_name_H-M   'P 1'
_cell_length_a   4.12180600
_cell_length_b   5.98086021
_cell_length_c   7.55856798
_cell_angle_alpha   112.94410819
_cell_angle_beta   105.81843700
_cell_angle_gamma   89.59936716
_symmetry_Int_Tables_number   1
_chemical_formula_structural   La2PbF8
_chemical_formula_sum   'La2 Pb1 F8'
_cell_volume   164.05407038
_cell_formula_units_Z   1
loop_
 _symmetry_equiv_pos_site_id
 _symmetry_equiv_pos_as_xyz
  1  'x, y, z'
loop_
 _atom_site_type_symbol
 _atom_site_label
 _atom_site_symmetry_multiplicity
 _atom_site_fract_x
 _atom_site_fract_y
 _atom_site_fract_z
 _atom_site_occupancy
  La  La0  1  0.64351300  0.65138800  0.32569300  1
  La  La1  1  0.33187100  0.31618700  0.65713900  1
  Pb  Pb2  1  0.02523100  0.99005200  0.01146400  1
  F  F3  1  0.05173600  0.66648800  0.14556200  1
  F  F4  1  0.80180600  0.56385500  0.63022800  1
  F  F5  1  0.59741100  0.05079800  0.33632300  1
  F  F6  1  0.49647900  0.28387000  0.01805900  1
  F  F7  1  0.25082600  0.87545600  0.53712300  1
  F  F8  1  0.14172400  0.37972500  0.34767900  1
  F  F9  1  0.87047600  0.17337800  0.73974600  1
  F  F10  1  0.45026000  0.71813700  0.91765000  1
