# generated using pymatgen
data_Ba(H2O3)2
_symmetry_space_group_name_H-M   'P 1'
_cell_length_a   8.37275000
_cell_length_b   8.96247400
_cell_length_c   6.38435201
_cell_angle_alpha   90.00000000
_cell_angle_beta   94.52920822
_cell_angle_gamma   90.00000000
_symmetry_Int_Tables_number   1
_chemical_formula_structural   Ba(H2O3)2
_chemical_formula_sum   'Ba4 H16 O24'
_cell_volume   477.58922865
_cell_formula_units_Z   4
loop_
 _symmetry_equiv_pos_site_id
 _symmetry_equiv_pos_as_xyz
  1  'x, y, z'
loop_
 _atom_site_type_symbol
 _atom_site_label
 _atom_site_symmetry_multiplicity
 _atom_site_fract_x
 _atom_site_fract_y
 _atom_site_fract_z
 _atom_site_occupancy
  Ba  Ba0  1  0.50000000  0.31601000  0.75000000  1
  Ba  Ba1  1  0.50000000  0.68399000  0.25000000  1
  Ba  Ba2  1  0.00000000  0.81601000  0.75000000  1
  Ba  Ba3  1  0.00000000  0.18399000  0.25000000  1
  H  H4  1  0.66329500  0.31769600  0.27564900  1
  H  H5  1  0.33670500  0.31769600  0.22435100  1
  H  H6  1  0.33670500  0.68230400  0.72435100  1
  H  H7  1  0.66329500  0.68230400  0.77564900  1
  H  H8  1  0.31389000  0.03622000  0.07544300  1
  H  H9  1  0.68611000  0.03622000  0.42455700  1
  H  H10  1  0.68611000  0.96378000  0.92455700  1
  H  H11  1  0.31389000  0.96378000  0.57544300  1
  H  H12  1  0.16329500  0.81769600  0.27564900  1
  H  H13  1  0.83670500  0.81769600  0.22435100  1
  H  H14  1  0.83670500  0.18230400  0.72435100  1
  H  H15  1  0.16329500  0.18230400  0.77564900  1
  H  H16  1  0.81389000  0.53622000  0.07544300  1
  H  H17  1  0.18611000  0.53622000  0.42455700  1
  H  H18  1  0.18611000  0.46378000  0.92455700  1
  H  H19  1  0.81389000  0.46378000  0.57544300  1
  O  O20  1  0.14249900  0.90474900  0.14865400  1
  O  O21  1  0.85750100  0.90474900  0.35134600  1
  O  O22  1  0.85750100  0.09525100  0.85134600  1
  O  O23  1  0.14249900  0.09525100  0.64865400  1
  O  O24  1  0.30373250  0.92213450  0.07217800  1
  O  O25  1  0.69626750  0.92213450  0.42782200  1
  O  O26  1  0.69626750  0.07786550  0.92782200  1
  O  O27  1  0.30373250  0.07786550  0.57217800  1
  O  O28  1  0.31307950  0.78400950  0.57470300  1
  O  O29  1  0.68692050  0.78400950  0.92529700  1
  O  O30  1  0.68692050  0.21599050  0.42529700  1
  O  O31  1  0.31307950  0.21599050  0.07470300  1
  O  O32  1  0.64249900  0.40474900  0.14865400  1
  O  O33  1  0.35750100  0.40474900  0.35134600  1
  O  O34  1  0.35750100  0.59525100  0.85134600  1
  O  O35  1  0.64249900  0.59525100  0.64865400  1
  O  O36  1  0.80373250  0.42213450  0.07217800  1
  O  O37  1  0.19626750  0.42213450  0.42782200  1
  O  O38  1  0.19626750  0.57786550  0.92782200  1
  O  O39  1  0.80373250  0.57786550  0.57217800  1
  O  O40  1  0.81307950  0.28400950  0.57470300  1
  O  O41  1  0.18692050  0.28400950  0.92529700  1
  O  O42  1  0.18692050  0.71599050  0.42529700  1
  O  O43  1  0.81307950  0.71599050  0.07470300  1
