# generated using pymatgen
data_H7NO6
_symmetry_space_group_name_H-M   'P 1'
_cell_length_a   3.77406400
_cell_length_b   9.77473800
_cell_length_c   14.79504223
_cell_angle_alpha   90.00000000
_cell_angle_beta   92.63508656
_cell_angle_gamma   90.00000000
_symmetry_Int_Tables_number   1
_chemical_formula_structural   H7NO6
_chemical_formula_sum   'H28 N4 O24'
_cell_volume   545.21918676
_cell_formula_units_Z   4
loop_
 _symmetry_equiv_pos_site_id
 _symmetry_equiv_pos_as_xyz
  1  'x, y, z'
loop_
 _atom_site_type_symbol
 _atom_site_label
 _atom_site_symmetry_multiplicity
 _atom_site_fract_x
 _atom_site_fract_y
 _atom_site_fract_z
 _atom_site_occupancy
  H  H0  1  0.23782700  0.19911000  0.53806900  1
  H  H1  1  0.70497300  0.31081300  0.97499800  1
  H  H2  1  0.76217300  0.69911000  0.46193100  1
  H  H3  1  0.29502700  0.81081300  0.02500200  1
  H  H4  1  0.89389400  0.10339600  0.61105800  1
  H  H5  1  0.93363900  0.29612600  0.57205200  1
  H  H6  1  0.36668100  0.39339900  0.90059200  1
  H  H7  1  0.40049600  0.20917700  0.93278500  1
  H  H8  1  0.10610600  0.60339600  0.38894200  1
  H  H9  1  0.06636100  0.79612600  0.42794800  1
  H  H10  1  0.63331900  0.89339900  0.09940800  1
  H  H11  1  0.59950400  0.70917700  0.06721500  1
  H  H12  1  0.76489500  0.24957800  0.37077300  1
  H  H13  1  0.25537700  0.24420300  0.16115300  1
  H  H14  1  0.74342800  0.30083100  0.27112200  1
  H  H15  1  0.31875900  0.14131000  0.24374200  1
  H  H16  1  0.23510500  0.74957800  0.62922700  1
  H  H17  1  0.74462300  0.74420300  0.83884700  1
  H  H18  1  0.25657200  0.80083100  0.72887800  1
  H  H19  1  0.68124100  0.64131000  0.75625800  1
  H  H20  1  0.41279700  0.48419400  0.42539800  1
  H  H21  1  0.09568300  0.43036700  0.35210200  1
  H  H22  1  0.93816200  0.02417600  0.06571900  1
  H  H23  1  0.65672600  0.06997700  0.14271000  1
  H  H24  1  0.90431700  0.93036700  0.64789800  1
  H  H25  1  0.58720300  0.98419400  0.57460200  1
  H  H26  1  0.34327400  0.56997700  0.85729000  1
  H  H27  1  0.06183800  0.52417600  0.93428100  1
  N  N28  1  0.36515300  0.02783700  0.41578200  1
  N  N29  1  0.87765300  0.47785700  0.09423200  1
  N  N30  1  0.63484700  0.52783700  0.58421800  1
  N  N31  1  0.12234700  0.97785700  0.90576800  1
  O  O32  1  0.49744800  0.14277000  0.44230200  1
  O  O33  1  0.97142700  0.35654500  0.07132400  1
  O  O34  1  0.50255200  0.64277000  0.55769800  1
  O  O35  1  0.02857300  0.85654500  0.92867600  1
  O  O36  1  0.32054000  0.93606000  0.47688400  1
  O  O37  1  0.81696700  0.56515400  0.02916700  1
  O  O38  1  0.67946000  0.43606000  0.52311600  1
  O  O39  1  0.18303300  0.06515400  0.97083300  1
  O  O40  1  0.27894500  0.00436900  0.33510100  1
  O  O41  1  0.84428400  0.51070900  0.17366900  1
  O  O42  1  0.72105500  0.50436900  0.66489900  1
  O  O43  1  0.15571600  0.01070900  0.82633100  1
  O  O44  1  0.08688100  0.21700700  0.58959400  1
  O  O45  1  0.54750000  0.29181700  0.92039800  1
  O  O46  1  0.91311900  0.71700700  0.41040600  1
  O  O47  1  0.45250000  0.79181700  0.07960200  1
  O  O48  1  0.89531500  0.30404500  0.32703800  1
  O  O49  1  0.43601300  0.18813200  0.19397600  1
  O  O50  1  0.10468500  0.80404500  0.67296200  1
  O  O51  1  0.56398700  0.68813200  0.80602400  1
  O  O52  1  0.25854900  0.51240900  0.37199700  1
  O  O53  1  0.80554800  0.99267000  0.11887300  1
  O  O54  1  0.74145100  0.01240900  0.62800300  1
  O  O55  1  0.19445200  0.49267000  0.88112700  1
