# generated using pymatgen
data_CaB2(H2O3)2
_symmetry_space_group_name_H-M   'P 1'
_cell_length_a   10.13463000
_cell_length_b   9.76861200
_cell_length_c   4.42759006
_cell_angle_alpha   90.00000000
_cell_angle_beta   91.06025998
_cell_angle_gamma   90.00000000
_symmetry_Int_Tables_number   1
_chemical_formula_structural   CaB2(H2O3)2
_chemical_formula_sum   'Ca4 B8 H16 O24'
_cell_volume   438.26198226
_cell_formula_units_Z   4
loop_
 _symmetry_equiv_pos_site_id
 _symmetry_equiv_pos_as_xyz
  1  'x, y, z'
loop_
 _atom_site_type_symbol
 _atom_site_label
 _atom_site_symmetry_multiplicity
 _atom_site_fract_x
 _atom_site_fract_y
 _atom_site_fract_z
 _atom_site_occupancy
  Ca  Ca0  1  0.50000000  0.70783700  0.75000000  1
  Ca  Ca1  1  0.50000000  0.29216300  0.25000000  1
  Ca  Ca2  1  0.00000000  0.20783700  0.75000000  1
  Ca  Ca3  1  0.00000000  0.79216300  0.25000000  1
  B  B4  1  0.20892450  0.06761950  0.31107400  1
  B  B5  1  0.79107550  0.06761950  0.18892600  1
  B  B6  1  0.79107550  0.93238050  0.68892600  1
  B  B7  1  0.20892450  0.93238050  0.81107400  1
  B  B8  1  0.70892450  0.56761950  0.31107400  1
  B  B9  1  0.29107550  0.56761950  0.18892600  1
  B  B10  1  0.29107550  0.43238050  0.68892600  1
  B  B11  1  0.70892450  0.43238050  0.81107400  1
  H  H12  1  0.61518800  0.97548400  0.87042400  1
  H  H13  1  0.38481200  0.97548400  0.62957600  1
  H  H14  1  0.38481200  0.02451600  0.12957600  1
  H  H15  1  0.61518800  0.02451600  0.37042400  1
  H  H16  1  0.70314500  0.22534300  0.71617500  1
  H  H17  1  0.29685500  0.22534300  0.78382500  1
  H  H18  1  0.29685500  0.77465700  0.28382500  1
  H  H19  1  0.70314500  0.77465700  0.21617500  1
  H  H20  1  0.11518800  0.47548400  0.87042400  1
  H  H21  1  0.88481200  0.47548400  0.62957600  1
  H  H22  1  0.88481200  0.52451600  0.12957600  1
  H  H23  1  0.11518800  0.52451600  0.37042400  1
  H  H24  1  0.20314500  0.72534300  0.71617500  1
  H  H25  1  0.79685500  0.72534300  0.78382500  1
  H  H26  1  0.79685500  0.27465700  0.28382500  1
  H  H27  1  0.20314500  0.27465700  0.21617500  1
  O  O28  1  0.16737650  0.04879650  0.62415000  1
  O  O29  1  0.83262350  0.04879650  0.87585000  1
  O  O30  1  0.83262350  0.95120350  0.37585000  1
  O  O31  1  0.16737650  0.95120350  0.12415000  1
  O  O32  1  0.35801550  0.08298350  0.30162300  1
  O  O33  1  0.64198450  0.08298350  0.19837700  1
  O  O34  1  0.64198450  0.91701650  0.69837700  1
  O  O35  1  0.35801550  0.91701650  0.80162300  1
  O  O36  1  0.64305400  0.69645500  0.20167400  1
  O  O37  1  0.35694600  0.69645500  0.29832600  1
  O  O38  1  0.35694600  0.30354500  0.79832600  1
  O  O39  1  0.64305400  0.30354500  0.70167400  1
  O  O40  1  0.66737650  0.54879650  0.62415000  1
  O  O41  1  0.33262350  0.54879650  0.87585000  1
  O  O42  1  0.33262350  0.45120350  0.37585000  1
  O  O43  1  0.66737650  0.45120350  0.12415000  1
  O  O44  1  0.85801550  0.58298350  0.30162300  1
  O  O45  1  0.14198450  0.58298350  0.19837700  1
  O  O46  1  0.14198450  0.41701650  0.69837700  1
  O  O47  1  0.85801550  0.41701650  0.80162300  1
  O  O48  1  0.14305400  0.19645500  0.20167400  1
  O  O49  1  0.85694600  0.19645500  0.29832600  1
  O  O50  1  0.85694600  0.80354500  0.79832600  1
  O  O51  1  0.14305400  0.80354500  0.70167400  1
