# generated using pymatgen
data_Sn(BiTe2)2
_symmetry_space_group_name_H-M   'P 1'
_cell_length_a   29.60649000
_cell_length_b   4.45399200
_cell_length_c   23.35708444
_cell_angle_alpha   90.00000000
_cell_angle_beta   123.84315188
_cell_angle_gamma   90.00000000
_symmetry_Int_Tables_number   1
_chemical_formula_structural   Sn(BiTe2)2
_chemical_formula_sum   'Sn10 Bi20 Te40'
_cell_volume   2558.16616183
_cell_formula_units_Z   10
loop_
 _symmetry_equiv_pos_site_id
 _symmetry_equiv_pos_as_xyz
  1  'x, y, z'
loop_
 _atom_site_type_symbol
 _atom_site_label
 _atom_site_symmetry_multiplicity
 _atom_site_fract_x
 _atom_site_fract_y
 _atom_site_fract_z
 _atom_site_occupancy
  Sn  Sn0  1  0.79827100  0.00000000  0.59571700  1
  Sn  Sn1  1  0.80245500  0.00000000  0.32691900  1
  Sn  Sn2  1  0.70333500  0.50000000  0.40256400  1
  Sn  Sn3  1  0.66720000  0.50000000  0.10369700  1
  Sn  Sn4  1  0.92124000  0.50000000  0.08617600  1
  Sn  Sn5  1  0.29827100  0.50000000  0.59571700  1
  Sn  Sn6  1  0.30245500  0.50000000  0.32691900  1
  Sn  Sn7  1  0.20333500  0.00000000  0.40256400  1
  Sn  Sn8  1  0.16720000  0.00000000  0.10369700  1
  Sn  Sn9  1  0.42124000  0.00000000  0.08617600  1
  Bi  Bi10  1  0.08971200  0.50000000  0.91264600  1
  Bi  Bi11  1  0.30944900  0.50000000  0.87955500  1
  Bi  Bi12  1  0.98827000  0.00000000  0.71672700  1
  Bi  Bi13  1  0.20176700  0.00000000  0.68337900  1
  Bi  Bi14  1  0.39939600  0.00000000  0.80374600  1
  Bi  Bi15  1  0.89703200  0.50000000  0.51822700  1
  Bi  Bi16  1  0.10679000  0.50000000  0.48450800  1
  Bi  Bi17  1  0.01439700  0.00000000  0.28175500  1
  Bi  Bi18  1  0.80152500  0.50000000  0.10786800  1
  Bi  Bi19  1  0.60559100  0.00000000  0.19949600  1
  Bi  Bi20  1  0.58971200  0.00000000  0.91264600  1
  Bi  Bi21  1  0.80944900  0.00000000  0.87955500  1
  Bi  Bi22  1  0.48827000  0.50000000  0.71672700  1
  Bi  Bi23  1  0.70176700  0.50000000  0.68337900  1
  Bi  Bi24  1  0.89939600  0.50000000  0.80374600  1
  Bi  Bi25  1  0.39703200  0.00000000  0.51822700  1
  Bi  Bi26  1  0.60679000  0.00000000  0.48450800  1
  Bi  Bi27  1  0.51439700  0.50000000  0.28175500  1
  Bi  Bi28  1  0.30152500  0.00000000  0.10786800  1
  Bi  Bi29  1  0.10559100  0.50000000  0.19949600  1
  Te  Te30  1  0.17473700  0.00000000  0.97289100  1
  Te  Te31  1  0.40168500  0.00000000  0.93396200  1
  Te  Te32  1  0.07586400  0.50000000  0.77380800  1
  Te  Te33  1  0.30599500  0.50000000  0.74017800  1
  Te  Te34  1  0.99131100  0.00000000  0.85743600  1
  Te  Te35  1  0.98177100  0.00000000  0.57768200  1
  Te  Te36  1  0.21795300  0.00000000  0.82118100  1
  Te  Te37  1  0.20836400  0.00000000  0.54278200  1
  Te  Te38  1  0.89079200  0.50000000  0.65709400  1
  Te  Te39  1  0.88553300  0.50000000  0.38183800  1
  Te  Te40  1  0.11634900  0.50000000  0.62355900  1
  Te  Te41  1  0.10808000  0.50000000  0.34339000  1
  Te  Te42  1  0.79321400  0.00000000  0.45870300  1
  Te  Te43  1  0.77212200  0.00000000  0.17257700  1
  Te  Te44  1  0.02220500  0.00000000  0.42484300  1
  Te  Te45  1  0.01383700  0.00000000  0.14670900  1
  Te  Te46  1  0.69480600  0.50000000  0.26230700  1
  Te  Te47  1  0.92529200  0.50000000  0.22334500  1
  Te  Te48  1  0.58273400  0.00000000  0.05286100  1
  Te  Te49  1  0.83092500  0.00000000  0.02987700  1
  Te  Te50  1  0.67473700  0.50000000  0.97289100  1
  Te  Te51  1  0.90168500  0.50000000  0.93396200  1
  Te  Te52  1  0.57586400  0.00000000  0.77380800  1
  Te  Te53  1  0.80599500  0.00000000  0.74017800  1
  Te  Te54  1  0.49131100  0.50000000  0.85743600  1
  Te  Te55  1  0.48177100  0.50000000  0.57768200  1
  Te  Te56  1  0.71795300  0.50000000  0.82118100  1
  Te  Te57  1  0.70836400  0.50000000  0.54278200  1
  Te  Te58  1  0.39079200  0.00000000  0.65709400  1
  Te  Te59  1  0.38553300  0.00000000  0.38183800  1
  Te  Te60  1  0.61634900  0.00000000  0.62355900  1
  Te  Te61  1  0.60808000  0.00000000  0.34339000  1
  Te  Te62  1  0.29321400  0.50000000  0.45870300  1
  Te  Te63  1  0.27212200  0.50000000  0.17257700  1
  Te  Te64  1  0.52220500  0.50000000  0.42484300  1
  Te  Te65  1  0.51383700  0.50000000  0.14670900  1
  Te  Te66  1  0.19480600  0.00000000  0.26230700  1
  Te  Te67  1  0.42529200  0.00000000  0.22334500  1
  Te  Te68  1  0.08273400  0.50000000  0.05286100  1
  Te  Te69  1  0.33092500  0.50000000  0.02987700  1
