# generated using pymatgen
data_Rb6Pb5Cl16
_symmetry_space_group_name_H-M   'P 1'
_cell_length_a   16.79790400
_cell_length_b   17.04570800
_cell_length_c   11.40578611
_cell_angle_alpha   90.00000000
_cell_angle_beta   90.12260612
_cell_angle_gamma   90.00000000
_symmetry_Int_Tables_number   1
_chemical_formula_structural   Rb6Pb5Cl16
_chemical_formula_sum   'Rb24 Pb20 Cl64'
_cell_volume   3265.83597247
_cell_formula_units_Z   4
loop_
 _symmetry_equiv_pos_site_id
 _symmetry_equiv_pos_as_xyz
  1  'x, y, z'
loop_
 _atom_site_type_symbol
 _atom_site_label
 _atom_site_symmetry_multiplicity
 _atom_site_fract_x
 _atom_site_fract_y
 _atom_site_fract_z
 _atom_site_occupancy
  Rb  Rb0  1  0.75000000  0.25000000  0.00000000  1
  Rb  Rb1  1  0.50000000  0.87843000  0.00000000  1
  Rb  Rb2  1  0.87360700  0.00000000  0.00032700  1
  Rb  Rb3  1  0.32252300  0.00000000  0.26532000  1
  Rb  Rb4  1  0.13583600  0.00000000  0.50189700  1
  Rb  Rb5  1  0.50000000  0.13681100  0.50000000  1
  Rb  Rb6  1  0.50000000  0.86318900  0.50000000  1
  Rb  Rb7  1  0.86416400  0.00000000  0.49810300  1
  Rb  Rb8  1  0.67747700  0.00000000  0.73468000  1
  Rb  Rb9  1  0.75000000  0.75000000  0.00000000  1
  Rb  Rb10  1  0.12639300  0.00000000  0.99967300  1
  Rb  Rb11  1  0.50000000  0.12157000  0.00000000  1
  Rb  Rb12  1  0.25000000  0.75000000  0.00000000  1
  Rb  Rb13  1  0.00000000  0.37843000  0.00000000  1
  Rb  Rb14  1  0.37360700  0.50000000  0.00032700  1
  Rb  Rb15  1  0.82252300  0.50000000  0.26532000  1
  Rb  Rb16  1  0.63583600  0.50000000  0.50189700  1
  Rb  Rb17  1  0.00000000  0.63681100  0.50000000  1
  Rb  Rb18  1  0.00000000  0.36318900  0.50000000  1
  Rb  Rb19  1  0.36416400  0.50000000  0.49810300  1
  Rb  Rb20  1  0.17747700  0.50000000  0.73468000  1
  Rb  Rb21  1  0.25000000  0.25000000  0.00000000  1
  Rb  Rb22  1  0.62639300  0.50000000  0.99967300  1
  Rb  Rb23  1  0.00000000  0.62157000  0.00000000  1
  Pb  Pb24  1  0.67596500  0.00000000  0.26243400  1
  Pb  Pb25  1  0.50382950  0.32473450  0.25645700  1
  Pb  Pb26  1  0.50382950  0.67526550  0.25645700  1
  Pb  Pb27  1  0.74970350  0.24763950  0.34242900  1
  Pb  Pb28  1  0.74970350  0.75236050  0.34242900  1
  Pb  Pb29  1  0.25029650  0.24763950  0.65757100  1
  Pb  Pb30  1  0.25029650  0.75236050  0.65757100  1
  Pb  Pb31  1  0.49617050  0.67526550  0.74354300  1
  Pb  Pb32  1  0.49617050  0.32473450  0.74354300  1
  Pb  Pb33  1  0.32403500  0.00000000  0.73756600  1
  Pb  Pb34  1  0.17596500  0.50000000  0.26243400  1
  Pb  Pb35  1  0.00382950  0.82473450  0.25645700  1
  Pb  Pb36  1  0.00382950  0.17526550  0.25645700  1
  Pb  Pb37  1  0.24970350  0.74763950  0.34242900  1
  Pb  Pb38  1  0.24970350  0.25236050  0.34242900  1
  Pb  Pb39  1  0.75029650  0.74763950  0.65757100  1
  Pb  Pb40  1  0.75029650  0.25236050  0.65757100  1
  Pb  Pb41  1  0.99617050  0.17526550  0.74354300  1
  Pb  Pb42  1  0.99617050  0.82473450  0.74354300  1
  Pb  Pb43  1  0.82403500  0.50000000  0.73756600  1
  Cl  Cl44  1  0.50000000  0.65878700  0.00000000  1
  Cl  Cl45  1  0.34128400  0.00000000  0.97997300  1
  Cl  Cl46  1  0.38924900  0.80832400  0.21448200  1
  Cl  Cl47  1  0.81655450  0.11620450  0.21440800  1
  Cl  Cl48  1  0.17488800  0.87691300  0.21082500  1
  Cl  Cl49  1  0.61269350  0.18533650  0.21582300  1
  Cl  Cl50  1  0.61269350  0.81466350  0.21582300  1
  Cl  Cl51  1  0.17488800  0.12308700  0.21082500  1
  Cl  Cl52  1  0.81655450  0.88379550  0.21440800  1
  Cl  Cl53  1  0.38924900  0.19167600  0.21448200  1
  Cl  Cl54  1  0.51266600  0.00000000  0.29019100  1
  Cl  Cl55  1  0.99954500  0.00000000  0.28301000  1
  Cl  Cl56  1  0.39796950  0.69399850  0.50238100  1
  Cl  Cl57  1  0.69715200  0.10794800  0.49055700  1
  Cl  Cl58  1  0.30284800  0.89205200  0.50944300  1
  Cl  Cl59  1  0.60203050  0.30600150  0.49761900  1
  Cl  Cl60  1  0.69715200  0.89205200  0.49055700  1
  Cl  Cl61  1  0.39796950  0.30600150  0.50238100  1
  Cl  Cl62  1  0.60203050  0.69399850  0.49761900  1
  Cl  Cl63  1  0.30284800  0.10794800  0.50944300  1
  Cl  Cl64  1  0.00045500  0.00000000  0.71699000  1
  Cl  Cl65  1  0.48733400  0.00000000  0.70980900  1
  Cl  Cl66  1  0.61075100  0.80832400  0.78551800  1
  Cl  Cl67  1  0.18344550  0.11620450  0.78559200  1
  Cl  Cl68  1  0.38730650  0.81466350  0.78417700  1
  Cl  Cl69  1  0.82511200  0.12308700  0.78917500  1
  Cl  Cl70  1  0.82511200  0.87691300  0.78917500  1
  Cl  Cl71  1  0.38730650  0.18533650  0.78417700  1
  Cl  Cl72  1  0.18344550  0.88379550  0.78559200  1
  Cl  Cl73  1  0.61075100  0.19167600  0.78551800  1
  Cl  Cl74  1  0.65871600  0.00000000  0.02002700  1
  Cl  Cl75  1  0.50000000  0.34121300  0.00000000  1
  Cl  Cl76  1  0.00000000  0.15878700  0.00000000  1
  Cl  Cl77  1  0.84128400  0.50000000  0.97997300  1
  Cl  Cl78  1  0.88924900  0.30832400  0.21448200  1
  Cl  Cl79  1  0.31655450  0.61620450  0.21440800  1
  Cl  Cl80  1  0.67488800  0.37691300  0.21082500  1
  Cl  Cl81  1  0.11269350  0.68533650  0.21582300  1
  Cl  Cl82  1  0.11269350  0.31466350  0.21582300  1
  Cl  Cl83  1  0.67488800  0.62308700  0.21082500  1
  Cl  Cl84  1  0.31655450  0.38379550  0.21440800  1
  Cl  Cl85  1  0.88924900  0.69167600  0.21448200  1
  Cl  Cl86  1  0.01266600  0.50000000  0.29019100  1
  Cl  Cl87  1  0.49954500  0.50000000  0.28301000  1
  Cl  Cl88  1  0.89796950  0.19399850  0.50238100  1
  Cl  Cl89  1  0.19715200  0.60794800  0.49055700  1
  Cl  Cl90  1  0.80284800  0.39205200  0.50944300  1
  Cl  Cl91  1  0.10203050  0.80600150  0.49761900  1
  Cl  Cl92  1  0.19715200  0.39205200  0.49055700  1
  Cl  Cl93  1  0.89796950  0.80600150  0.50238100  1
  Cl  Cl94  1  0.10203050  0.19399850  0.49761900  1
  Cl  Cl95  1  0.80284800  0.60794800  0.50944300  1
  Cl  Cl96  1  0.50045500  0.50000000  0.71699000  1
  Cl  Cl97  1  0.98733400  0.50000000  0.70980900  1
  Cl  Cl98  1  0.11075100  0.30832400  0.78551800  1
  Cl  Cl99  1  0.68344550  0.61620450  0.78559200  1
  Cl  Cl100  1  0.88730650  0.31466350  0.78417700  1
  Cl  Cl101  1  0.32511200  0.62308700  0.78917500  1
  Cl  Cl102  1  0.32511200  0.37691300  0.78917500  1
  Cl  Cl103  1  0.88730650  0.68533650  0.78417700  1
  Cl  Cl104  1  0.68344550  0.38379550  0.78559200  1
  Cl  Cl105  1  0.11075100  0.69167600  0.78551800  1
  Cl  Cl106  1  0.15871600  0.50000000  0.02002700  1
  Cl  Cl107  1  0.00000000  0.84121300  0.00000000  1
