# generated using pymatgen
data_Cs2Ti(Si2O5)3
_symmetry_space_group_name_H-M   'P 1'
_cell_length_a   13.18956600
_cell_length_b   7.63797000
_cell_length_c   15.45940215
_cell_angle_alpha   90.00000000
_cell_angle_beta   105.77198890
_cell_angle_gamma   90.00000000
_symmetry_Int_Tables_number   1
_chemical_formula_structural   Cs2Ti(Si2O5)3
_chemical_formula_sum   'Cs8 Ti4 Si24 O60'
_cell_volume   1498.76881076
_cell_formula_units_Z   4
loop_
 _symmetry_equiv_pos_site_id
 _symmetry_equiv_pos_as_xyz
  1  'x, y, z'
loop_
 _atom_site_type_symbol
 _atom_site_label
 _atom_site_symmetry_multiplicity
 _atom_site_fract_x
 _atom_site_fract_y
 _atom_site_fract_z
 _atom_site_occupancy
  Cs  Cs0  1  0.28207750  0.86282150  0.30655800  1
  Cs  Cs1  1  0.28207750  0.13717850  0.80655800  1
  Cs  Cs2  1  0.75802050  0.12926950  0.98119400  1
  Cs  Cs3  1  0.75802050  0.87073050  0.48119400  1
  Cs  Cs4  1  0.78207750  0.36282150  0.30655800  1
  Cs  Cs5  1  0.78207750  0.63717850  0.80655800  1
  Cs  Cs6  1  0.25802050  0.62926950  0.98119400  1
  Cs  Cs7  1  0.25802050  0.37073050  0.48119400  1
  Ti  Ti8  1  0.53791250  0.75918550  0.90055700  1
  Ti  Ti9  1  0.53791250  0.24081450  0.40055700  1
  Ti  Ti10  1  0.03791250  0.25918550  0.90055700  1
  Ti  Ti11  1  0.03791250  0.74081450  0.40055700  1
  Si  Si12  1  0.47965750  0.93149150  0.53959700  1
  Si  Si13  1  0.47965750  0.06850850  0.03959700  1
  Si  Si14  1  0.81819100  0.16325900  0.74065900  1
  Si  Si15  1  0.81819100  0.83674100  0.24065900  1
  Si  Si16  1  0.25229950  0.88128450  0.55332800  1
  Si  Si17  1  0.25229950  0.11871550  0.05332800  1
  Si  Si18  1  0.58431900  0.05453000  0.74366700  1
  Si  Si19  1  0.58431900  0.94547000  0.24366700  1
  Si  Si20  1  0.05042850  0.96887850  0.06259700  1
  Si  Si21  1  0.05042850  0.03112150  0.56259700  1
  Si  Si22  1  0.50031250  0.43387350  0.74955400  1
  Si  Si23  1  0.50031250  0.56612650  0.24955400  1
  Si  Si24  1  0.97965750  0.43149150  0.53959700  1
  Si  Si25  1  0.97965750  0.56850850  0.03959700  1
  Si  Si26  1  0.31819100  0.66325900  0.74065900  1
  Si  Si27  1  0.31819100  0.33674100  0.24065900  1
  Si  Si28  1  0.75229950  0.38128450  0.55332800  1
  Si  Si29  1  0.75229950  0.61871550  0.05332800  1
  Si  Si30  1  0.08431900  0.55453000  0.74366700  1
  Si  Si31  1  0.08431900  0.44547000  0.24366700  1
  Si  Si32  1  0.55042850  0.46887850  0.06259700  1
  Si  Si33  1  0.55042850  0.53112150  0.56259700  1
  Si  Si34  1  0.00031250  0.93387350  0.74955400  1
  Si  Si35  1  0.00031250  0.06612650  0.24955400  1
  O  O36  1  0.68887700  0.74372500  0.97328000  1
  O  O37  1  0.68887700  0.25627500  0.47328000  1
  O  O38  1  0.58535000  0.89779800  0.81271800  1
  O  O39  1  0.58535000  0.10220200  0.31271800  1
  O  O40  1  0.06081100  0.03648300  0.83937800  1
  O  O41  1  0.06081100  0.96351700  0.33937800  1
  O  O42  1  0.51647500  0.97348300  0.96078500  1
  O  O43  1  0.51647500  0.02651700  0.46078500  1
  O  O44  1  0.49300300  0.71892800  0.53053900  1
  O  O45  1  0.49300300  0.28107200  0.03053900  1
  O  O46  1  0.39197750  0.76478150  0.82587100  1
  O  O47  1  0.39197750  0.23521850  0.32587100  1
  O  O48  1  0.87113350  0.97408850  0.72293100  1
  O  O49  1  0.87113350  0.02591150  0.22293100  1
  O  O50  1  0.35358250  0.97284150  0.52787500  1
  O  O51  1  0.35358250  0.02715850  0.02787500  1
  O  O52  1  0.29762150  0.77839150  0.64868500  1
  O  O53  1  0.29762150  0.22160850  0.14868500  1
  O  O54  1  0.49636600  0.62135500  0.99403700  1
  O  O55  1  0.49636600  0.37864500  0.49403700  1
  O  O56  1  0.51001850  0.78088450  0.25892000  1
  O  O57  1  0.51001850  0.21911550  0.75892000  1
  O  O58  1  0.54811750  0.00811850  0.13921700  1
  O  O59  1  0.54811750  0.99188150  0.63921700  1
  O  O60  1  0.04599300  0.00618500  0.16576900  1
  O  O61  1  0.04599300  0.99381500  0.66576900  1
  O  O62  1  0.17848450  0.04719850  0.57004900  1
  O  O63  1  0.17848450  0.95280150  0.07004900  1
  O  O64  1  0.70595100  0.87338300  0.26279400  1
  O  O65  1  0.70595100  0.12661700  0.76279400  1
  O  O66  1  0.18887700  0.24372500  0.97328000  1
  O  O67  1  0.18887700  0.75627500  0.47328000  1
  O  O68  1  0.08535000  0.39779800  0.81271800  1
  O  O69  1  0.08535000  0.60220200  0.31271800  1
  O  O70  1  0.56081100  0.53648300  0.83937800  1
  O  O71  1  0.56081100  0.46351700  0.33937800  1
  O  O72  1  0.01647500  0.47348300  0.96078500  1
  O  O73  1  0.01647500  0.52651700  0.46078500  1
  O  O74  1  0.99300300  0.21892800  0.53053900  1
  O  O75  1  0.99300300  0.78107200  0.03053900  1
  O  O76  1  0.89197750  0.26478150  0.82587100  1
  O  O77  1  0.89197750  0.73521850  0.32587100  1
  O  O78  1  0.37113350  0.47408850  0.72293100  1
  O  O79  1  0.37113350  0.52591150  0.22293100  1
  O  O80  1  0.85358250  0.47284150  0.52787500  1
  O  O81  1  0.85358250  0.52715850  0.02787500  1
  O  O82  1  0.79762150  0.27839150  0.64868500  1
  O  O83  1  0.79762150  0.72160850  0.14868500  1
  O  O84  1  0.99636600  0.12135500  0.99403700  1
  O  O85  1  0.99636600  0.87864500  0.49403700  1
  O  O86  1  0.01001850  0.28088450  0.25892000  1
  O  O87  1  0.01001850  0.71911550  0.75892000  1
  O  O88  1  0.04811750  0.50811850  0.13921700  1
  O  O89  1  0.04811750  0.49188150  0.63921700  1
  O  O90  1  0.54599300  0.50618500  0.16576900  1
  O  O91  1  0.54599300  0.49381500  0.66576900  1
  O  O92  1  0.67848450  0.54719850  0.57004900  1
  O  O93  1  0.67848450  0.45280150  0.07004900  1
  O  O94  1  0.20595100  0.37338300  0.26279400  1
  O  O95  1  0.20595100  0.62661700  0.76279400  1
