# generated using pymatgen
data_SiO2
_symmetry_space_group_name_H-M   'P 1'
_cell_length_a   8.22132600
_cell_length_b   9.25518000
_cell_length_c   17.40620000
_cell_angle_alpha   90.00000000
_cell_angle_beta   90.00000000
_cell_angle_gamma   90.00000000
_symmetry_Int_Tables_number   1
_chemical_formula_structural   SiO2
_chemical_formula_sum   'Si24 O48'
_cell_volume   1324.43518134
_cell_formula_units_Z   24
loop_
 _symmetry_equiv_pos_site_id
 _symmetry_equiv_pos_as_xyz
  1  'x, y, z'
loop_
 _atom_site_type_symbol
 _atom_site_label
 _atom_site_symmetry_multiplicity
 _atom_site_fract_x
 _atom_site_fract_y
 _atom_site_fract_z
 _atom_site_occupancy
  Si  Si0  1  0.63476800  0.62987800  0.56874500  1
  Si  Si1  1  0.63476800  0.37012200  0.93125500  1
  Si  Si2  1  0.36523200  0.12987800  0.93125500  1
  Si  Si3  1  0.36523200  0.87012200  0.56874500  1
  Si  Si4  1  0.06343150  0.41182750  0.52814750  1
  Si  Si5  1  0.06343150  0.58817250  0.97185250  1
  Si  Si6  1  0.93656850  0.91182750  0.97185250  1
  Si  Si7  1  0.93656850  0.08817250  0.52814750  1
  Si  Si8  1  0.93569400  0.41279300  0.82973300  1
  Si  Si9  1  0.93569400  0.58720700  0.67026700  1
  Si  Si10  1  0.06430600  0.91279300  0.67026700  1
  Si  Si11  1  0.06430600  0.08720700  0.82973300  1
  Si  Si12  1  0.13476800  0.12987800  0.06874500  1
  Si  Si13  1  0.13476800  0.87012200  0.43125500  1
  Si  Si14  1  0.86523200  0.62987800  0.43125500  1
  Si  Si15  1  0.86523200  0.37012200  0.06874500  1
  Si  Si16  1  0.56343150  0.91182750  0.02814750  1
  Si  Si17  1  0.56343150  0.08817250  0.47185250  1
  Si  Si18  1  0.43656850  0.41182750  0.47185250  1
  Si  Si19  1  0.43656850  0.58817250  0.02814750  1
  Si  Si20  1  0.43569400  0.91279300  0.32973300  1
  Si  Si21  1  0.43569400  0.08720700  0.17026700  1
  Si  Si22  1  0.56430600  0.41279300  0.17026700  1
  Si  Si23  1  0.56430600  0.58720700  0.32973300  1
  O  O24  1  0.25000000  0.19554600  0.00000000  1
  O  O25  1  0.75000000  0.30445400  0.00000000  1
  O  O26  1  0.54743900  0.48157300  0.54012600  1
  O  O27  1  0.54743900  0.51842700  0.95987400  1
  O  O28  1  0.45256100  0.98157300  0.95987400  1
  O  O29  1  0.45256100  0.01842700  0.54012600  1
  O  O30  1  0.74585400  0.59105100  0.64300400  1
  O  O31  1  0.74585400  0.40894900  0.85699600  1
  O  O32  1  0.25414600  0.09105100  0.85699600  1
  O  O33  1  0.25414600  0.90894900  0.64300400  1
  O  O34  1  0.50000000  0.75000000  0.59242000  1
  O  O35  1  0.50000000  0.25000000  0.90758000  1
  O  O36  1  0.04953700  0.50973300  0.60557100  1
  O  O37  1  0.04953700  0.49026700  0.89442900  1
  O  O38  1  0.95046300  0.00973300  0.89442900  1
  O  O39  1  0.95046300  0.99026700  0.60557100  1
  O  O40  1  0.75000000  0.90555900  0.00000000  1
  O  O41  1  0.25000000  0.59444100  0.00000000  1
  O  O42  1  0.00000000  0.25000000  0.54690300  1
  O  O43  1  0.00000000  0.75000000  0.95309700  1
  O  O44  1  0.00000000  0.25000000  0.81566600  1
  O  O45  1  0.00000000  0.75000000  0.68433400  1
  O  O46  1  0.94861500  0.50000000  0.75000000  1
  O  O47  1  0.05138500  0.00000000  0.75000000  1
  O  O48  1  0.75000000  0.69554600  0.50000000  1
  O  O49  1  0.25000000  0.80445400  0.50000000  1
  O  O50  1  0.04743900  0.98157300  0.04012600  1
  O  O51  1  0.04743900  0.01842700  0.45987400  1
  O  O52  1  0.95256100  0.48157300  0.45987400  1
  O  O53  1  0.95256100  0.51842700  0.04012600  1
  O  O54  1  0.24585400  0.09105100  0.14300400  1
  O  O55  1  0.24585400  0.90894900  0.35699600  1
  O  O56  1  0.75414600  0.59105100  0.35699600  1
  O  O57  1  0.75414600  0.40894900  0.14300400  1
  O  O58  1  0.00000000  0.25000000  0.09242000  1
  O  O59  1  0.00000000  0.75000000  0.40758000  1
  O  O60  1  0.54953700  0.00973300  0.10557100  1
  O  O61  1  0.54953700  0.99026700  0.39442900  1
  O  O62  1  0.45046300  0.50973300  0.39442900  1
  O  O63  1  0.45046300  0.49026700  0.10557100  1
  O  O64  1  0.25000000  0.40555900  0.50000000  1
  O  O65  1  0.75000000  0.09444100  0.50000000  1
  O  O66  1  0.50000000  0.75000000  0.04690300  1
  O  O67  1  0.50000000  0.25000000  0.45309700  1
  O  O68  1  0.50000000  0.75000000  0.31566600  1
  O  O69  1  0.50000000  0.25000000  0.18433400  1
  O  O70  1  0.44861500  0.00000000  0.25000000  1
  O  O71  1  0.55138500  0.50000000  0.25000000  1
