# generated using pymatgen
data_Ba4Er3F17
_symmetry_space_group_name_H-M   'P 1'
_cell_length_a   9.35810200
_cell_length_b   9.39146363
_cell_length_c   9.39978577
_cell_angle_alpha   72.69454020
_cell_angle_beta   72.85552577
_cell_angle_gamma   72.97161650
_symmetry_Int_Tables_number   1
_chemical_formula_structural   Ba4Er3F17
_chemical_formula_sum   'Ba8 Er6 F34'
_cell_volume   734.36535968
_cell_formula_units_Z   2
loop_
 _symmetry_equiv_pos_site_id
 _symmetry_equiv_pos_as_xyz
  1  'x, y, z'
loop_
 _atom_site_type_symbol
 _atom_site_label
 _atom_site_symmetry_multiplicity
 _atom_site_fract_x
 _atom_site_fract_y
 _atom_site_fract_z
 _atom_site_occupancy
  Ba  Ba0  1  0.88640300  0.05388500  0.31371900  1
  Ba  Ba1  1  0.26737000  0.26689200  0.26709200  1
  Ba  Ba2  1  0.05583600  0.31414700  0.88568300  1
  Ba  Ba3  1  0.68609400  0.11337300  0.94557700  1
  Ba  Ba4  1  0.31304700  0.88567600  0.05647900  1
  Ba  Ba5  1  0.94463700  0.68692000  0.11462100  1
  Ba  Ba6  1  0.73361900  0.73282100  0.73207000  1
  Ba  Ba7  1  0.11421100  0.94369400  0.68611800  1
  Er  Er8  1  0.46840700  0.16434500  0.60843700  1
  Er  Er9  1  0.60751300  0.46939300  0.16635800  1
  Er  Er10  1  0.83674400  0.39216500  0.53112500  1
  Er  Er11  1  0.18196200  0.60813300  0.46963600  1
  Er  Er12  1  0.39123900  0.53268100  0.82695900  1
  Er  Er13  1  0.52741400  0.82215000  0.39492000  1
  F  F14  1  0.99992400  0.00037000  0.99972800  1
  F  F15  1  0.45425200  0.01180500  0.18509600  1
  F  F16  1  0.13898600  0.13960700  0.13878200  1
  F  F17  1  0.36387100  0.04083100  0.48966400  1
  F  F18  1  0.01148900  0.18553500  0.45417400  1
  F  F19  1  0.26658600  0.08549900  0.77931000  1
  F  F20  1  0.18565300  0.45378100  0.01175800  1
  F  F21  1  0.48947000  0.36416400  0.03979700  1
  F  F22  1  0.77849500  0.26752700  0.08590600  1
  F  F23  1  0.54666100  0.26252900  0.34982100  1
  F  F24  1  0.69934300  0.20624400  0.58930200  1
  F  F25  1  0.26056400  0.34660900  0.54757500  1
  F  F26  1  0.04071200  0.48841700  0.36385200  1
  F  F27  1  0.41026600  0.29873500  0.79563000  1
  F  F28  1  0.91445000  0.22096000  0.73297700  1
  F  F29  1  0.34810600  0.54650100  0.25624000  1
  F  F30  1  0.79447700  0.41073500  0.30045500  1
  F  F31  1  0.45272500  0.55410700  0.49812900  1
  F  F32  1  0.19397800  0.59136800  0.70915400  1
  F  F33  1  0.65118900  0.45300000  0.73795000  1
  F  F34  1  0.08610900  0.77785700  0.26767900  1
  F  F35  1  0.59140600  0.70189400  0.19978500  1
  F  F36  1  0.95970100  0.51029000  0.63608000  1
  F  F37  1  0.73984300  0.65009000  0.45348200  1
  F  F38  1  0.28799100  0.81442900  0.40391600  1
  F  F39  1  0.45289500  0.74545700  0.65651100  1
  F  F40  1  0.22122600  0.73287200  0.91440200  1
  F  F41  1  0.51095000  0.63607300  0.95924800  1
  F  F42  1  0.81453000  0.54594100  0.98827300  1
  F  F43  1  0.73181400  0.91335300  0.22236000  1
  F  F44  1  0.98819500  0.81469600  0.54628900  1
  F  F45  1  0.63601600  0.95982400  0.51125200  1
  F  F46  1  0.86045300  0.86120600  0.86092400  1
  F  F47  1  0.54607800  0.98832100  0.81460700  1
