# generated using pymatgen
data_CaMg(CO3)2
_symmetry_space_group_name_H-M   'P 1'
_cell_length_a   4.87221175
_cell_length_b   4.87221175
_cell_length_c   16.18871626
_cell_angle_alpha   90.00000000
_cell_angle_beta   90.00000000
_cell_angle_gamma   120.00000000
_symmetry_Int_Tables_number   1
_chemical_formula_structural   CaMg(CO3)2
_chemical_formula_sum   'Ca3 Mg3 C6 O18'
_cell_volume   332.80922221
_cell_formula_units_Z   3
loop_
 _symmetry_equiv_pos_site_id
 _symmetry_equiv_pos_as_xyz
  1  'x, y, z'
loop_
 _atom_site_type_symbol
 _atom_site_label
 _atom_site_symmetry_multiplicity
 _atom_site_fract_x
 _atom_site_fract_y
 _atom_site_fract_z
 _atom_site_occupancy
  Ca  Ca0  1  0.00000000  0.00000000  0.00000000  1
  Ca  Ca1  1  0.66666667  0.33333333  0.33333333  1
  Ca  Ca2  1  0.33333333  0.66666667  0.66666667  1
  Mg  Mg3  1  0.33333333  0.66666667  0.16666667  1
  Mg  Mg4  1  1.00000000  0.00000000  0.50000000  1
  Mg  Mg5  1  0.66666667  0.33333333  0.83333333  1
  C  C6  1  0.00000000  0.00000000  0.24298300  1
  C  C7  1  0.66666667  0.33333333  0.09035033  1
  C  C8  1  0.66666667  0.33333333  0.57631633  1
  C  C9  1  0.33333333  0.66666667  0.42368367  1
  C  C10  1  0.33333333  0.66666667  0.90964967  1
  C  C11  1  0.00000000  0.00000000  0.75701700  1
  O  O12  1  0.03346367  0.28145733  0.24399133  1
  O  O13  1  0.71854267  0.75200633  0.24399133  1
  O  O14  1  0.24799367  0.96653633  0.24399133  1
  O  O15  1  0.63320300  0.05187600  0.08934200  1
  O  O16  1  0.94812400  0.58132700  0.08934200  1
  O  O17  1  0.41867300  0.36679700  0.08934200  1
  O  O18  1  0.70013033  0.61479067  0.57732467  1
  O  O19  1  0.38520933  0.08533967  0.57732467  1
  O  O20  1  0.91466033  0.29986967  0.57732467  1
  O  O21  1  0.29986967  0.38520933  0.42267533  1
  O  O22  1  0.61479067  0.91466033  0.42267533  1
  O  O23  1  0.08533967  0.70013033  0.42267533  1
  O  O24  1  0.36679700  0.94812400  0.91065800  1
  O  O25  1  0.05187600  0.41867300  0.91065800  1
  O  O26  1  0.58132700  0.63320300  0.91065800  1
  O  O27  1  0.96653633  0.71854267  0.75600867  1
  O  O28  1  0.28145733  0.24799367  0.75600867  1
  O  O29  1  0.75200633  0.03346367  0.75600867  1
