# generated using pymatgen
data_NaCaSiHO4
_symmetry_space_group_name_H-M   'P 1'
_cell_length_a   5.46208500
_cell_length_b   7.11392700
_cell_length_c   5.52931346
_cell_angle_alpha   90.00000000
_cell_angle_beta   116.60976572
_cell_angle_gamma   90.00000000
_symmetry_Int_Tables_number   1
_chemical_formula_structural   NaCaSiHO4
_chemical_formula_sum   'Na2 Ca2 Si2 H2 O8'
_cell_volume   192.09427980
_cell_formula_units_Z   2
loop_
 _symmetry_equiv_pos_site_id
 _symmetry_equiv_pos_as_xyz
  1  'x, y, z'
loop_
 _atom_site_type_symbol
 _atom_site_label
 _atom_site_symmetry_multiplicity
 _atom_site_fract_x
 _atom_site_fract_y
 _atom_site_fract_z
 _atom_site_occupancy
  Na  Na0  1  0.63778700  0.23318500  0.25993700  1
  Na  Na1  1  0.36221300  0.73318500  0.74006300  1
  Ca  Ca2  1  0.00355800  0.48727500  0.99420600  1
  Ca  Ca3  1  0.99644200  0.98727500  0.00579400  1
  Si  Si4  1  0.34063900  0.24514900  0.62600400  1
  Si  Si5  1  0.65936100  0.74514900  0.37399600  1
  H  H6  1  0.03631700  0.99928600  0.53021800  1
  H  H7  1  0.96368300  0.49928600  0.46978200  1
  O  O8  1  0.67285000  0.23788200  0.80402800  1
  O  O9  1  0.32715000  0.73788200  0.19597200  1
  O  O10  1  0.23417700  0.24025800  0.29735700  1
  O  O11  1  0.76582300  0.74025800  0.70264300  1
  O  O12  1  0.20558400  0.42546700  0.70978700  1
  O  O13  1  0.79441600  0.92546700  0.29021300  1
  O  O14  1  0.20832000  0.04849800  0.70201400  1
  O  O15  1  0.79168000  0.54849800  0.29798600  1
