# generated using pymatgen
data_Cs3Bi2I9
_symmetry_space_group_name_H-M   'P 1'
_cell_length_a   8.66993200
_cell_length_b   14.96934800
_cell_length_c   22.00995998
_cell_angle_alpha   90.00000000
_cell_angle_beta   91.10362966
_cell_angle_gamma   90.00000000
_symmetry_Int_Tables_number   1
_chemical_formula_structural   Cs3Bi2I9
_chemical_formula_sum   'Cs12 Bi8 I36'
_cell_volume   2855.99377941
_cell_formula_units_Z   4
loop_
 _symmetry_equiv_pos_site_id
 _symmetry_equiv_pos_as_xyz
  1  'x, y, z'
loop_
 _atom_site_type_symbol
 _atom_site_label
 _atom_site_symmetry_multiplicity
 _atom_site_fract_x
 _atom_site_fract_y
 _atom_site_fract_z
 _atom_site_occupancy
  Cs  Cs0  1  0.50000000  0.50278300  0.75000000  1
  Cs  Cs1  1  0.49857500  0.83215200  0.42255300  1
  Cs  Cs2  1  0.50000000  0.49721700  0.25000000  1
  Cs  Cs3  1  0.49857500  0.16784800  0.92255300  1
  Cs  Cs4  1  0.50142500  0.16784800  0.57744700  1
  Cs  Cs5  1  0.50142500  0.83215200  0.07744700  1
  Cs  Cs6  1  0.00000000  0.00278300  0.75000000  1
  Cs  Cs7  1  0.99857500  0.33215200  0.42255300  1
  Cs  Cs8  1  0.00000000  0.99721700  0.25000000  1
  Cs  Cs9  1  0.99857500  0.66784800  0.92255300  1
  Cs  Cs10  1  0.00142500  0.66784800  0.57744700  1
  Cs  Cs11  1  0.00142500  0.33215200  0.07744700  1
  Bi  Bi12  1  0.48879250  0.83477050  0.84424200  1
  Bi  Bi13  1  0.51120750  0.16522950  0.15575800  1
  Bi  Bi14  1  0.48879250  0.16522950  0.34424200  1
  Bi  Bi15  1  0.51120750  0.83477050  0.65575800  1
  Bi  Bi16  1  0.98879250  0.33477050  0.84424200  1
  Bi  Bi17  1  0.01120750  0.66522950  0.15575800  1
  Bi  Bi18  1  0.98879250  0.66522950  0.34424200  1
  Bi  Bi19  1  0.01120750  0.33477050  0.65575800  1
  I  I20  1  0.73081650  0.08301750  0.42495100  1
  I  I21  1  0.26918350  0.91698250  0.57504900  1
  I  I22  1  0.74771900  0.25166900  0.74318300  1
  I  I23  1  0.52018650  0.33379950  0.08287400  1
  I  I24  1  0.52018650  0.66620050  0.58287400  1
  I  I25  1  0.73081650  0.91698250  0.92495100  1
  I  I26  1  0.47981350  0.66620050  0.91712600  1
  I  I27  1  0.23071400  0.92060600  0.91065700  1
  I  I28  1  0.25228100  0.74833100  0.25681700  1
  I  I29  1  0.25228100  0.25166900  0.75681700  1
  I  I30  1  0.47981350  0.33379950  0.41712600  1
  I  I31  1  0.74771900  0.74833100  0.24318300  1
  I  I32  1  0.50000000  0.00280700  0.75000000  1
  I  I33  1  0.76928600  0.92060600  0.58934300  1
  I  I34  1  0.23071400  0.07939400  0.41065700  1
  I  I35  1  0.76928600  0.07939400  0.08934300  1
  I  I36  1  0.50000000  0.99719300  0.25000000  1
  I  I37  1  0.26918350  0.08301750  0.07504900  1
  I  I38  1  0.23081650  0.58301750  0.42495100  1
  I  I39  1  0.76918350  0.41698250  0.57504900  1
  I  I40  1  0.24771900  0.75166900  0.74318300  1
  I  I41  1  0.02018650  0.83379950  0.08287400  1
  I  I42  1  0.02018650  0.16620050  0.58287400  1
  I  I43  1  0.23081650  0.41698250  0.92495100  1
  I  I44  1  0.97981350  0.16620050  0.91712600  1
  I  I45  1  0.73071400  0.42060600  0.91065700  1
  I  I46  1  0.75228100  0.24833100  0.25681700  1
  I  I47  1  0.75228100  0.75166900  0.75681700  1
  I  I48  1  0.97981350  0.83379950  0.41712600  1
  I  I49  1  0.24771900  0.24833100  0.24318300  1
  I  I50  1  0.00000000  0.50280700  0.75000000  1
  I  I51  1  0.26928600  0.42060600  0.58934300  1
  I  I52  1  0.73071400  0.57939400  0.41065700  1
  I  I53  1  0.26928600  0.57939400  0.08934300  1
  I  I54  1  0.00000000  0.49719300  0.25000000  1
  I  I55  1  0.76918350  0.58301750  0.07504900  1
