# generated using pymatgen
data_PrYSi2O7
_symmetry_space_group_name_H-M   'P 1'
_cell_length_a   6.49550600
_cell_length_b   9.04308300
_cell_length_c   12.61032060
_cell_angle_alpha   90.00000000
_cell_angle_beta   114.04425493
_cell_angle_gamma   90.00000000
_symmetry_Int_Tables_number   1
_chemical_formula_structural   PrYSi2O7
_chemical_formula_sum   'Pr4 Y4 Si8 O28'
_cell_volume   676.45091763
_cell_formula_units_Z   4
loop_
 _symmetry_equiv_pos_site_id
 _symmetry_equiv_pos_as_xyz
  1  'x, y, z'
loop_
 _atom_site_type_symbol
 _atom_site_label
 _atom_site_symmetry_multiplicity
 _atom_site_fract_x
 _atom_site_fract_y
 _atom_site_fract_z
 _atom_site_occupancy
  Pr  Pr0  1  0.49348000  0.35652700  0.70969500  1
  Pr  Pr1  1  0.50652000  0.64347300  0.29030500  1
  Pr  Pr2  1  0.49348000  0.14347300  0.20969500  1
  Pr  Pr3  1  0.50652000  0.85652700  0.79030500  1
  Y  Y4  1  0.13704900  0.36634600  0.36938600  1
  Y  Y5  1  0.86295100  0.63365400  0.63061400  1
  Y  Y6  1  0.13704900  0.13365400  0.86938600  1
  Y  Y7  1  0.86295100  0.86634600  0.13061400  1
  Si  Si8  1  0.08187500  0.09969600  0.56430600  1
  Si  Si9  1  0.69265800  0.17647500  0.97765300  1
  Si  Si10  1  0.08187500  0.40030400  0.06430600  1
  Si  Si11  1  0.30734200  0.82352500  0.02234700  1
  Si  Si12  1  0.30734200  0.67647500  0.52234700  1
  Si  Si13  1  0.69265800  0.32352500  0.47765300  1
  Si  Si14  1  0.91812500  0.90030400  0.43569400  1
  Si  Si15  1  0.91812500  0.59969600  0.93569400  1
  O  O16  1  0.76545100  0.77604800  0.46872500  1
  O  O17  1  0.53680900  0.75108700  0.12053500  1
  O  O18  1  0.46319100  0.25108700  0.37946500  1
  O  O19  1  0.66498500  0.07697700  0.08044500  1
  O  O20  1  0.22272700  0.05161400  0.70071400  1
  O  O21  1  0.53680900  0.74891300  0.62053500  1
  O  O22  1  0.85560400  0.30917000  0.05301000  1
  O  O23  1  0.80524300  0.06170600  0.91208200  1
  O  O24  1  0.22272700  0.44838600  0.20071400  1
  O  O25  1  0.14439600  0.80917000  0.44699000  1
  O  O26  1  0.23454900  0.27604800  0.03127500  1
  O  O27  1  0.20923500  0.69155800  0.74550700  1
  O  O28  1  0.80524300  0.43829400  0.41208200  1
  O  O29  1  0.76545100  0.72395200  0.96872500  1
  O  O30  1  0.77727300  0.94838600  0.29928600  1
  O  O31  1  0.19475700  0.56170600  0.58791800  1
  O  O32  1  0.46319100  0.24891300  0.87946500  1
  O  O33  1  0.33501500  0.57697700  0.41955500  1
  O  O34  1  0.19475700  0.93829400  0.08791800  1
  O  O35  1  0.79076500  0.30844200  0.25449300  1
  O  O36  1  0.20923500  0.80844200  0.24550700  1
  O  O37  1  0.14439600  0.69083000  0.94699000  1
  O  O38  1  0.23454900  0.22395200  0.53127500  1
  O  O39  1  0.77727300  0.55161400  0.79928600  1
  O  O40  1  0.85560400  0.19083000  0.55301000  1
  O  O41  1  0.66498500  0.42302300  0.58044500  1
  O  O42  1  0.33501500  0.92302300  0.91955500  1
  O  O43  1  0.79076500  0.19155800  0.75449300  1
