# generated using pymatgen
data_Ba2(InP)5
_symmetry_space_group_name_H-M   'P 1'
_cell_length_a   4.23136100
_cell_length_b   17.49426300
_cell_length_c   17.71833300
_cell_angle_alpha   90.00000000
_cell_angle_beta   90.00000000
_cell_angle_gamma   90.00000000
_symmetry_Int_Tables_number   1
_chemical_formula_structural   Ba2(InP)5
_chemical_formula_sum   'Ba8 In20 P20'
_cell_volume   1311.59148855
_cell_formula_units_Z   4
loop_
 _symmetry_equiv_pos_site_id
 _symmetry_equiv_pos_as_xyz
  1  'x, y, z'
loop_
 _atom_site_type_symbol
 _atom_site_label
 _atom_site_symmetry_multiplicity
 _atom_site_fract_x
 _atom_site_fract_y
 _atom_site_fract_z
 _atom_site_occupancy
  Ba  Ba0  1  0.75000000  0.98034300  0.37904700  1
  Ba  Ba1  1  0.75000000  0.95758600  0.87038800  1
  Ba  Ba2  1  0.75000000  0.45758600  0.62961200  1
  Ba  Ba3  1  0.25000000  0.51965700  0.87904700  1
  Ba  Ba4  1  0.25000000  0.04241400  0.12961200  1
  Ba  Ba5  1  0.75000000  0.48034300  0.12095300  1
  Ba  Ba6  1  0.25000000  0.01965700  0.62095300  1
  Ba  Ba7  1  0.25000000  0.54241400  0.37038800  1
  In  In8  1  0.25000000  0.15665000  0.81020100  1
  In  In9  1  0.75000000  0.32862200  0.94100500  1
  In  In10  1  0.25000000  0.67137800  0.05899500  1
  In  In11  1  0.75000000  0.21054600  0.62609000  1
  In  In12  1  0.75000000  0.66931400  0.52744500  1
  In  In13  1  0.25000000  0.17137800  0.44100500  1
  In  In14  1  0.25000000  0.83068600  0.02744500  1
  In  In15  1  0.75000000  0.34335000  0.31020100  1
  In  In16  1  0.25000000  0.28945400  0.12609000  1
  In  In17  1  0.75000000  0.16931400  0.97255500  1
  In  In18  1  0.75000000  0.68616000  0.22354400  1
  In  In19  1  0.75000000  0.82862200  0.55899500  1
  In  In20  1  0.25000000  0.31384000  0.77645600  1
  In  In21  1  0.25000000  0.78945400  0.37391000  1
  In  In22  1  0.75000000  0.71054600  0.87391000  1
  In  In23  1  0.75000000  0.18616000  0.27645600  1
  In  In24  1  0.25000000  0.81384000  0.72354400  1
  In  In25  1  0.25000000  0.65665000  0.68979900  1
  In  In26  1  0.25000000  0.33068600  0.47255500  1
  In  In27  1  0.75000000  0.84335000  0.18979900  1
  P  P28  1  0.25000000  0.30257100  0.62479700  1
  P  P29  1  0.25000000  0.89207800  0.26492300  1
  P  P30  1  0.25000000  0.58308200  0.55872500  1
  P  P31  1  0.75000000  0.60792200  0.76492300  1
  P  P32  1  0.75000000  0.11518400  0.51161400  1
  P  P33  1  0.75000000  0.89623900  0.69140400  1
  P  P34  1  0.75000000  0.39623900  0.80859600  1
  P  P35  1  0.75000000  0.41691800  0.44127500  1
  P  P36  1  0.25000000  0.08308200  0.94127500  1
  P  P37  1  0.25000000  0.39207800  0.23507700  1
  P  P38  1  0.75000000  0.10792200  0.73507700  1
  P  P39  1  0.25000000  0.88481600  0.48838600  1
  P  P40  1  0.75000000  0.91691800  0.05872500  1
  P  P41  1  0.75000000  0.69742900  0.37520300  1
  P  P42  1  0.25000000  0.38481600  0.01161400  1
  P  P43  1  0.25000000  0.60376100  0.19140400  1
  P  P44  1  0.75000000  0.61518400  0.98838600  1
  P  P45  1  0.75000000  0.19742900  0.12479700  1
  P  P46  1  0.25000000  0.80257100  0.87520300  1
  P  P47  1  0.25000000  0.10376100  0.30859600  1
