# generated using pymatgen
data_NaIn(MoO4)2
_symmetry_space_group_name_H-M   'P 1'
_cell_length_a   7.28533300
_cell_length_b   7.29128389
_cell_length_c   15.06391775
_cell_angle_alpha   92.00528379
_cell_angle_beta   92.01778798
_cell_angle_gamma   99.11317623
_symmetry_Int_Tables_number   1
_chemical_formula_structural   NaIn(MoO4)2
_chemical_formula_sum   'Na4 In4 Mo8 O32'
_cell_volume   788.92882984
_cell_formula_units_Z   4
loop_
 _symmetry_equiv_pos_site_id
 _symmetry_equiv_pos_as_xyz
  1  'x, y, z'
loop_
 _atom_site_type_symbol
 _atom_site_label
 _atom_site_symmetry_multiplicity
 _atom_site_fract_x
 _atom_site_fract_y
 _atom_site_fract_z
 _atom_site_occupancy
  Na  Na0  1  0.48164400  0.31770900  0.12639000  1
  Na  Na1  1  0.51835600  0.68229100  0.87361000  1
  Na  Na2  1  0.03696900  0.69517000  0.62012700  1
  Na  Na3  1  0.96303100  0.30483000  0.37987300  1
  In  In4  1  0.32364100  0.69332700  0.38935600  1
  In  In5  1  0.67635900  0.30667300  0.61064400  1
  In  In6  1  0.81383600  0.72099500  0.08639900  1
  In  In7  1  0.18616400  0.27900500  0.91360100  1
  Mo  Mo8  1  0.47141600  0.23702800  0.38258900  1
  Mo  Mo9  1  0.52858400  0.76297200  0.61741100  1
  Mo  Mo10  1  0.33504800  0.76919500  0.13901300  1
  Mo  Mo11  1  0.95174100  0.24653300  0.11428200  1
  Mo  Mo12  1  0.04825900  0.75346700  0.88571800  1
  Mo  Mo13  1  0.84301300  0.76771100  0.34931200  1
  Mo  Mo14  1  0.15698700  0.23228900  0.65068800  1
  Mo  Mo15  1  0.66495200  0.23080500  0.86098700  1
  O  O16  1  0.61885600  0.68010700  0.39144400  1
  O  O17  1  0.41781200  0.71298700  0.71698600  1
  O  O18  1  0.39710500  0.00738600  0.15656300  1
  O  O19  1  0.34083100  0.71860400  0.53224400  1
  O  O20  1  0.38114400  0.31989300  0.60855600  1
  O  O21  1  0.70412100  0.61328200  0.60179400  1
  O  O22  1  0.97876000  0.36538900  0.60973000  1
  O  O23  1  0.82617000  0.75710100  0.22960300  1
  O  O24  1  0.01578600  0.24033000  0.22623600  1
  O  O25  1  0.31628400  0.66069200  0.24492500  1
  O  O26  1  0.88843100  0.27215600  0.92083400  1
  O  O27  1  0.17264100  0.30544500  0.05819400  1
  O  O28  1  0.48767400  0.32480800  0.92520300  1
  O  O29  1  0.82671800  0.02001000  0.07941400  1
  O  O30  1  0.90664900  0.99551900  0.38922100  1
  O  O31  1  0.11156900  0.72784400  0.07916600  1
  O  O32  1  0.36170900  0.99643000  0.38186400  1
  O  O33  1  0.58218800  0.28701300  0.28301400  1
  O  O34  1  0.65916900  0.28139600  0.46775600  1
  O  O35  1  0.60289500  0.99261400  0.84343700  1
  O  O36  1  0.20239300  0.57970100  0.89743800  1
  O  O37  1  0.02124000  0.63461100  0.39027000  1
  O  O38  1  0.79760700  0.42029900  0.10256200  1
  O  O39  1  0.68371600  0.33930800  0.75507500  1
  O  O40  1  0.98421400  0.75967000  0.77376400  1
  O  O41  1  0.63829100  0.00357000  0.61813600  1
  O  O42  1  0.17328200  0.97999000  0.92058600  1
  O  O43  1  0.51232600  0.67519200  0.07479700  1
  O  O44  1  0.29587900  0.38671800  0.39820600  1
  O  O45  1  0.09335100  0.00448100  0.61077900  1
  O  O46  1  0.17383000  0.24289900  0.77039700  1
  O  O47  1  0.82735900  0.69455500  0.94180600  1
