# generated using pymatgen
data_NaCaGaSi2O7
_symmetry_space_group_name_H-M   'P 1'
_cell_length_a   7.26540300
_cell_length_b   9.57427000
_cell_length_c   10.82284400
_cell_angle_alpha   90.00000000
_cell_angle_beta   90.00000000
_cell_angle_gamma   90.00000000
_symmetry_Int_Tables_number   1
_chemical_formula_structural   NaCaGaSi2O7
_chemical_formula_sum   'Na4 Ca4 Ga4 Si8 O28'
_cell_volume   752.84709368
_cell_formula_units_Z   4
loop_
 _symmetry_equiv_pos_site_id
 _symmetry_equiv_pos_as_xyz
  1  'x, y, z'
loop_
 _atom_site_type_symbol
 _atom_site_label
 _atom_site_symmetry_multiplicity
 _atom_site_fract_x
 _atom_site_fract_y
 _atom_site_fract_z
 _atom_site_occupancy
  Na  Na0  1  0.35779200  0.98390100  0.33907200  1
  Na  Na1  1  0.64220800  0.48390100  0.16092800  1
  Na  Na2  1  0.85779200  0.51609900  0.66092800  1
  Na  Na3  1  0.14220800  0.01609900  0.83907200  1
  Ca  Ca4  1  0.32249900  0.60834000  0.75118600  1
  Ca  Ca5  1  0.67750100  0.10834000  0.74881400  1
  Ca  Ca6  1  0.82249900  0.89166000  0.24881400  1
  Ca  Ca7  1  0.17750100  0.39166000  0.25118600  1
  Ga  Ga8  1  0.78781200  0.64202000  0.94592000  1
  Ga  Ga9  1  0.71218800  0.35798000  0.44592000  1
  Ga  Ga10  1  0.28781200  0.85798000  0.05408000  1
  Ga  Ga11  1  0.21218800  0.14202000  0.55408000  1
  Si  Si12  1  0.01037100  0.33602400  0.89500400  1
  Si  Si13  1  0.95287700  0.14027900  0.10861600  1
  Si  Si14  1  0.98962900  0.83602400  0.60499600  1
  Si  Si15  1  0.04712300  0.64027900  0.39138400  1
  Si  Si16  1  0.45287700  0.35972100  0.89138400  1
  Si  Si17  1  0.51037100  0.16397600  0.10499600  1
  Si  Si18  1  0.54712300  0.85972100  0.60861600  1
  Si  Si19  1  0.48962900  0.66397600  0.39500400  1
  O  O20  1  0.50676800  0.20710700  0.95358800  1
  O  O21  1  0.51781800  0.50602000  0.94708100  1
  O  O22  1  0.43777600  0.29773200  0.17996400  1
  O  O23  1  0.46086500  0.95176000  0.82960000  1
  O  O24  1  0.54364700  0.32530000  0.75039600  1
  O  O25  1  0.76964500  0.87127600  0.63796800  1
  O  O26  1  0.59249600  0.51813500  0.36874100  1
  O  O27  1  0.23035500  0.37127600  0.86203200  1
  O  O28  1  0.40750400  0.01813500  0.13125900  1
  O  O29  1  0.56222400  0.79773200  0.32003600  1
  O  O30  1  0.53913500  0.45176000  0.67040000  1
  O  O31  1  0.48218200  0.00602000  0.55291900  1
  O  O32  1  0.45635300  0.82530000  0.74960400  1
  O  O33  1  0.49323200  0.70710700  0.54641200  1
  O  O34  1  0.00676800  0.29289300  0.04641200  1
  O  O35  1  0.01781800  0.99398000  0.05291900  1
  O  O36  1  0.04364700  0.17470000  0.24960400  1
  O  O37  1  0.96086500  0.54824000  0.17040000  1
  O  O38  1  0.93777600  0.20226800  0.82003600  1
  O  O39  1  0.09249600  0.98186500  0.63125900  1
  O  O40  1  0.26964500  0.62872400  0.36203200  1
  O  O41  1  0.90750400  0.48186500  0.86874100  1
  O  O42  1  0.73035500  0.12872400  0.13796800  1
  O  O43  1  0.95635300  0.67470000  0.25039600  1
  O  O44  1  0.98218200  0.49398000  0.44708100  1
  O  O45  1  0.03913500  0.04824000  0.32960000  1
  O  O46  1  0.06222400  0.70226800  0.67996400  1
  O  O47  1  0.99323200  0.79289300  0.45358800  1
