# generated using pymatgen
data_Er2O3
_symmetry_space_group_name_H-M   'P 1'
_cell_length_a   10.55048600
_cell_length_b   10.55048600
_cell_length_c   10.55048600
_cell_angle_alpha   90.00000000
_cell_angle_beta   90.00000000
_cell_angle_gamma   90.00000000
_symmetry_Int_Tables_number   1
_chemical_formula_structural   Er2O3
_chemical_formula_sum   'Er32 O48'
_cell_volume   1174.40366152
_cell_formula_units_Z   16
loop_
 _symmetry_equiv_pos_site_id
 _symmetry_equiv_pos_as_xyz
  1  'x, y, z'
loop_
 _atom_site_type_symbol
 _atom_site_label
 _atom_site_symmetry_multiplicity
 _atom_site_fract_x
 _atom_site_fract_y
 _atom_site_fract_z
 _atom_site_occupancy
  Er  Er0  1  0.50000000  0.75000000  0.28294500  1
  Er  Er1  1  0.21705500  0.50000000  0.25000000  1
  Er  Er2  1  0.25000000  0.21705500  0.50000000  1
  Er  Er3  1  0.28294500  0.50000000  0.75000000  1
  Er  Er4  1  0.75000000  0.28294500  0.50000000  1
  Er  Er5  1  0.50000000  0.25000000  0.21705500  1
  Er  Er6  1  0.00000000  0.75000000  0.21705500  1
  Er  Er7  1  0.28294500  0.00000000  0.25000000  1
  Er  Er8  1  0.25000000  0.28294500  0.00000000  1
  Er  Er9  1  0.21705500  0.00000000  0.75000000  1
  Er  Er10  1  0.75000000  0.21705500  0.00000000  1
  Er  Er11  1  0.00000000  0.25000000  0.28294500  1
  Er  Er12  1  0.00000000  0.50000000  0.00000000  1
  Er  Er13  1  0.50000000  0.00000000  0.00000000  1
  Er  Er14  1  0.00000000  0.00000000  0.50000000  1
  Er  Er15  1  0.00000000  0.00000000  0.00000000  1
  Er  Er16  1  0.00000000  0.25000000  0.78294500  1
  Er  Er17  1  0.71705500  0.00000000  0.75000000  1
  Er  Er18  1  0.75000000  0.71705500  0.00000000  1
  Er  Er19  1  0.78294500  0.00000000  0.25000000  1
  Er  Er20  1  0.25000000  0.78294500  0.00000000  1
  Er  Er21  1  0.00000000  0.75000000  0.71705500  1
  Er  Er22  1  0.50000000  0.25000000  0.71705500  1
  Er  Er23  1  0.78294500  0.50000000  0.75000000  1
  Er  Er24  1  0.75000000  0.78294500  0.50000000  1
  Er  Er25  1  0.71705500  0.50000000  0.25000000  1
  Er  Er26  1  0.25000000  0.71705500  0.50000000  1
  Er  Er27  1  0.50000000  0.75000000  0.78294500  1
  Er  Er28  1  0.50000000  0.00000000  0.50000000  1
  Er  Er29  1  0.00000000  0.50000000  0.50000000  1
  Er  Er30  1  0.50000000  0.50000000  0.00000000  1
  Er  Er31  1  0.50000000  0.50000000  0.50000000  1
  O  O32  1  0.14113150  0.87020950  0.59816150  1
  O  O33  1  0.35886850  0.87020950  0.40183850  1
  O  O34  1  0.14113150  0.12979050  0.90183850  1
  O  O35  1  0.12979050  0.09816150  0.35886850  1
  O  O36  1  0.09816150  0.35886850  0.12979050  1
  O  O37  1  0.59816150  0.14113150  0.87020950  1
  O  O38  1  0.87020950  0.40183850  0.35886850  1
  O  O39  1  0.90183850  0.14113150  0.12979050  1
  O  O40  1  0.87020950  0.59816150  0.14113150  1
  O  O41  1  0.40183850  0.35886850  0.87020950  1
  O  O42  1  0.12979050  0.90183850  0.14113150  1
  O  O43  1  0.35886850  0.12979050  0.09816150  1
  O  O44  1  0.35886850  0.62979050  0.90183850  1
  O  O45  1  0.14113150  0.62979050  0.09816150  1
  O  O46  1  0.35886850  0.37020950  0.59816150  1
  O  O47  1  0.37020950  0.40183850  0.14113150  1
  O  O48  1  0.14113150  0.37020950  0.40183850  1
  O  O49  1  0.37020950  0.59816150  0.35886850  1
  O  O50  1  0.09816150  0.14113150  0.62979050  1
  O  O51  1  0.62979050  0.90183850  0.35886850  1
  O  O52  1  0.59816150  0.35886850  0.37020950  1
  O  O53  1  0.62979050  0.09816150  0.14113150  1
  O  O54  1  0.90183850  0.35886850  0.62979050  1
  O  O55  1  0.40183850  0.14113150  0.37020950  1
  O  O56  1  0.64113150  0.37020950  0.09816150  1
  O  O57  1  0.85886850  0.37020950  0.90183850  1
  O  O58  1  0.64113150  0.62979050  0.40183850  1
  O  O59  1  0.62979050  0.59816150  0.85886850  1
  O  O60  1  0.59816150  0.85886850  0.62979050  1
  O  O61  1  0.09816150  0.64113150  0.37020950  1
  O  O62  1  0.37020950  0.90183850  0.85886850  1
  O  O63  1  0.40183850  0.64113150  0.62979050  1
  O  O64  1  0.37020950  0.09816150  0.64113150  1
  O  O65  1  0.90183850  0.85886850  0.37020950  1
  O  O66  1  0.62979050  0.40183850  0.64113150  1
  O  O67  1  0.85886850  0.62979050  0.59816150  1
  O  O68  1  0.85886850  0.12979050  0.40183850  1
  O  O69  1  0.64113150  0.12979050  0.59816150  1
  O  O70  1  0.85886850  0.87020950  0.09816150  1
  O  O71  1  0.87020950  0.90183850  0.64113150  1
  O  O72  1  0.64113150  0.87020950  0.90183850  1
  O  O73  1  0.87020950  0.09816150  0.85886850  1
  O  O74  1  0.59816150  0.64113150  0.12979050  1
  O  O75  1  0.12979050  0.40183850  0.85886850  1
  O  O76  1  0.09816150  0.85886850  0.87020950  1
  O  O77  1  0.12979050  0.59816150  0.64113150  1
  O  O78  1  0.40183850  0.85886850  0.12979050  1
  O  O79  1  0.90183850  0.64113150  0.87020950  1
