# generated using pymatgen
data_V2Zn2O7
_symmetry_space_group_name_H-M   'P 1'
_cell_length_a   6.49730200
_cell_length_b   8.68455000
_cell_length_c   5.07936227
_cell_angle_alpha   90.00000000
_cell_angle_beta   103.78139466
_cell_angle_gamma   90.00000000
_symmetry_Int_Tables_number   1
_chemical_formula_structural   V2Zn2O7
_chemical_formula_sum   'V4 Zn4 O14'
_cell_volume   278.35784272
_cell_formula_units_Z   2
loop_
 _symmetry_equiv_pos_site_id
 _symmetry_equiv_pos_as_xyz
  1  'x, y, z'
loop_
 _atom_site_type_symbol
 _atom_site_label
 _atom_site_symmetry_multiplicity
 _atom_site_fract_x
 _atom_site_fract_y
 _atom_site_fract_z
 _atom_site_occupancy
  V  V0  1  0.24323400  0.00000000  0.89535200  1
  V  V1  1  0.75676600  0.00000000  0.10464800  1
  V  V2  1  0.74323400  0.50000000  0.89535200  1
  V  V3  1  0.25676600  0.50000000  0.10464800  1
  Zn  Zn4  1  0.50000000  0.18495500  0.50000000  1
  Zn  Zn5  1  0.50000000  0.81504500  0.50000000  1
  Zn  Zn6  1  0.00000000  0.68495500  0.50000000  1
  Zn  Zn7  1  0.00000000  0.31504500  0.50000000  1
  O  O8  1  0.42854400  0.00000000  0.22227300  1
  O  O9  1  0.57145600  0.00000000  0.77772700  1
  O  O10  1  0.77785050  0.83253350  0.29409900  1
  O  O11  1  0.22214950  0.83253350  0.70590100  1
  O  O12  1  0.00000000  0.00000000  0.00000000  1
  O  O13  1  0.77785050  0.16746650  0.29409900  1
  O  O14  1  0.22214950  0.16746650  0.70590100  1
  O  O15  1  0.92854400  0.50000000  0.22227300  1
  O  O16  1  0.07145600  0.50000000  0.77772700  1
  O  O17  1  0.27785050  0.33253350  0.29409900  1
  O  O18  1  0.72214950  0.33253350  0.70590100  1
  O  O19  1  0.50000000  0.50000000  0.00000000  1
  O  O20  1  0.27785050  0.66746650  0.29409900  1
  O  O21  1  0.72214950  0.66746650  0.70590100  1
