# generated using pymatgen
data_Ca(H8O5)2
_symmetry_space_group_name_H-M   'P 1'
_cell_length_a   6.20152700
_cell_length_b   6.31557607
_cell_length_c   11.21294479
_cell_angle_alpha   91.18142651
_cell_angle_beta   90.27579680
_cell_angle_gamma   91.37671152
_symmetry_Int_Tables_number   1
_chemical_formula_structural   Ca(H8O5)2
_chemical_formula_sum   'Ca2 H32 O20'
_cell_volume   438.94231717
_cell_formula_units_Z   2
loop_
 _symmetry_equiv_pos_site_id
 _symmetry_equiv_pos_as_xyz
  1  'x, y, z'
loop_
 _atom_site_type_symbol
 _atom_site_label
 _atom_site_symmetry_multiplicity
 _atom_site_fract_x
 _atom_site_fract_y
 _atom_site_fract_z
 _atom_site_occupancy
  Ca  Ca0  1  0.99883000  0.01052800  0.74063600  1
  Ca  Ca1  1  0.00004400  0.98739900  0.26647300  1
  H  H2  1  0.37093300  0.28084100  0.64431400  1
  H  H3  1  0.43479700  0.03912600  0.62754800  1
  H  H4  1  0.60321700  0.72876000  0.64895000  1
  H  H5  1  0.68954800  0.86582900  0.53947700  1
  H  H6  1  0.01930000  0.55898900  0.62781000  1
  H  H7  1  0.26682200  0.62332900  0.64563900  1
  H  H8  1  0.71524800  0.38884200  0.65175700  1
  H  H9  1  0.85494200  0.31262900  0.53848700  1
  H  H10  1  0.37565500  0.74086600  0.14217300  1
  H  H11  1  0.33124500  0.99489300  0.11768400  1
  H  H12  1  0.63632200  0.02235900  0.13284400  1
  H  H13  1  0.61967200  0.28184400  0.14852900  1
  H  H14  1  0.07640000  0.31519400  0.08492500  1
  H  H15  1  0.29001000  0.37145900  0.16222500  1
  H  H16  1  0.70585800  0.63005100  0.15149100  1
  H  H17  1  0.85348100  0.72162000  0.04541200  1
  H  H18  1  0.61930100  0.72133700  0.35629300  1
  H  H19  1  0.55527100  0.96426200  0.37470800  1
  H  H20  1  0.39093500  0.26947400  0.35240300  1
  H  H21  1  0.31206200  0.13232600  0.46372800  1
  H  H22  1  0.97436300  0.43439000  0.37032200  1
  H  H23  1  0.72888400  0.37316100  0.35480700  1
  H  H24  1  0.27772300  0.61121900  0.35492800  1
  H  H25  1  0.13651200  0.69080200  0.46643500  1
  H  H26  1  0.56789300  0.07130900  0.85226200  1
  H  H27  1  0.72008800  0.14166800  0.95774900  1
  H  H28  1  0.28652200  0.88339000  0.93946400  1
  H  H29  1  0.38579600  0.73482300  0.83498300  1
  H  H30  1  0.72140000  0.61707000  0.85257700  1
  H  H31  1  0.98898700  0.63316500  0.85762700  1
  H  H32  1  0.28111000  0.39110700  0.85192700  1
  H  H33  1  0.02027400  0.37761200  0.88068200  1
  O  O34  1  0.48717600  0.51017000  0.68214900  1
  O  O35  1  0.49592900  0.49895300  0.18659100  1
  O  O36  1  0.50436100  0.49701700  0.31977100  1
  O  O37  1  0.48395000  0.53372600  0.81498900  1
  O  O38  1  0.31175700  0.13587900  0.61605500  1
  O  O39  1  0.66865600  0.87398600  0.62741800  1
  O  O40  1  0.12084600  0.68457400  0.62316600  1
  O  O41  1  0.86044400  0.33001300  0.62733300  1
  O  O42  1  0.27326900  0.84941200  0.11284100  1
  O  O43  1  0.71269300  0.15765300  0.12253100  1
  O  O44  1  0.16303800  0.26429200  0.15006200  1
  O  O45  1  0.83000200  0.73116700  0.13256700  1
  O  O46  1  0.68127700  0.86831300  0.37928100  1
  O  O47  1  0.33194100  0.12359800  0.37481800  1
  O  O48  1  0.87111300  0.31250000  0.38123600  1
  O  O49  1  0.13365200  0.67443400  0.37740200  1
  O  O50  1  0.71270100  0.13350600  0.86978400  1
  O  O51  1  0.30979200  0.88237700  0.85278600  1
  O  O52  1  0.85742800  0.70261300  0.88185100  1
  O  O53  1  0.14849600  0.29415700  0.87023600  1
