# generated using pymatgen
data_SrGa2(SiO4)2
_symmetry_space_group_name_H-M   'P 1'
_cell_length_a   13.40569200
_cell_length_b   13.33024000
_cell_length_c   8.59536944
_cell_angle_alpha   90.00000000
_cell_angle_beta   99.86654648
_cell_angle_gamma   90.00000000
_symmetry_Int_Tables_number   1
_chemical_formula_structural   SrGa2(SiO4)2
_chemical_formula_sum   'Sr8 Ga16 Si16 O64'
_cell_volume   1513.28373300
_cell_formula_units_Z   8
loop_
 _symmetry_equiv_pos_site_id
 _symmetry_equiv_pos_as_xyz
  1  'x, y, z'
loop_
 _atom_site_type_symbol
 _atom_site_label
 _atom_site_symmetry_multiplicity
 _atom_site_fract_x
 _atom_site_fract_y
 _atom_site_fract_z
 _atom_site_occupancy
  Sr  Sr0  1  0.81658700  0.75505900  0.30177800  1
  Sr  Sr1  1  0.18341300  0.75505900  0.19822200  1
  Sr  Sr2  1  0.18341300  0.24494100  0.69822200  1
  Sr  Sr3  1  0.81658700  0.24494100  0.80177800  1
  Sr  Sr4  1  0.31658700  0.25505900  0.30177800  1
  Sr  Sr5  1  0.68341300  0.25505900  0.19822200  1
  Sr  Sr6  1  0.68341300  0.74494100  0.69822200  1
  Sr  Sr7  1  0.31658700  0.74494100  0.80177800  1
  Ga  Ga8  1  0.36990350  0.57092550  0.11912900  1
  Ga  Ga9  1  0.63009650  0.57092550  0.38087100  1
  Ga  Ga10  1  0.63009650  0.42907450  0.88087100  1
  Ga  Ga11  1  0.36990350  0.42907450  0.61912900  1
  Ga  Ga12  1  0.07987300  0.62716600  0.52565400  1
  Ga  Ga13  1  0.92012700  0.62716600  0.97434600  1
  Ga  Ga14  1  0.92012700  0.37283400  0.47434600  1
  Ga  Ga15  1  0.07987300  0.37283400  0.02565400  1
  Ga  Ga16  1  0.86990350  0.07092550  0.11912900  1
  Ga  Ga17  1  0.13009650  0.07092550  0.38087100  1
  Ga  Ga18  1  0.13009650  0.92907450  0.88087100  1
  Ga  Ga19  1  0.86990350  0.92907450  0.61912900  1
  Ga  Ga20  1  0.57987300  0.12716600  0.52565400  1
  Ga  Ga21  1  0.42012700  0.12716600  0.97434600  1
  Ga  Ga22  1  0.42012700  0.87283400  0.47434600  1
  Ga  Ga23  1  0.57987300  0.87283400  0.02565400  1
  Si  Si24  1  0.92109400  0.13958600  0.49103700  1
  Si  Si25  1  0.07890600  0.13958600  0.00896300  1
  Si  Si26  1  0.07890600  0.86041400  0.50896300  1
  Si  Si27  1  0.92109400  0.86041400  0.99103700  1
  Si  Si28  1  0.14398200  0.57875300  0.90304100  1
  Si  Si29  1  0.85601800  0.57875300  0.59695900  1
  Si  Si30  1  0.85601800  0.42124700  0.09695900  1
  Si  Si31  1  0.14398200  0.42124700  0.40304100  1
  Si  Si32  1  0.42109400  0.63958600  0.49103700  1
  Si  Si33  1  0.57890600  0.63958600  0.00896300  1
  Si  Si34  1  0.57890600  0.36041400  0.50896300  1
  Si  Si35  1  0.42109400  0.36041400  0.99103700  1
  Si  Si36  1  0.64398200  0.07875300  0.90304100  1
  Si  Si37  1  0.35601800  0.07875300  0.59695900  1
  Si  Si38  1  0.35601800  0.92124700  0.09695900  1
  Si  Si39  1  0.64398200  0.92124700  0.40304100  1
  O  O40  1  0.95573000  0.13438100  0.00187100  1
  O  O41  1  0.04427000  0.13438100  0.49812900  1
  O  O42  1  0.04427000  0.86561900  0.99812900  1
  O  O43  1  0.95573000  0.86561900  0.50187100  1
  O  O44  1  0.94095050  0.62811550  0.50297500  1
  O  O45  1  0.05904950  0.62811550  0.99702500  1
  O  O46  1  0.05904950  0.37188450  0.49702500  1
  O  O47  1  0.94095050  0.37188450  0.00297500  1
  O  O48  1  0.38127900  0.43525200  0.11912300  1
  O  O49  1  0.61872100  0.43525200  0.38087700  1
  O  O50  1  0.61872100  0.56474800  0.88087700  1
  O  O51  1  0.38127900  0.56474800  0.61912300  1
  O  O52  1  0.86604900  0.45751800  0.60618400  1
  O  O53  1  0.13395100  0.45751800  0.89381600  1
  O  O54  1  0.13395100  0.54248200  0.39381600  1
  O  O55  1  0.86604900  0.54248200  0.10618400  1
  O  O56  1  0.35922900  0.62695900  0.31073200  1
  O  O57  1  0.64077100  0.62695900  0.18926800  1
  O  O58  1  0.64077100  0.37304100  0.68926800  1
  O  O59  1  0.35922900  0.37304100  0.81073200  1
  O  O60  1  0.75006050  0.37497250  0.99298500  1
  O  O61  1  0.24993950  0.37497250  0.50701500  1
  O  O62  1  0.24993950  0.62502750  0.00701500  1
  O  O63  1  0.75006050  0.62502750  0.49298500  1
  O  O64  1  0.89185600  0.24985200  0.55917800  1
  O  O65  1  0.10814400  0.24985200  0.94082200  1
  O  O66  1  0.10814400  0.75014800  0.44082200  1
  O  O67  1  0.89185600  0.75014800  0.05917800  1
  O  O68  1  0.85129000  0.37176200  0.27013400  1
  O  O69  1  0.14871000  0.37176200  0.22986600  1
  O  O70  1  0.14871000  0.62823800  0.72986600  1
  O  O71  1  0.85129000  0.62823800  0.77013400  1
  O  O72  1  0.45573000  0.63438100  0.00187100  1
  O  O73  1  0.54427000  0.63438100  0.49812900  1
  O  O74  1  0.54427000  0.36561900  0.99812900  1
  O  O75  1  0.45573000  0.36561900  0.50187100  1
  O  O76  1  0.44095050  0.12811550  0.50297500  1
  O  O77  1  0.55904950  0.12811550  0.99702500  1
  O  O78  1  0.55904950  0.87188450  0.49702500  1
  O  O79  1  0.44095050  0.87188450  0.00297500  1
  O  O80  1  0.88127900  0.93525200  0.11912300  1
  O  O81  1  0.11872100  0.93525200  0.38087700  1
  O  O82  1  0.11872100  0.06474800  0.88087700  1
  O  O83  1  0.88127900  0.06474800  0.61912300  1
  O  O84  1  0.36604900  0.95751800  0.60618400  1
  O  O85  1  0.63395100  0.95751800  0.89381600  1
  O  O86  1  0.63395100  0.04248200  0.39381600  1
  O  O87  1  0.36604900  0.04248200  0.10618400  1
  O  O88  1  0.85922900  0.12695900  0.31073200  1
  O  O89  1  0.14077100  0.12695900  0.18926800  1
  O  O90  1  0.14077100  0.87304100  0.68926800  1
  O  O91  1  0.85922900  0.87304100  0.81073200  1
  O  O92  1  0.25006050  0.87497250  0.99298500  1
  O  O93  1  0.74993950  0.87497250  0.50701500  1
  O  O94  1  0.74993950  0.12502750  0.00701500  1
  O  O95  1  0.25006050  0.12502750  0.49298500  1
  O  O96  1  0.39185600  0.74985200  0.55917800  1
  O  O97  1  0.60814400  0.74985200  0.94082200  1
  O  O98  1  0.60814400  0.25014800  0.44082200  1
  O  O99  1  0.39185600  0.25014800  0.05917800  1
  O  O100  1  0.35129000  0.87176200  0.27013400  1
  O  O101  1  0.64871000  0.87176200  0.22986600  1
  O  O102  1  0.64871000  0.12823800  0.72986600  1
  O  O103  1  0.35129000  0.12823800  0.77013400  1
