# generated using pymatgen
data_RbInS2
_symmetry_space_group_name_H-M   'P 1'
_cell_length_a   11.30560000
_cell_length_b   11.30933600
_cell_length_c   15.84500015
_cell_angle_alpha   90.00000000
_cell_angle_beta   100.26212476
_cell_angle_gamma   90.00000000
_symmetry_Int_Tables_number   1
_chemical_formula_structural   RbInS2
_chemical_formula_sum   'Rb16 In16 S32'
_cell_volume   1993.51451367
_cell_formula_units_Z   16
loop_
 _symmetry_equiv_pos_site_id
 _symmetry_equiv_pos_as_xyz
  1  'x, y, z'
loop_
 _atom_site_type_symbol
 _atom_site_label
 _atom_site_symmetry_multiplicity
 _atom_site_fract_x
 _atom_site_fract_y
 _atom_site_fract_z
 _atom_site_occupancy
  Rb  Rb0  1  0.53514500  0.81216000  0.88821700  1
  Rb  Rb1  1  0.21547300  0.93777400  0.11186300  1
  Rb  Rb2  1  0.78452700  0.06222600  0.88813700  1
  Rb  Rb3  1  0.21547300  0.06222600  0.61186300  1
  Rb  Rb4  1  0.46485500  0.81216000  0.61178300  1
  Rb  Rb5  1  0.78452700  0.93777400  0.38813700  1
  Rb  Rb6  1  0.53514500  0.18784000  0.38821700  1
  Rb  Rb7  1  0.46485500  0.18784000  0.11178300  1
  Rb  Rb8  1  0.03514500  0.31216000  0.88821700  1
  Rb  Rb9  1  0.71547300  0.43777400  0.11186300  1
  Rb  Rb10  1  0.28452700  0.56222600  0.88813700  1
  Rb  Rb11  1  0.71547300  0.56222600  0.61186300  1
  Rb  Rb12  1  0.96485500  0.31216000  0.61178300  1
  Rb  Rb13  1  0.28452700  0.43777400  0.38813700  1
  Rb  Rb14  1  0.03514500  0.68784000  0.38821700  1
  Rb  Rb15  1  0.96485500  0.68784000  0.11178300  1
  In  In16  1  0.60182000  0.18840200  0.66066500  1
  In  In17  1  0.39818000  0.18840200  0.83933500  1
  In  In18  1  0.60182000  0.81159800  0.16066500  1
  In  In19  1  0.14644950  0.93661250  0.83996600  1
  In  In20  1  0.85355050  0.06338750  0.16003400  1
  In  In21  1  0.39818000  0.81159800  0.33933500  1
  In  In22  1  0.85355050  0.93661250  0.66003400  1
  In  In23  1  0.14644950  0.06338750  0.33996600  1
  In  In24  1  0.10182000  0.68840200  0.66066500  1
  In  In25  1  0.89818000  0.68840200  0.83933500  1
  In  In26  1  0.10182000  0.31159800  0.16066500  1
  In  In27  1  0.64644950  0.43661250  0.83996600  1
  In  In28  1  0.35355050  0.56338750  0.16003400  1
  In  In29  1  0.89818000  0.31159800  0.33933500  1
  In  In30  1  0.35355050  0.43661250  0.66003400  1
  In  In31  1  0.64644950  0.56338750  0.33996600  1
  S  S32  1  0.25782250  0.81279250  0.74992400  1
  S  S33  1  0.50000000  0.57034900  0.75000000  1
  S  S34  1  0.74217750  0.81279250  0.75007600  1
  S  S35  1  0.54612800  0.68760900  0.43653800  1
  S  S36  1  0.70396250  0.06333650  0.56500000  1
  S  S37  1  0.70396250  0.93666350  0.06500000  1
  S  S38  1  0.45387200  0.31239100  0.56346200  1
  S  S39  1  0.50000000  0.42965100  0.25000000  1
  S  S40  1  0.25782250  0.18720750  0.24992400  1
  S  S41  1  0.50000000  0.94524800  0.25000000  1
  S  S42  1  0.54612800  0.31239100  0.93653800  1
  S  S43  1  0.50000000  0.05475200  0.75000000  1
  S  S44  1  0.74217750  0.18720750  0.25007600  1
  S  S45  1  0.45387200  0.68760900  0.06346200  1
  S  S46  1  0.29603750  0.93666350  0.43500000  1
  S  S47  1  0.29603750  0.06333650  0.93500000  1
  S  S48  1  0.75782250  0.31279250  0.74992400  1
  S  S49  1  0.00000000  0.07034900  0.75000000  1
  S  S50  1  0.24217750  0.31279250  0.75007600  1
  S  S51  1  0.04612800  0.18760900  0.43653800  1
  S  S52  1  0.20396250  0.56333650  0.56500000  1
  S  S53  1  0.20396250  0.43666350  0.06500000  1
  S  S54  1  0.95387200  0.81239100  0.56346200  1
  S  S55  1  0.00000000  0.92965100  0.25000000  1
  S  S56  1  0.75782250  0.68720750  0.24992400  1
  S  S57  1  0.00000000  0.44524800  0.25000000  1
  S  S58  1  0.04612800  0.81239100  0.93653800  1
  S  S59  1  0.00000000  0.55475200  0.75000000  1
  S  S60  1  0.24217750  0.68720750  0.25007600  1
  S  S61  1  0.95387200  0.18760900  0.06346200  1
  S  S62  1  0.79603750  0.43666350  0.43500000  1
  S  S63  1  0.79603750  0.56333650  0.93500000  1
