# generated using pymatgen
data_BaH4(BrO)2
_symmetry_space_group_name_H-M   'P 1'
_cell_length_a   10.57921600
_cell_length_b   7.26835200
_cell_length_c   8.49201228
_cell_angle_alpha   90.00000000
_cell_angle_beta   113.62389528
_cell_angle_gamma   90.00000000
_symmetry_Int_Tables_number   1
_chemical_formula_structural   BaH4(BrO)2
_chemical_formula_sum   'Ba4 H16 Br8 O8'
_cell_volume   598.25769195
_cell_formula_units_Z   4
loop_
 _symmetry_equiv_pos_site_id
 _symmetry_equiv_pos_as_xyz
  1  'x, y, z'
loop_
 _atom_site_type_symbol
 _atom_site_label
 _atom_site_symmetry_multiplicity
 _atom_site_fract_x
 _atom_site_fract_y
 _atom_site_fract_z
 _atom_site_occupancy
  Ba  Ba0  1  0.00000000  0.89914500  0.75000000  1
  Ba  Ba1  1  0.00000000  0.10085500  0.25000000  1
  Ba  Ba2  1  0.50000000  0.39914500  0.75000000  1
  Ba  Ba3  1  0.50000000  0.60085500  0.25000000  1
  H  H4  1  0.08985250  0.31593950  0.95466700  1
  H  H5  1  0.91014750  0.31593950  0.54533300  1
  H  H6  1  0.91014750  0.68406050  0.04533300  1
  H  H7  1  0.08985250  0.68406050  0.45466700  1
  H  H8  1  0.92862150  0.31396850  0.87203000  1
  H  H9  1  0.07137850  0.31396850  0.62797000  1
  H  H10  1  0.07137850  0.68603150  0.12797000  1
  H  H11  1  0.92862150  0.68603150  0.37203000  1
  H  H12  1  0.58985250  0.81593950  0.95466700  1
  H  H13  1  0.41014750  0.81593950  0.54533300  1
  H  H14  1  0.41014750  0.18406050  0.04533300  1
  H  H15  1  0.58985250  0.18406050  0.45466700  1
  H  H16  1  0.42862150  0.81396850  0.87203000  1
  H  H17  1  0.57137850  0.81396850  0.62797000  1
  H  H18  1  0.57137850  0.18603150  0.12797000  1
  H  H19  1  0.42862150  0.18603150  0.37203000  1
  Br  Br20  1  0.21600850  0.52707350  0.84887000  1
  Br  Br21  1  0.78399150  0.52707350  0.65113000  1
  Br  Br22  1  0.78399150  0.47292650  0.15113000  1
  Br  Br23  1  0.21600850  0.47292650  0.34887000  1
  Br  Br24  1  0.71600850  0.02707350  0.84887000  1
  Br  Br25  1  0.28399150  0.02707350  0.65113000  1
  Br  Br26  1  0.28399150  0.97292650  0.15113000  1
  Br  Br27  1  0.71600850  0.97292650  0.34887000  1
  O  O28  1  0.00928200  0.23919500  0.94268900  1
  O  O29  1  0.99071800  0.23919500  0.55731100  1
  O  O30  1  0.99071800  0.76080500  0.05731100  1
  O  O31  1  0.00928200  0.76080500  0.44268900  1
  O  O32  1  0.50928200  0.73919500  0.94268900  1
  O  O33  1  0.49071800  0.73919500  0.55731100  1
  O  O34  1  0.49071800  0.26080500  0.05731100  1
  O  O35  1  0.50928200  0.26080500  0.44268900  1
