# generated using pymatgen
data_NaTiPO5
_symmetry_space_group_name_H-M   'P 1'
_cell_length_a   6.72610100
_cell_length_b   8.58280100
_cell_length_c   7.21025896
_cell_angle_alpha   90.00000000
_cell_angle_beta   115.38711003
_cell_angle_gamma   90.00000000
_symmetry_Int_Tables_number   1
_chemical_formula_structural   NaTiPO5
_chemical_formula_sum   'Na4 Ti4 P4 O20'
_cell_volume   376.04398678
_cell_formula_units_Z   4
loop_
 _symmetry_equiv_pos_site_id
 _symmetry_equiv_pos_as_xyz
  1  'x, y, z'
loop_
 _atom_site_type_symbol
 _atom_site_label
 _atom_site_symmetry_multiplicity
 _atom_site_fract_x
 _atom_site_fract_y
 _atom_site_fract_z
 _atom_site_occupancy
  Na  Na0  1  0.24954200  0.92099200  0.77247100  1
  Na  Na1  1  0.75045800  0.42099200  0.72752900  1
  Na  Na2  1  0.24954200  0.57900800  0.27247100  1
  Na  Na3  1  0.75045800  0.07900800  0.22752900  1
  Ti  Ti4  1  0.24854300  0.25732100  0.01687600  1
  Ti  Ti5  1  0.75145700  0.75732100  0.48312400  1
  Ti  Ti6  1  0.75145700  0.74267900  0.98312400  1
  Ti  Ti7  1  0.24854300  0.24267900  0.51687600  1
  P  P8  1  0.74960900  0.42943200  0.24942700  1
  P  P9  1  0.25039100  0.57056800  0.75057300  1
  P  P10  1  0.25039100  0.92943200  0.25057300  1
  P  P11  1  0.74960900  0.07056800  0.74942700  1
  O  O12  1  0.24766200  0.31760800  0.24799000  1
  O  O13  1  0.75233800  0.81760800  0.25201000  1
  O  O14  1  0.75233800  0.68239200  0.75201000  1
  O  O15  1  0.24766200  0.18239200  0.74799000  1
  O  O16  1  0.66269300  0.53332000  0.37660500  1
  O  O17  1  0.33730700  0.03332000  0.12339500  1
  O  O18  1  0.33730700  0.46668000  0.62339500  1
  O  O19  1  0.66269300  0.96668000  0.87660500  1
  O  O20  1  0.84101600  0.53133800  0.12492200  1
  O  O21  1  0.15898400  0.03133800  0.37507800  1
  O  O22  1  0.15898400  0.46866200  0.87507800  1
  O  O23  1  0.84101600  0.96866200  0.62492200  1
  O  O24  1  0.93049000  0.18198100  0.89583300  1
  O  O25  1  0.06951000  0.68198100  0.60416700  1
  O  O26  1  0.06951000  0.81801900  0.10416700  1
  O  O27  1  0.93049000  0.31801900  0.39583300  1
  O  O28  1  0.56348900  0.17831800  0.60080100  1
  O  O29  1  0.43651100  0.67831800  0.89919900  1
  O  O30  1  0.43651100  0.82168200  0.39919900  1
  O  O31  1  0.56348900  0.32168200  0.10080100  1
