# generated using pymatgen
data_La4(GeS4)3
_symmetry_space_group_name_H-M   'P 1'
_cell_length_a   19.60755720
_cell_length_b   19.60755720
_cell_length_c   8.17163014
_cell_angle_alpha   90.00000000
_cell_angle_beta   90.00000000
_cell_angle_gamma   120.00000000
_symmetry_Int_Tables_number   1
_chemical_formula_structural   La4(GeS4)3
_chemical_formula_sum   'La24 Ge18 S72'
_cell_volume   2720.73544528
_cell_formula_units_Z   6
loop_
 _symmetry_equiv_pos_site_id
 _symmetry_equiv_pos_as_xyz
  1  'x, y, z'
loop_
 _atom_site_type_symbol
 _atom_site_label
 _atom_site_symmetry_multiplicity
 _atom_site_fract_x
 _atom_site_fract_y
 _atom_site_fract_z
 _atom_site_occupancy
  La  La0  1  0.56412067  0.89447633  0.46384733  1
  La  La1  1  0.99702233  0.22780967  0.29718067  1
  La  La2  1  0.89745400  0.33631100  0.63051400  1
  La  La3  1  0.10552367  0.43587933  0.96384733  1
  La  La4  1  0.00000000  0.00000000  0.99993600  1
  La  La5  1  0.66368900  0.10254600  0.13051400  1
  La  La6  1  0.77219033  0.00297767  0.79718067  1
  La  La7  1  0.00000000  0.00000000  0.49993600  1
  La  La8  1  0.23078733  0.22780967  0.79718067  1
  La  La9  1  0.66368900  0.56114300  0.63051400  1
  La  La10  1  0.56412067  0.66964433  0.96384733  1
  La  La11  1  0.77219033  0.76921267  0.29718067  1
  La  La12  1  0.66666667  0.33333333  0.33326933  1
  La  La13  1  0.33035567  0.43587933  0.46384733  1
  La  La14  1  0.43885700  0.33631100  0.13051400  1
  La  La15  1  0.66666667  0.33333333  0.83326933  1
  La  La16  1  0.89745400  0.56114300  0.13051400  1
  La  La17  1  0.33035567  0.89447633  0.96384733  1
  La  La18  1  0.23078733  0.00297767  0.29718067  1
  La  La19  1  0.43885700  0.10254600  0.63051400  1
  La  La20  1  0.33333333  0.66666667  0.66660267  1
  La  La21  1  0.99702233  0.76921267  0.79718067  1
  La  La22  1  0.10552367  0.66964433  0.46384733  1
  La  La23  1  0.33333333  0.66666667  0.16660267  1
  Ge  Ge24  1  0.85429000  0.32068600  0.18101200  1
  Ge  Ge25  1  0.79972933  0.98735267  0.34767867  1
  Ge  Ge26  1  0.01264733  0.20027067  0.84767867  1
  Ge  Ge27  1  0.52095667  0.86693733  0.01434533  1
  Ge  Ge28  1  0.13306267  0.47904333  0.51434533  1
  Ge  Ge29  1  0.67931400  0.14571000  0.68101200  1
  Ge  Ge30  1  0.52095667  0.65401933  0.51434533  1
  Ge  Ge31  1  0.46639600  0.32068600  0.68101200  1
  Ge  Ge32  1  0.67931400  0.53360400  0.18101200  1
  Ge  Ge33  1  0.18762333  0.20027067  0.34767867  1
  Ge  Ge34  1  0.79972933  0.81237667  0.84767867  1
  Ge  Ge35  1  0.34598067  0.47904333  0.01434533  1
  Ge  Ge36  1  0.18762333  0.98735267  0.84767867  1
  Ge  Ge37  1  0.13306267  0.65401933  0.01434533  1
  Ge  Ge38  1  0.34598067  0.86693733  0.51434533  1
  Ge  Ge39  1  0.85429000  0.53360400  0.68101200  1
  Ge  Ge40  1  0.46639600  0.14571000  0.18101200  1
  Ge  Ge41  1  0.01264733  0.81237667  0.34767867  1
  S  S42  1  0.87584000  0.93954800  0.24861000  1
  S  S43  1  0.39704133  0.79082667  0.91527667  1
  S  S44  1  0.93762633  0.33006067  0.98413267  1
  S  S45  1  0.72711867  0.26962533  0.58194333  1
  S  S46  1  0.86724933  0.41974867  0.33662767  1
  S  S47  1  0.06045200  0.12416000  0.74861000  1
  S  S48  1  0.72576767  0.99672733  0.15079933  1
  S  S49  1  0.84517633  0.22387067  0.33869167  1
  S  S50  1  0.60429300  0.94089900  0.81746600  1
  S  S51  1  0.51184300  0.95463900  0.17202500  1
  S  S52  1  0.91358467  0.11416733  0.00329433  1
  S  S53  1  0.04536100  0.48815700  0.67202500  1
  S  S54  1  0.73037467  0.27288133  0.08194333  1
  S  S55  1  0.53391600  0.78083400  0.16996100  1
  S  S56  1  0.88583267  0.08641533  0.50329433  1
  S  S57  1  0.21916600  0.46608400  0.66996100  1
  S  S58  1  0.10946267  0.28797233  0.00535833  1
  S  S59  1  0.20917333  0.60295867  0.41527667  1
  S  S60  1  0.58025133  0.13275067  0.83662767  1
  S  S61  1  0.71202767  0.89053733  0.50535833  1
  S  S62  1  0.05910100  0.39570700  0.31746600  1
  S  S63  1  0.66993933  0.06237367  0.48413267  1
  S  S64  1  0.77612933  0.15482367  0.83869167  1
  S  S65  1  0.00327267  0.27423233  0.65079933  1
  S  S66  1  0.54250667  0.27288133  0.58194333  1
  S  S67  1  0.06370800  0.12416000  0.24861000  1
  S  S68  1  0.60429300  0.66339400  0.31746600  1
  S  S69  1  0.39378533  0.60295867  0.91527667  1
  S  S70  1  0.53391600  0.75308200  0.66996100  1
  S  S71  1  0.72711867  0.45749333  0.08194333  1
  S  S72  1  0.39243433  0.33006067  0.48413267  1
  S  S73  1  0.51184300  0.55720400  0.67202500  1
  S  S74  1  0.27095967  0.27423233  0.15079933  1
  S  S75  1  0.17850967  0.28797233  0.50535833  1
  S  S76  1  0.58025133  0.44750067  0.33662767  1
  S  S77  1  0.71202767  0.82149033  0.00535833  1
  S  S78  1  0.39704133  0.60621467  0.41527667  1
  S  S79  1  0.20058267  0.11416733  0.50329433  1
  S  S80  1  0.55249933  0.41974867  0.83662767  1
  S  S81  1  0.88583267  0.79941733  0.00329433  1
  S  S82  1  0.77612933  0.62130567  0.33869167  1
  S  S83  1  0.87584000  0.93629200  0.74861000  1
  S  S84  1  0.24691800  0.46608400  0.16996100  1
  S  S85  1  0.37869433  0.22387067  0.83869167  1
  S  S86  1  0.72576767  0.72904033  0.65079933  1
  S  S87  1  0.33660600  0.39570700  0.81746600  1
  S  S88  1  0.44279600  0.48815700  0.17202500  1
  S  S89  1  0.66993933  0.60756567  0.98413267  1
  S  S90  1  0.20917333  0.60621467  0.91527667  1
  S  S91  1  0.73037467  0.45749333  0.58194333  1
  S  S92  1  0.27095967  0.99672733  0.65079933  1
  S  S93  1  0.06045200  0.93629200  0.24861000  1
  S  S94  1  0.20058267  0.08641533  0.00329433  1
  S  S95  1  0.39378533  0.79082667  0.41527667  1
  S  S96  1  0.05910100  0.66339400  0.81746600  1
  S  S97  1  0.17850967  0.89053733  0.00535833  1
  S  S98  1  0.93762633  0.60756567  0.48413267  1
  S  S99  1  0.84517633  0.62130567  0.83869167  1
  S  S100  1  0.24691800  0.78083400  0.66996100  1
  S  S101  1  0.37869433  0.15482367  0.33869167  1
  S  S102  1  0.06370800  0.93954800  0.74861000  1
  S  S103  1  0.86724933  0.44750067  0.83662767  1
  S  S104  1  0.21916600  0.75308200  0.16996100  1
  S  S105  1  0.55249933  0.13275067  0.33662767  1
  S  S106  1  0.44279600  0.95463900  0.67202500  1
  S  S107  1  0.54250667  0.26962533  0.08194333  1
  S  S108  1  0.91358467  0.79941733  0.50329433  1
  S  S109  1  0.04536100  0.55720400  0.17202500  1
  S  S110  1  0.39243433  0.06237367  0.98413267  1
  S  S111  1  0.00327267  0.72904033  0.15079933  1
  S  S112  1  0.10946267  0.82149033  0.50535833  1
  S  S113  1  0.33660600  0.94089900  0.31746600  1
