# generated using pymatgen
data_CsPbCl3
_symmetry_space_group_name_H-M   'P 1'
_cell_length_a   8.06561166
_cell_length_b   8.06561166
_cell_length_c   10.02875814
_cell_angle_alpha   90.00000000
_cell_angle_beta   90.00000000
_cell_angle_gamma   120.00000000
_symmetry_Int_Tables_number   1
_chemical_formula_structural   CsPbCl3
_chemical_formula_sum   'Cs3 Pb3 Cl9'
_cell_volume   565.00514905
_cell_formula_units_Z   3
loop_
 _symmetry_equiv_pos_site_id
 _symmetry_equiv_pos_as_xyz
  1  'x, y, z'
loop_
 _atom_site_type_symbol
 _atom_site_label
 _atom_site_symmetry_multiplicity
 _atom_site_fract_x
 _atom_site_fract_y
 _atom_site_fract_z
 _atom_site_occupancy
  Cs  Cs0  1  0.33333333  0.66666667  0.16666667  1
  Cs  Cs1  1  0.00000000  0.00000000  0.50000000  1
  Cs  Cs2  1  0.66666667  0.33333333  0.83333333  1
  Pb  Pb3  1  0.00000000  0.00000000  0.00000000  1
  Pb  Pb4  1  0.66666667  0.33333333  0.33333333  1
  Pb  Pb5  1  0.33333333  0.66666667  0.66666667  1
  Cl  Cl6  1  0.33333333  0.19972867  0.16666667  1
  Cl  Cl7  1  0.86639533  0.66666667  0.16666667  1
  Cl  Cl8  1  0.80027133  0.13360467  0.16666667  1
  Cl  Cl9  1  0.00000000  0.53306200  0.50000000  1
  Cl  Cl10  1  0.53306200  0.00000000  0.50000000  1
  Cl  Cl11  1  0.46693800  0.46693800  0.50000000  1
  Cl  Cl12  1  0.66666667  0.86639533  0.83333333  1
  Cl  Cl13  1  0.19972867  0.33333333  0.83333333  1
  Cl  Cl14  1  0.13360467  0.80027133  0.83333333  1
