# generated using pymatgen
data_Tb2Se3
_symmetry_space_group_name_H-M   'P 1'
_cell_length_a   8.72817800
_cell_length_b   8.72817800
_cell_length_c   26.16125200
_cell_angle_alpha   90.00000000
_cell_angle_beta   90.00000000
_cell_angle_gamma   90.00000000
_symmetry_Int_Tables_number   1
_chemical_formula_structural   Tb2Se3
_chemical_formula_sum   'Tb32 Se48'
_cell_volume   1992.99272451
_cell_formula_units_Z   16
loop_
 _symmetry_equiv_pos_site_id
 _symmetry_equiv_pos_as_xyz
  1  'x, y, z'
loop_
 _atom_site_type_symbol
 _atom_site_label
 _atom_site_symmetry_multiplicity
 _atom_site_fract_x
 _atom_site_fract_y
 _atom_site_fract_z
 _atom_site_occupancy
  Tb  Tb0  1  0.86648850  0.74194550  0.46020650  1
  Tb  Tb1  1  0.50000000  0.00000000  0.41738100  1
  Tb  Tb2  1  0.25000000  0.61863500  0.37500000  1
  Tb  Tb3  1  0.00000000  0.00000000  0.33261900  1
  Tb  Tb4  1  0.63351150  0.74194550  0.28979350  1
  Tb  Tb5  1  0.75000000  0.38136500  0.37500000  1
  Tb  Tb6  1  0.36648850  0.25805450  0.28979350  1
  Tb  Tb7  1  0.75805450  0.13351150  0.21020650  1
  Tb  Tb8  1  0.50000000  0.50000000  0.16738100  1
  Tb  Tb9  1  0.11863500  0.25000000  0.12500000  1
  Tb  Tb10  1  0.24194550  0.86648850  0.21020650  1
  Tb  Tb11  1  0.88136500  0.75000000  0.12500000  1
  Tb  Tb12  1  0.50000000  0.00000000  0.08261900  1
  Tb  Tb13  1  0.24194550  0.63351150  0.03979350  1
  Tb  Tb14  1  0.13351150  0.25805450  0.46020650  1
  Tb  Tb15  1  0.75805450  0.36648850  0.03979350  1
  Tb  Tb16  1  0.36648850  0.24194550  0.96020650  1
  Tb  Tb17  1  0.00000000  0.50000000  0.91738100  1
  Tb  Tb18  1  0.75000000  0.11863500  0.87500000  1
  Tb  Tb19  1  0.50000000  0.50000000  0.83261900  1
  Tb  Tb20  1  0.13351150  0.24194550  0.78979350  1
  Tb  Tb21  1  0.25000000  0.88136500  0.87500000  1
  Tb  Tb22  1  0.86648850  0.75805450  0.78979350  1
  Tb  Tb23  1  0.25805450  0.63351150  0.71020650  1
  Tb  Tb24  1  0.00000000  0.00000000  0.66738100  1
  Tb  Tb25  1  0.61863500  0.75000000  0.62500000  1
  Tb  Tb26  1  0.74194550  0.36648850  0.71020650  1
  Tb  Tb27  1  0.38136500  0.25000000  0.62500000  1
  Tb  Tb28  1  0.00000000  0.50000000  0.58261900  1
  Tb  Tb29  1  0.74194550  0.13351150  0.53979350  1
  Tb  Tb30  1  0.63351150  0.75805450  0.96020650  1
  Tb  Tb31  1  0.25805450  0.86648850  0.53979350  1
  Se  Se32  1  0.42882900  0.31790100  0.39573400  1
  Se  Se33  1  0.17772650  0.93173550  0.43400850  1
  Se  Se34  1  0.82227350  0.06826450  0.43400850  1
  Se  Se35  1  0.32227350  0.93173550  0.31599150  1
  Se  Se36  1  0.67772650  0.06826450  0.31599150  1
  Se  Se37  1  0.57117100  0.68209900  0.39573400  1
  Se  Se38  1  0.92882900  0.68209900  0.35426600  1
  Se  Se39  1  0.92053900  0.82498400  0.23286500  1
  Se  Se40  1  0.67501600  0.42053900  0.26713500  1
  Se  Se41  1  0.07117100  0.31790100  0.35426600  1
  Se  Se42  1  0.81790100  0.42882900  0.14573400  1
  Se  Se43  1  0.32498400  0.57946100  0.26713500  1
  Se  Se44  1  0.18209900  0.57117100  0.14573400  1
  Se  Se45  1  0.07946100  0.17501600  0.23286500  1
  Se  Se46  1  0.43173550  0.17772650  0.18400850  1
  Se  Se47  1  0.43173550  0.32227350  0.06599150  1
  Se  Se48  1  0.18209900  0.92882900  0.10426600  1
  Se  Se49  1  0.56826450  0.82227350  0.18400850  1
  Se  Se50  1  0.81790100  0.07117100  0.10426600  1
  Se  Se51  1  0.82498400  0.42053900  0.48286500  1
  Se  Se52  1  0.17501600  0.57946100  0.48286500  1
  Se  Se53  1  0.56826450  0.67772650  0.06599150  1
  Se  Se54  1  0.92053900  0.67501600  0.01713500  1
  Se  Se55  1  0.07946100  0.32498400  0.01713500  1
  Se  Se56  1  0.92882900  0.81790100  0.89573400  1
  Se  Se57  1  0.67772650  0.43173550  0.93400850  1
  Se  Se58  1  0.32227350  0.56826450  0.93400850  1
  Se  Se59  1  0.82227350  0.43173550  0.81599150  1
  Se  Se60  1  0.17772650  0.56826450  0.81599150  1
  Se  Se61  1  0.07117100  0.18209900  0.89573400  1
  Se  Se62  1  0.42882900  0.18209900  0.85426600  1
  Se  Se63  1  0.42053900  0.32498400  0.73286500  1
  Se  Se64  1  0.17501600  0.92053900  0.76713500  1
  Se  Se65  1  0.57117100  0.81790100  0.85426600  1
  Se  Se66  1  0.31790100  0.92882900  0.64573400  1
  Se  Se67  1  0.82498400  0.07946100  0.76713500  1
  Se  Se68  1  0.68209900  0.07117100  0.64573400  1
  Se  Se69  1  0.57946100  0.67501600  0.73286500  1
  Se  Se70  1  0.93173550  0.67772650  0.68400850  1
  Se  Se71  1  0.93173550  0.82227350  0.56599150  1
  Se  Se72  1  0.68209900  0.42882900  0.60426600  1
  Se  Se73  1  0.06826450  0.32227350  0.68400850  1
  Se  Se74  1  0.31790100  0.57117100  0.60426600  1
  Se  Se75  1  0.32498400  0.92053900  0.98286500  1
  Se  Se76  1  0.67501600  0.07946100  0.98286500  1
  Se  Se77  1  0.06826450  0.17772650  0.56599150  1
  Se  Se78  1  0.42053900  0.17501600  0.51713500  1
  Se  Se79  1  0.57946100  0.82498400  0.51713500  1
