# generated using pymatgen
data_NdPb6F15
_symmetry_space_group_name_H-M   'P 1'
_cell_length_a   7.23245473
_cell_length_b   4.21585200
_cell_length_c   24.62191856
_cell_angle_alpha   90.00000000
_cell_angle_beta   95.85387338
_cell_angle_gamma   90.00000000
_symmetry_Int_Tables_number   1
_chemical_formula_structural   NdPb6F15
_chemical_formula_sum   'Nd2 Pb12 F30'
_cell_volume   746.83094994
_cell_formula_units_Z   2
loop_
 _symmetry_equiv_pos_site_id
 _symmetry_equiv_pos_as_xyz
  1  'x, y, z'
loop_
 _atom_site_type_symbol
 _atom_site_label
 _atom_site_symmetry_multiplicity
 _atom_site_fract_x
 _atom_site_fract_y
 _atom_site_fract_z
 _atom_site_occupancy
  Nd  Nd0  1  0.24379200  0.00000000  0.84025200  1
  Nd  Nd1  1  0.74379200  0.50000000  0.84025200  1
  Pb  Pb2  1  0.96081400  0.00000000  0.98490900  1
  Pb  Pb3  1  0.21522600  0.50000000  0.13479500  1
  Pb  Pb4  1  0.92945400  0.50000000  0.27708300  1
  Pb  Pb5  1  0.14028000  0.00000000  0.42024000  1
  Pb  Pb6  1  0.58684300  0.00000000  0.70549300  1
  Pb  Pb7  1  0.35079700  0.50000000  0.56296000  1
  Pb  Pb8  1  0.46081400  0.50000000  0.98490900  1
  Pb  Pb9  1  0.71522600  0.00000000  0.13479500  1
  Pb  Pb10  1  0.42945400  0.00000000  0.27708300  1
  Pb  Pb11  1  0.64028000  0.50000000  0.42024000  1
  Pb  Pb12  1  0.08684300  0.50000000  0.70549300  1
  Pb  Pb13  1  0.85079700  0.00000000  0.56296000  1
  F  F14  1  0.89858300  0.50000000  0.17150700  1
  F  F15  1  0.03980900  0.00000000  0.09989900  1
  F  F16  1  0.10699700  0.00000000  0.31208100  1
  F  F17  1  0.25194900  0.50000000  0.23816900  1
  F  F18  1  0.31749000  0.50000000  0.45470500  1
  F  F19  1  0.96232200  0.50000000  0.38302000  1
  F  F20  1  0.53190100  0.00000000  0.59949000  1
  F  F21  1  0.17436000  0.00000000  0.52617500  1
  F  F22  1  0.21508500  0.00000000  0.74199900  1
  F  F23  1  0.42373600  0.50000000  0.88738800  1
  F  F24  1  0.37729800  0.50000000  0.66508500  1
  F  F25  1  0.36910900  0.50000000  0.78774800  1
  F  F26  1  0.56946400  0.00000000  0.83736500  1
  F  F27  1  0.13691900  0.50000000  0.01533700  1
  F  F28  1  0.27691300  0.00000000  0.93972400  1
  F  F29  1  0.39858300  0.00000000  0.17150700  1
  F  F30  1  0.53980900  0.50000000  0.09989900  1
  F  F31  1  0.60699700  0.50000000  0.31208100  1
  F  F32  1  0.75194900  0.00000000  0.23816900  1
  F  F33  1  0.81749000  0.00000000  0.45470500  1
  F  F34  1  0.46232200  0.00000000  0.38302000  1
  F  F35  1  0.03190100  0.50000000  0.59949000  1
  F  F36  1  0.67436000  0.50000000  0.52617500  1
  F  F37  1  0.71508500  0.50000000  0.74199900  1
  F  F38  1  0.92373600  0.00000000  0.88738800  1
  F  F39  1  0.87729800  0.00000000  0.66508500  1
  F  F40  1  0.86910900  0.00000000  0.78774800  1
  F  F41  1  0.06946400  0.50000000  0.83736500  1
  F  F42  1  0.63691900  0.00000000  0.01533700  1
  F  F43  1  0.77691300  0.50000000  0.93972400  1
