# generated using pymatgen
data_Cs2HgBr4
_symmetry_space_group_name_H-M   'P 1'
_cell_length_a   8.18665700
_cell_length_b   10.51894500
_cell_length_c   14.44132300
_cell_angle_alpha   90.00000000
_cell_angle_beta   90.00000000
_cell_angle_gamma   90.00000000
_symmetry_Int_Tables_number   1
_chemical_formula_structural   Cs2HgBr4
_chemical_formula_sum   'Cs8 Hg4 Br16'
_cell_volume   1243.61445385
_cell_formula_units_Z   4
loop_
 _symmetry_equiv_pos_site_id
 _symmetry_equiv_pos_as_xyz
  1  'x, y, z'
loop_
 _atom_site_type_symbol
 _atom_site_label
 _atom_site_symmetry_multiplicity
 _atom_site_fract_x
 _atom_site_fract_y
 _atom_site_fract_z
 _atom_site_occupancy
  Cs  Cs0  1  0.25000000  0.48270900  0.67078200  1
  Cs  Cs1  1  0.75000000  0.87897600  0.59965800  1
  Cs  Cs2  1  0.75000000  0.01729100  0.17078200  1
  Cs  Cs3  1  0.25000000  0.62102400  0.09965800  1
  Cs  Cs4  1  0.25000000  0.12102400  0.40034200  1
  Cs  Cs5  1  0.25000000  0.98270900  0.82921800  1
  Cs  Cs6  1  0.75000000  0.37897600  0.90034200  1
  Cs  Cs7  1  0.75000000  0.51729100  0.32921800  1
  Hg  Hg8  1  0.25000000  0.22220800  0.07671500  1
  Hg  Hg9  1  0.75000000  0.77779200  0.92328500  1
  Hg  Hg10  1  0.25000000  0.72220800  0.42328500  1
  Hg  Hg11  1  0.75000000  0.27779200  0.57671500  1
  Br  Br12  1  0.25000000  0.47204600  0.41136000  1
  Br  Br13  1  0.25000000  0.82167700  0.59456800  1
  Br  Br14  1  0.98616200  0.82164500  0.34242500  1
  Br  Br15  1  0.75000000  0.67832300  0.09456800  1
  Br  Br16  1  0.25000000  0.97204600  0.08864000  1
  Br  Br17  1  0.51383800  0.32164500  0.15757500  1
  Br  Br18  1  0.01383800  0.67835500  0.84242500  1
  Br  Br19  1  0.48616200  0.67835500  0.84242500  1
  Br  Br20  1  0.51383800  0.82164500  0.34242500  1
  Br  Br21  1  0.48616200  0.17835500  0.65757500  1
  Br  Br22  1  0.75000000  0.17832300  0.40543200  1
  Br  Br23  1  0.25000000  0.32167700  0.90543200  1
  Br  Br24  1  0.75000000  0.52795400  0.58864000  1
  Br  Br25  1  0.98616200  0.32164500  0.15757500  1
  Br  Br26  1  0.75000000  0.02795400  0.91136000  1
  Br  Br27  1  0.01383800  0.17835500  0.65757500  1
