# generated using pymatgen
data_RbTi2(PO4)3
_symmetry_space_group_name_H-M   'P 1'
_cell_length_a   8.43903404
_cell_length_b   8.43903404
_cell_length_c   23.80317563
_cell_angle_alpha   90.00000000
_cell_angle_beta   90.00000000
_cell_angle_gamma   120.00000000
_symmetry_Int_Tables_number   1
_chemical_formula_structural   RbTi2(PO4)3
_chemical_formula_sum   'Rb6 Ti12 P18 O72'
_cell_volume   1468.08435443
_cell_formula_units_Z   6
loop_
 _symmetry_equiv_pos_site_id
 _symmetry_equiv_pos_as_xyz
  1  'x, y, z'
loop_
 _atom_site_type_symbol
 _atom_site_label
 _atom_site_symmetry_multiplicity
 _atom_site_fract_x
 _atom_site_fract_y
 _atom_site_fract_z
 _atom_site_occupancy
  Rb  Rb0  1  0.00000000  0.00000000  0.00000000  1
  Rb  Rb1  1  0.33333333  0.66666667  0.16666667  1
  Rb  Rb2  1  0.66666667  0.33333333  0.33333333  1
  Rb  Rb3  1  0.00000000  0.00000000  0.50000000  1
  Rb  Rb4  1  0.33333333  0.66666667  0.66666667  1
  Rb  Rb5  1  0.66666667  0.33333333  0.83333333  1
  Ti  Ti6  1  0.66666667  0.33333333  0.18249033  1
  Ti  Ti7  1  0.33333333  0.66666667  0.31750967  1
  Ti  Ti8  1  0.00000000  0.00000000  0.15084300  1
  Ti  Ti9  1  0.33333333  0.66666667  0.01582367  1
  Ti  Ti10  1  0.33333333  0.66666667  0.51582367  1
  Ti  Ti11  1  0.00000000  0.00000000  0.65084300  1
  Ti  Ti12  1  0.66666667  0.33333333  0.48417633  1
  Ti  Ti13  1  0.00000000  0.00000000  0.34915700  1
  Ti  Ti14  1  0.00000000  0.00000000  0.84915700  1
  Ti  Ti15  1  0.66666667  0.33333333  0.98417633  1
  Ti  Ti16  1  0.33333333  0.66666667  0.81750967  1
  Ti  Ti17  1  0.66666667  0.33333333  0.68249033  1
  P  P18  1  0.94651367  0.61318033  0.08333333  1
  P  P19  1  0.66666667  0.05348633  0.08333333  1
  P  P20  1  0.38681967  0.33333333  0.08333333  1
  P  P21  1  0.72015300  0.72015300  0.25000000  1
  P  P22  1  0.00000000  0.27984700  0.25000000  1
  P  P23  1  0.27984700  1.00000000  0.25000000  1
  P  P24  1  0.61318033  0.94651367  0.41666667  1
  P  P25  1  0.33333333  0.38681967  0.41666667  1
  P  P26  1  0.05348633  0.66666667  0.41666667  1
  P  P27  1  0.38681967  0.05348633  0.58333333  1
  P  P28  1  0.66666667  0.61318033  0.58333333  1
  P  P29  1  0.94651367  0.33333333  0.58333333  1
  P  P30  1  0.27984700  0.27984700  0.75000000  1
  P  P31  1  0.00000000  0.72015300  0.75000000  1
  P  P32  1  0.72015300  0.00000000  0.75000000  1
  P  P33  1  0.05348633  0.38681967  0.91666667  1
  P  P34  1  0.33333333  0.94651367  0.91666667  1
  P  P35  1  0.61318033  0.66666667  0.91666667  1
  O  O36  1  0.51806067  0.39566333  0.13422333  1
  O  O37  1  0.87760267  0.48193933  0.13422333  1
  O  O38  1  0.60433667  0.12239733  0.13422333  1
  O  O39  1  0.72899667  0.18472733  0.03244333  1
  O  O40  1  0.45573067  0.27100333  0.03244333  1
  O  O41  1  0.81527267  0.54426933  0.03244333  1
  O  O42  1  0.14860600  0.93767000  0.19911000  1
  O  O43  1  0.78906400  0.85139400  0.19911000  1
  O  O44  1  0.06233000  0.21093600  0.19911000  1
  O  O45  1  0.93767000  0.14860600  0.30089000  1
  O  O46  1  0.21093600  0.06233000  0.30089000  1
  O  O47  1  0.85139400  0.78906400  0.30089000  1
  O  O48  1  0.69775500  0.53418100  0.23188900  1
  O  O49  1  0.46581900  0.16357400  0.23188900  1
  O  O50  1  0.83642600  0.30224500  0.23188900  1
  O  O51  1  0.16357400  0.46581900  0.26811100  1
  O  O52  1  0.53418100  0.69775500  0.26811100  1
  O  O53  1  0.30224500  0.83642600  0.26811100  1
  O  O54  1  0.96891167  0.79915233  0.10144433  1
  O  O55  1  0.20084767  0.16975933  0.10144433  1
  O  O56  1  0.83024067  0.03108833  0.10144433  1
  O  O57  1  0.50309267  0.86751433  0.06522233  1
  O  O58  1  0.13248567  0.63557833  0.06522233  1
  O  O59  1  0.36442167  0.49690733  0.06522233  1
  O  O60  1  0.18472733  0.72899667  0.46755667  1
  O  O61  1  0.54426933  0.81527267  0.46755667  1
  O  O62  1  0.27100333  0.45573067  0.46755667  1
  O  O63  1  0.39566333  0.51806067  0.36577667  1
  O  O64  1  0.12239733  0.60433667  0.36577667  1
  O  O65  1  0.48193933  0.87760267  0.36577667  1
  O  O66  1  0.81527267  0.27100333  0.53244333  1
  O  O67  1  0.45573067  0.18472733  0.53244333  1
  O  O68  1  0.72899667  0.54426933  0.53244333  1
  O  O69  1  0.60433667  0.48193933  0.63422333  1
  O  O70  1  0.87760267  0.39566333  0.63422333  1
  O  O71  1  0.51806067  0.12239733  0.63422333  1
  O  O72  1  0.36442167  0.86751433  0.56522233  1
  O  O73  1  0.13248567  0.49690733  0.56522233  1
  O  O74  1  0.50309267  0.63557833  0.56522233  1
  O  O75  1  0.83024067  0.79915233  0.60144433  1
  O  O76  1  0.20084767  0.03108833  0.60144433  1
  O  O77  1  0.96891167  0.16975933  0.60144433  1
  O  O78  1  0.63557833  0.13248567  0.43477767  1
  O  O79  1  0.86751433  0.50309267  0.43477767  1
  O  O80  1  0.49690733  0.36442167  0.43477767  1
  O  O81  1  0.16975933  0.20084767  0.39855567  1
  O  O82  1  0.79915233  0.96891167  0.39855567  1
  O  O83  1  0.03108833  0.83024067  0.39855567  1
  O  O84  1  0.85139400  0.06233000  0.80089000  1
  O  O85  1  0.21093600  0.14860600  0.80089000  1
  O  O86  1  0.93767000  0.78906400  0.80089000  1
  O  O87  1  0.06233000  0.85139400  0.69911000  1
  O  O88  1  0.78906400  0.93767000  0.69911000  1
  O  O89  1  0.14860600  0.21093600  0.69911000  1
  O  O90  1  0.48193933  0.60433667  0.86577667  1
  O  O91  1  0.12239733  0.51806067  0.86577667  1
  O  O92  1  0.39566333  0.87760267  0.86577667  1
  O  O93  1  0.27100333  0.81527267  0.96755667  1
  O  O94  1  0.54426933  0.72899667  0.96755667  1
  O  O95  1  0.18472733  0.45573067  0.96755667  1
  O  O96  1  0.03108833  0.20084767  0.89855567  1
  O  O97  1  0.79915233  0.83024067  0.89855567  1
  O  O98  1  0.16975933  0.96891167  0.89855567  1
  O  O99  1  0.49690733  0.13248567  0.93477767  1
  O  O100  1  0.86751433  0.36442167  0.93477767  1
  O  O101  1  0.63557833  0.50309267  0.93477767  1
  O  O102  1  0.30224500  0.46581900  0.76811100  1
  O  O103  1  0.53418100  0.83642600  0.76811100  1
  O  O104  1  0.16357400  0.69775500  0.76811100  1
  O  O105  1  0.83642600  0.53418100  0.73188900  1
  O  O106  1  0.46581900  0.30224500  0.73188900  1
  O  O107  1  0.69775500  0.16357400  0.73188900  1
