# generated using pymatgen
data_Gd10S19
_symmetry_space_group_name_H-M   'P 1'
_cell_length_a   8.74634800
_cell_length_b   8.74634800
_cell_length_c   15.87897900
_cell_angle_alpha   90.00000000
_cell_angle_beta   90.00000000
_cell_angle_gamma   90.00000000
_symmetry_Int_Tables_number   1
_chemical_formula_structural   Gd10S19
_chemical_formula_sum   'Gd20 S38'
_cell_volume   1214.71971592
_cell_formula_units_Z   2
loop_
 _symmetry_equiv_pos_site_id
 _symmetry_equiv_pos_as_xyz
  1  'x, y, z'
loop_
 _atom_site_type_symbol
 _atom_site_label
 _atom_site_symmetry_multiplicity
 _atom_site_fract_x
 _atom_site_fract_y
 _atom_site_fract_z
 _atom_site_occupancy
  Gd  Gd0  1  0.30443600  0.60444400  0.14705000  1
  Gd  Gd1  1  0.00000000  0.50000000  0.86420900  1
  Gd  Gd2  1  0.90129500  0.79100200  0.12811800  1
  Gd  Gd3  1  0.80443600  0.10444400  0.35295000  1
  Gd  Gd4  1  0.70899800  0.40129500  0.62811800  1
  Gd  Gd5  1  0.09870500  0.20899800  0.12811800  1
  Gd  Gd6  1  0.59870500  0.70899800  0.37188200  1
  Gd  Gd7  1  0.50000000  0.00000000  0.13579100  1
  Gd  Gd8  1  0.40129500  0.29100200  0.37188200  1
  Gd  Gd9  1  0.19556400  0.89555600  0.35295000  1
  Gd  Gd10  1  0.20899800  0.90129500  0.87188200  1
  Gd  Gd11  1  0.00000000  0.50000000  0.36420900  1
  Gd  Gd12  1  0.50000000  0.00000000  0.63579100  1
  Gd  Gd13  1  0.29100200  0.59870500  0.62811800  1
  Gd  Gd14  1  0.79100200  0.09870500  0.87188200  1
  Gd  Gd15  1  0.60444400  0.69556400  0.85295000  1
  Gd  Gd16  1  0.39555600  0.30443600  0.85295000  1
  Gd  Gd17  1  0.69556400  0.39555600  0.14705000  1
  Gd  Gd18  1  0.89555600  0.80443600  0.64705000  1
  Gd  Gd19  1  0.10444400  0.19556400  0.64705000  1
  S  S20  1  0.29855600  0.59843500  0.32310200  1
  S  S21  1  0.69620600  0.39875700  0.81215500  1
  S  S22  1  0.59843500  0.70144400  0.67689800  1
  S  S23  1  0.79855600  0.09843500  0.17689800  1
  S  S24  1  0.86514700  0.32429900  0.99989600  1
  S  S25  1  0.60124300  0.69620600  0.18784500  1
  S  S26  1  0.13485300  0.67570100  0.99989600  1
  S  S27  1  0.00000000  0.50000000  0.68428600  1
  S  S28  1  0.89875700  0.80379400  0.31215500  1
  S  S29  1  0.32429900  0.13485300  0.00010400  1
  S  S30  1  0.67570100  0.86514700  0.00010400  1
  S  S31  1  0.39875700  0.30379400  0.18784500  1
  S  S32  1  0.44523500  0.77840700  0.00029100  1
  S  S33  1  0.09843500  0.20144400  0.82310200  1
  S  S34  1  0.27840700  0.05476500  0.50029100  1
  S  S35  1  0.94523500  0.27840700  0.49970900  1
  S  S36  1  0.55476500  0.22159300  0.00029100  1
  S  S37  1  0.80379400  0.10124300  0.68784500  1
  S  S38  1  0.77840700  0.55476500  0.99970900  1
  S  S39  1  0.10124300  0.19620600  0.31215500  1
  S  S40  1  0.30379400  0.60124300  0.81215500  1
  S  S41  1  0.19620600  0.89875700  0.68784500  1
  S  S42  1  0.90156500  0.79855600  0.82310200  1
  S  S43  1  0.40156500  0.29855600  0.67689800  1
  S  S44  1  0.05476500  0.72159300  0.49970900  1
  S  S45  1  0.50000000  0.50000000  0.50000000  1
  S  S46  1  0.50000000  0.00000000  0.31571400  1
  S  S47  1  0.50000000  0.00000000  0.81571400  1
  S  S48  1  0.36514700  0.82429900  0.50010400  1
  S  S49  1  0.70144400  0.40156500  0.32310200  1
  S  S50  1  0.63485300  0.17570100  0.50010400  1
  S  S51  1  0.17570100  0.36514700  0.49989600  1
  S  S52  1  0.82429900  0.63485300  0.49989600  1
  S  S53  1  0.22159300  0.44523500  0.99970900  1
  S  S54  1  0.72159300  0.94523500  0.50029100  1
  S  S55  1  0.00000000  0.50000000  0.18428600  1
  S  S56  1  0.20144400  0.90156500  0.17689800  1
  S  S57  1  0.00000000  0.00000000  0.00000000  1
