# generated using pymatgen
data_Li6Br3N
_symmetry_space_group_name_H-M   'P 1'
_cell_length_a   8.97156600
_cell_length_b   8.93242600
_cell_length_c   6.38934449
_cell_angle_alpha   90.00000000
_cell_angle_beta   134.42083713
_cell_angle_gamma   90.00000000
_symmetry_Int_Tables_number   1
_chemical_formula_structural   Li6Br3N
_chemical_formula_sum   'Li12 Br6 N2'
_cell_volume   365.69994002
_cell_formula_units_Z   2
loop_
 _symmetry_equiv_pos_site_id
 _symmetry_equiv_pos_as_xyz
  1  'x, y, z'
loop_
 _atom_site_type_symbol
 _atom_site_label
 _atom_site_symmetry_multiplicity
 _atom_site_fract_x
 _atom_site_fract_y
 _atom_site_fract_z
 _atom_site_occupancy
  Li  Li0  1  0.29586000  0.00000000  0.43051800  1
  Li  Li1  1  0.03153350  0.21545450  0.06569700  1
  Li  Li2  1  0.13858700  0.00000000  0.87272500  1
  Li  Li3  1  0.38781700  0.50000000  0.18234800  1
  Li  Li4  1  0.24059600  0.50000000  0.63395100  1
  Li  Li5  1  0.03153350  0.78454550  0.06569700  1
  Li  Li6  1  0.79586000  0.50000000  0.43051800  1
  Li  Li7  1  0.53153350  0.71545450  0.06569700  1
  Li  Li8  1  0.63858700  0.50000000  0.87272500  1
  Li  Li9  1  0.88781700  0.00000000  0.18234800  1
  Li  Li10  1  0.74059600  0.00000000  0.63395100  1
  Li  Li11  1  0.53153350  0.28454550  0.06569700  1
  Br  Br12  1  0.50052300  0.75015400  0.50102300  1
  Br  Br13  1  0.00143900  0.50000000  0.00346000  1
  Br  Br14  1  0.00052300  0.74984600  0.50102300  1
  Br  Br15  1  0.00052300  0.25015400  0.50102300  1
  Br  Br16  1  0.50143900  0.00000000  0.00346000  1
  Br  Br17  1  0.50052300  0.24984600  0.50102300  1
  N  N18  1  0.01378800  0.00000000  0.02795900  1
  N  N19  1  0.51378800  0.50000000  0.02795900  1
