# generated using pymatgen
data_Ag3SI
_symmetry_space_group_name_H-M   'P 1'
_cell_length_a   4.91261400
_cell_length_b   7.16907300
_cell_length_c   7.02294458
_cell_angle_alpha   90.00000000
_cell_angle_beta   90.66257230
_cell_angle_gamma   90.00000000
_symmetry_Int_Tables_number   1
_chemical_formula_structural   Ag3SI
_chemical_formula_sum   'Ag6 S2 I2'
_cell_volume   247.32376322
_cell_formula_units_Z   2
loop_
 _symmetry_equiv_pos_site_id
 _symmetry_equiv_pos_as_xyz
  1  'x, y, z'
loop_
 _atom_site_type_symbol
 _atom_site_label
 _atom_site_symmetry_multiplicity
 _atom_site_fract_x
 _atom_site_fract_y
 _atom_site_fract_z
 _atom_site_occupancy
  Ag  Ag0  1  0.61865200  0.26325200  0.49079300  1
  Ag  Ag1  1  0.48301100  0.30904900  0.06629800  1
  Ag  Ag2  1  0.51698900  0.80904900  0.93370200  1
  Ag  Ag3  1  0.38134800  0.76325200  0.50920700  1
  Ag  Ag4  1  0.99397100  0.42304600  0.82356700  1
  Ag  Ag5  1  0.00602900  0.92304600  0.17643300  1
  S  S6  1  0.49134400  0.49936000  0.75435700  1
  S  S7  1  0.50865600  0.99936000  0.24564300  1
  I  I8  1  0.99105400  0.00529400  0.73040100  1
  I  I9  1  0.00894600  0.50529400  0.26959900  1
