# generated using pymatgen
data_Gd8Zr7O26
_symmetry_space_group_name_H-M   'P 1'
_cell_length_a   13.03544931
_cell_length_b   7.61358000
_cell_length_c   13.04840615
_cell_angle_alpha   90.00000000
_cell_angle_beta   111.78945632
_cell_angle_gamma   90.00000000
_symmetry_Int_Tables_number   1
_chemical_formula_structural   Gd8Zr7O26
_chemical_formula_sum   'Gd16 Zr14 O52'
_cell_volume   1202.48487523
_cell_formula_units_Z   2
loop_
 _symmetry_equiv_pos_site_id
 _symmetry_equiv_pos_as_xyz
  1  'x, y, z'
loop_
 _atom_site_type_symbol
 _atom_site_label
 _atom_site_symmetry_multiplicity
 _atom_site_fract_x
 _atom_site_fract_y
 _atom_site_fract_z
 _atom_site_occupancy
  Gd  Gd0  1  0.00000000  0.00000000  0.00000000  1
  Gd  Gd1  1  0.25000000  0.25000000  0.00000000  1
  Gd  Gd2  1  0.24133000  0.00000000  0.24671600  1
  Gd  Gd3  1  0.75000000  0.25000000  0.00000000  1
  Gd  Gd4  1  0.25000000  0.75000000  0.50000000  1
  Gd  Gd5  1  0.25000000  0.25000000  0.50000000  1
  Gd  Gd6  1  0.50000000  0.00000000  0.50000000  1
  Gd  Gd7  1  0.25867000  0.50000000  0.75328400  1
  Gd  Gd8  1  0.50000000  0.50000000  0.00000000  1
  Gd  Gd9  1  0.75000000  0.75000000  0.00000000  1
  Gd  Gd10  1  0.74133000  0.50000000  0.24671600  1
  Gd  Gd11  1  0.25000000  0.75000000  0.00000000  1
  Gd  Gd12  1  0.75000000  0.25000000  0.50000000  1
  Gd  Gd13  1  0.75000000  0.75000000  0.50000000  1
  Gd  Gd14  1  0.00000000  0.50000000  0.50000000  1
  Gd  Gd15  1  0.75867000  0.00000000  0.75328400  1
  Zr  Zr16  1  0.24416900  0.50000000  0.26303100  1
  Zr  Zr17  1  0.00000000  0.00000000  0.50000000  1
  Zr  Zr18  1  0.98629550  0.74884050  0.23258500  1
  Zr  Zr19  1  0.25583100  0.00000000  0.73696900  1
  Zr  Zr20  1  0.98629550  0.25115950  0.23258500  1
  Zr  Zr21  1  0.51370450  0.75115950  0.76741500  1
  Zr  Zr22  1  0.51370450  0.24884050  0.76741500  1
  Zr  Zr23  1  0.74416900  0.00000000  0.26303100  1
  Zr  Zr24  1  0.50000000  0.50000000  0.50000000  1
  Zr  Zr25  1  0.48629550  0.24884050  0.23258500  1
  Zr  Zr26  1  0.75583100  0.50000000  0.73696900  1
  Zr  Zr27  1  0.48629550  0.75115950  0.23258500  1
  Zr  Zr28  1  0.01370450  0.25115950  0.76741500  1
  Zr  Zr29  1  0.01370450  0.74884050  0.76741500  1
  O  O30  1  0.69564400  0.50000000  0.06461600  1
  O  O31  1  0.94159800  0.50000000  0.28194300  1
  O  O32  1  0.93743950  0.27677750  0.06945400  1
  O  O33  1  0.18941600  0.50000000  0.56135500  1
  O  O34  1  0.16132150  0.28665450  0.28989600  1
  O  O35  1  0.93743950  0.72322250  0.06945400  1
  O  O36  1  0.16132150  0.71334550  0.28989600  1
  O  O37  1  0.45627700  0.50000000  0.79821200  1
  O  O38  1  0.32507400  0.50000000  0.42405000  1
  O  O39  1  0.31425900  0.31047300  0.19341000  1
  O  O40  1  0.46214950  0.28858450  0.58529200  1
  O  O41  1  0.53785050  0.28858450  0.41470800  1
  O  O42  1  0.68574100  0.31047300  0.80659000  1
  O  O43  1  0.96214950  0.21141550  0.58529200  1
  O  O44  1  0.81425900  0.18952700  0.19341000  1
  O  O45  1  0.18574100  0.18952700  0.80659000  1
  O  O46  1  0.04372300  0.00000000  0.20178800  1
  O  O47  1  0.17492600  0.00000000  0.57595000  1
  O  O48  1  0.03785050  0.21141550  0.41470800  1
  O  O49  1  0.33867850  0.78665450  0.71010400  1
  O  O50  1  0.56256050  0.77677750  0.93054600  1
  O  O51  1  0.33867850  0.21334550  0.71010400  1
  O  O52  1  0.31058400  0.00000000  0.43864500  1
  O  O53  1  0.56256050  0.22322250  0.93054600  1
  O  O54  1  0.55840200  0.00000000  0.71805700  1
  O  O55  1  0.80435600  0.00000000  0.93538400  1
  O  O56  1  0.19564400  0.00000000  0.06461600  1
  O  O57  1  0.44159800  0.00000000  0.28194300  1
  O  O58  1  0.43743950  0.77677750  0.06945400  1
  O  O59  1  0.68941600  0.00000000  0.56135500  1
  O  O60  1  0.66132150  0.78665450  0.28989600  1
  O  O61  1  0.43743950  0.22322250  0.06945400  1
  O  O62  1  0.66132150  0.21334550  0.28989600  1
  O  O63  1  0.95627700  0.00000000  0.79821200  1
  O  O64  1  0.82507400  0.00000000  0.42405000  1
  O  O65  1  0.81425900  0.81047300  0.19341000  1
  O  O66  1  0.96214950  0.78858450  0.58529200  1
  O  O67  1  0.03785050  0.78858450  0.41470800  1
  O  O68  1  0.18574100  0.81047300  0.80659000  1
  O  O69  1  0.46214950  0.71141550  0.58529200  1
  O  O70  1  0.31425900  0.68952700  0.19341000  1
  O  O71  1  0.68574100  0.68952700  0.80659000  1
  O  O72  1  0.54372300  0.50000000  0.20178800  1
  O  O73  1  0.67492600  0.50000000  0.57595000  1
  O  O74  1  0.53785050  0.71141550  0.41470800  1
  O  O75  1  0.83867850  0.28665450  0.71010400  1
  O  O76  1  0.06256050  0.27677750  0.93054600  1
  O  O77  1  0.83867850  0.71334550  0.71010400  1
  O  O78  1  0.81058400  0.50000000  0.43864500  1
  O  O79  1  0.06256050  0.72322250  0.93054600  1
  O  O80  1  0.05840200  0.50000000  0.71805700  1
  O  O81  1  0.30435600  0.50000000  0.93538400  1
