# generated using pymatgen
data_CaGdTh(PO4)3
_symmetry_space_group_name_H-M   'P 1'
_cell_length_a   6.44786200
_cell_length_b   6.76211885
_cell_length_c   20.88324397
_cell_angle_alpha   89.76153728
_cell_angle_beta   89.71115548
_cell_angle_gamma   75.91225369
_symmetry_Int_Tables_number   1
_chemical_formula_structural   CaGdTh(PO4)3
_chemical_formula_sum   'Ca4 Gd4 Th4 P12 O48'
_cell_volume   883.13426758
_cell_formula_units_Z   4
loop_
 _symmetry_equiv_pos_site_id
 _symmetry_equiv_pos_as_xyz
  1  'x, y, z'
loop_
 _atom_site_type_symbol
 _atom_site_label
 _atom_site_symmetry_multiplicity
 _atom_site_fract_x
 _atom_site_fract_y
 _atom_site_fract_z
 _atom_site_occupancy
  Ca  Ca0  1  0.90227600  0.28613400  0.77805500  1
  Ca  Ca1  1  0.39629400  0.78335100  0.05602900  1
  Ca  Ca2  1  0.09906900  0.71838300  0.21706700  1
  Ca  Ca3  1  0.09340900  0.71445700  0.55231500  1
  Gd  Gd4  1  0.90708600  0.28660500  0.45107900  1
  Gd  Gd5  1  0.60260600  0.21347500  0.61292600  1
  Gd  Gd6  1  0.59825900  0.21201000  0.28104200  1
  Gd  Gd7  1  0.09482300  0.71108500  0.88590600  1
  Th  Th8  1  0.90086600  0.28708100  0.11658400  1
  Th  Th9  1  0.60398900  0.21461000  0.94547400  1
  Th  Th10  1  0.39557100  0.78198200  0.71830500  1
  Th  Th11  1  0.39388600  0.77773000  0.38671700  1
  P  P12  1  0.88460000  0.80381000  0.72195300  1
  P  P13  1  0.88542200  0.80526600  0.38740600  1
  P  P14  1  0.88929600  0.80671900  0.05280500  1
  P  P15  1  0.61371600  0.69111600  0.88780700  1
  P  P16  1  0.61560100  0.69730600  0.55405400  1
  P  P17  1  0.61047800  0.70032100  0.22179600  1
  P  P18  1  0.38562800  0.30595500  0.77885800  1
  P  P19  1  0.38831900  0.30403600  0.44575900  1
  P  P20  1  0.38428300  0.30238100  0.11206200  1
  P  P21  1  0.11750000  0.19301800  0.94510400  1
  P  P22  1  0.11248500  0.19976500  0.61133900  1
  P  P23  1  0.11317700  0.20005300  0.28034000  1
  O  O24  1  0.99813800  0.87987200  0.77937500  1
  O  O25  1  0.99825200  0.89112200  0.44270600  1
  O  O26  1  0.99210500  0.89319600  0.11001900  1
  O  O27  1  0.94305900  0.25618000  0.99832600  1
  O  O28  1  0.93437700  0.25125600  0.66269600  1
  O  O29  1  0.93603600  0.24973000  0.33217800  1
  O  O30  1  0.80572100  0.52222200  0.53368900  1
  O  O31  1  0.81305600  0.52425100  0.86889100  1
  O  O32  1  0.80329400  0.52231700  0.20107300  1
  O  O33  1  0.77660400  0.63046400  0.73879000  1
  O  O34  1  0.78347400  0.62783100  0.40566400  1
  O  O35  1  0.79048700  0.62790200  0.07106300  1
  O  O36  1  0.71210300  0.87617600  0.57125100  1
  O  O37  1  0.71202900  0.87168000  0.90479400  1
  O  O38  1  0.71292300  0.87637500  0.23837100  1
  O  O39  1  0.68747700  0.97363800  0.70091200  1
  O  O40  1  0.68259200  0.96972500  0.36709300  1
  O  O41  1  0.69422700  0.98011700  0.03189600  1
  O  O42  1  0.49821200  0.60917100  0.94373100  1
  O  O43  1  0.50723800  0.61832300  0.61322700  1
  O  O44  1  0.51282100  0.61667300  0.28255300  1
  O  O45  1  0.55779600  0.24742900  0.83226500  1
  O  O46  1  0.56363900  0.24524000  0.49703900  1
  O  O47  1  0.55953500  0.24693600  0.16417800  1
  O  O48  1  0.43881600  0.75529000  0.83571700  1
  O  O49  1  0.44205200  0.75064400  0.50110100  1
  O  O50  1  0.43628700  0.74963800  0.17067600  1
  O  O51  1  0.49571700  0.38444500  0.72091300  1
  O  O52  1  0.50343000  0.37634000  0.05463300  1
  O  O53  1  0.50110500  0.38182900  0.38750600  1
  O  O54  1  0.31883900  0.03075300  0.96490300  1
  O  O55  1  0.30740300  0.02384200  0.63355300  1
  O  O56  1  0.30699400  0.02395200  0.30126500  1
  O  O57  1  0.28859900  0.12618200  0.76233800  1
  O  O58  1  0.28693900  0.12532700  0.42886400  1
  O  O59  1  0.28097600  0.12686700  0.09484100  1
  O  O60  1  0.21461600  0.37345200  0.92701000  1
  O  O61  1  0.22568200  0.36939900  0.59562900  1
  O  O62  1  0.22465400  0.36947300  0.26340600  1
  O  O63  1  0.19614600  0.48208300  0.79912500  1
  O  O64  1  0.19112700  0.47595200  0.46323500  1
  O  O65  1  0.18766700  0.47178700  0.13137100  1
  O  O66  1  0.06155300  0.74684600  0.67032800  1
  O  O67  1  0.05963300  0.74937500  0.99944400  1
  O  O68  1  0.06136100  0.74492700  0.33565200  1
  O  O69  1  0.99636700  0.11058000  0.89154000  1
  O  O70  1  0.00669400  0.12171000  0.55292400  1
  O  O71  1  0.00350800  0.12483500  0.22146000  1
