# generated using pymatgen
data_K6Ba2CaU6O24
_symmetry_space_group_name_H-M   'P 1'
_cell_length_a   8.72436200
_cell_length_b   12.33969000
_cell_length_c   24.68279900
_cell_angle_alpha   90.00000000
_cell_angle_beta   90.00000000
_cell_angle_gamma   90.00000000
_symmetry_Int_Tables_number   1
_chemical_formula_structural   K6Ba2CaU6O24
_chemical_formula_sum   'K24 Ba8 Ca4 U24 O96'
_cell_volume   2657.24949691
_cell_formula_units_Z   4
loop_
 _symmetry_equiv_pos_site_id
 _symmetry_equiv_pos_as_xyz
  1  'x, y, z'
loop_
 _atom_site_type_symbol
 _atom_site_label
 _atom_site_symmetry_multiplicity
 _atom_site_fract_x
 _atom_site_fract_y
 _atom_site_fract_z
 _atom_site_occupancy
  K  K0  1  0.25543500  0.25000000  0.25148700  1
  K  K1  1  0.25000000  0.25000000  0.00000000  1
  K  K2  1  0.25000000  0.00000000  0.12449500  1
  K  K3  1  0.25000000  0.75000000  0.00000000  1
  K  K4  1  0.74456500  0.25000000  0.25148700  1
  K  K5  1  0.75000000  0.00000000  0.12449500  1
  K  K6  1  0.74456500  0.75000000  0.74851300  1
  K  K7  1  0.75000000  0.00000000  0.87550500  1
  K  K8  1  0.25000000  0.00000000  0.87550500  1
  K  K9  1  0.25543500  0.75000000  0.74851300  1
  K  K10  1  0.25000000  0.75000000  0.50000000  1
  K  K11  1  0.25000000  0.25000000  0.50000000  1
  K  K12  1  0.75543500  0.75000000  0.25148700  1
  K  K13  1  0.75000000  0.75000000  0.00000000  1
  K  K14  1  0.75000000  0.50000000  0.12449500  1
  K  K15  1  0.75000000  0.25000000  0.00000000  1
  K  K16  1  0.24456500  0.75000000  0.25148700  1
  K  K17  1  0.25000000  0.50000000  0.12449500  1
  K  K18  1  0.24456500  0.25000000  0.74851300  1
  K  K19  1  0.25000000  0.50000000  0.87550500  1
  K  K20  1  0.75000000  0.50000000  0.87550500  1
  K  K21  1  0.75543500  0.25000000  0.74851300  1
  K  K22  1  0.75000000  0.25000000  0.50000000  1
  K  K23  1  0.75000000  0.75000000  0.50000000  1
  Ba  Ba24  1  0.25000000  0.00000000  0.62582500  1
  Ba  Ba25  1  0.75000000  0.00000000  0.62582500  1
  Ba  Ba26  1  0.75000000  0.00000000  0.37417500  1
  Ba  Ba27  1  0.25000000  0.00000000  0.37417500  1
  Ba  Ba28  1  0.75000000  0.50000000  0.62582500  1
  Ba  Ba29  1  0.25000000  0.50000000  0.62582500  1
  Ba  Ba30  1  0.25000000  0.50000000  0.37417500  1
  Ba  Ba31  1  0.75000000  0.50000000  0.37417500  1
  Ca  Ca32  1  0.50000000  0.75000000  0.12470300  1
  Ca  Ca33  1  0.50000000  0.25000000  0.87529700  1
  Ca  Ca34  1  0.00000000  0.25000000  0.12470300  1
  Ca  Ca35  1  0.00000000  0.75000000  0.87529700  1
  U  U36  1  0.50000000  0.99955700  0.24755000  1
  U  U37  1  0.00000000  0.00000000  0.00000000  1
  U  U38  1  0.50000000  0.50044300  0.24755000  1
  U  U39  1  0.50000000  0.00044300  0.75245000  1
  U  U40  1  0.50000000  0.25000000  0.12401600  1
  U  U41  1  0.50000000  0.00000000  0.00000000  1
  U  U42  1  0.00000000  0.00000000  0.50000000  1
  U  U43  1  0.50000000  0.75000000  0.87598400  1
  U  U44  1  0.50000000  0.49955700  0.75245000  1
  U  U45  1  0.50000000  0.25000000  0.62596600  1
  U  U46  1  0.50000000  0.00000000  0.50000000  1
  U  U47  1  0.50000000  0.75000000  0.37403400  1
  U  U48  1  0.00000000  0.49955700  0.24755000  1
  U  U49  1  0.50000000  0.50000000  0.00000000  1
  U  U50  1  0.00000000  0.00044300  0.24755000  1
  U  U51  1  0.00000000  0.50044300  0.75245000  1
  U  U52  1  0.00000000  0.75000000  0.12401600  1
  U  U53  1  0.00000000  0.50000000  0.00000000  1
  U  U54  1  0.50000000  0.50000000  0.50000000  1
  U  U55  1  0.00000000  0.25000000  0.87598400  1
  U  U56  1  0.00000000  0.99955700  0.75245000  1
  U  U57  1  0.00000000  0.75000000  0.62596600  1
  U  U58  1  0.00000000  0.50000000  0.50000000  1
  U  U59  1  0.00000000  0.25000000  0.37403400  1
  O  O60  1  0.50000000  0.10278800  0.30533900  1
  O  O61  1  0.50000000  0.88168000  0.31382700  1
  O  O62  1  0.75000000  0.00000000  0.25220000  1
  O  O63  1  0.50000000  0.61431000  0.19232900  1
  O  O64  1  0.50000000  0.61276400  0.05636800  1
  O  O65  1  0.50000000  0.61832000  0.31382700  1
  O  O66  1  0.50000000  0.37552600  0.06218700  1
  O  O67  1  0.50000000  0.37323800  0.18632100  1
  O  O68  1  0.25000000  0.00000000  0.00000000  1
  O  O69  1  0.27384800  0.25000000  0.12488800  1
  O  O70  1  0.50000000  0.11431000  0.80767100  1
  O  O71  1  0.50000000  0.39721200  0.30533900  1
  O  O72  1  0.72615200  0.25000000  0.12488800  1
  O  O73  1  0.25000000  0.00000000  0.25220000  1
  O  O74  1  0.50000000  0.12447400  0.06218700  1
  O  O75  1  0.50000000  0.87323800  0.81367900  1
  O  O76  1  0.50000000  0.87552600  0.93781300  1
  O  O77  1  0.50000000  0.12676200  0.18632100  1
  O  O78  1  0.75000000  0.00000000  0.74780000  1
  O  O79  1  0.27384800  0.75000000  0.87511200  1
  O  O80  1  0.50000000  0.60446500  0.55714700  1
  O  O81  1  0.50000000  0.11276400  0.94363200  1
  O  O82  1  0.50000000  0.88569000  0.19232900  1
  O  O83  1  0.50000000  0.88723600  0.05636800  1
  O  O84  1  0.72615200  0.75000000  0.87511200  1
  O  O85  1  0.75000000  0.00000000  0.00000000  1
  O  O86  1  0.50000000  0.62676200  0.81367900  1
  O  O87  1  0.50000000  0.37948500  0.56538400  1
  O  O88  1  0.50000000  0.38168000  0.68617300  1
  O  O89  1  0.25000000  0.00000000  0.50000000  1
  O  O90  1  0.50000000  0.62447400  0.93781300  1
  O  O91  1  0.50000000  0.60278800  0.69466100  1
  O  O92  1  0.28186900  0.25000000  0.62516400  1
  O  O93  1  0.50000000  0.10446500  0.44285300  1
  O  O94  1  0.50000000  0.38569000  0.80767100  1
  O  O95  1  0.50000000  0.38723600  0.94363200  1
  O  O96  1  0.71813100  0.25000000  0.62516400  1
  O  O97  1  0.50000000  0.12051500  0.56538400  1
  O  O98  1  0.25000000  0.00000000  0.74780000  1
  O  O99  1  0.50000000  0.87948500  0.43461600  1
  O  O100  1  0.50000000  0.11832000  0.68617300  1
  O  O101  1  0.28186900  0.75000000  0.37483600  1
  O  O102  1  0.50000000  0.89721200  0.69466100  1
  O  O103  1  0.50000000  0.89553500  0.55714700  1
  O  O104  1  0.71813100  0.75000000  0.37483600  1
  O  O105  1  0.75000000  0.00000000  0.50000000  1
  O  O106  1  0.50000000  0.62051500  0.43461600  1
  O  O107  1  0.50000000  0.39553500  0.44285300  1
  O  O108  1  0.00000000  0.60278800  0.30533900  1
  O  O109  1  0.00000000  0.38168000  0.31382700  1
  O  O110  1  0.25000000  0.50000000  0.25220000  1
  O  O111  1  0.00000000  0.11431000  0.19232900  1
  O  O112  1  0.00000000  0.11276400  0.05636800  1
  O  O113  1  0.00000000  0.11832000  0.31382700  1
  O  O114  1  0.00000000  0.87552600  0.06218700  1
  O  O115  1  0.00000000  0.87323800  0.18632100  1
  O  O116  1  0.75000000  0.50000000  0.00000000  1
  O  O117  1  0.77384800  0.75000000  0.12488800  1
  O  O118  1  0.00000000  0.61431000  0.80767100  1
  O  O119  1  0.00000000  0.89721200  0.30533900  1
  O  O120  1  0.22615200  0.75000000  0.12488800  1
  O  O121  1  0.75000000  0.50000000  0.25220000  1
  O  O122  1  0.00000000  0.62447400  0.06218700  1
  O  O123  1  0.00000000  0.37323800  0.81367900  1
  O  O124  1  0.00000000  0.37552600  0.93781300  1
  O  O125  1  0.00000000  0.62676200  0.18632100  1
  O  O126  1  0.25000000  0.50000000  0.74780000  1
  O  O127  1  0.77384800  0.25000000  0.87511200  1
  O  O128  1  0.00000000  0.10446500  0.55714700  1
  O  O129  1  0.00000000  0.61276400  0.94363200  1
  O  O130  1  0.00000000  0.38569000  0.19232900  1
  O  O131  1  0.00000000  0.38723600  0.05636800  1
  O  O132  1  0.22615200  0.25000000  0.87511200  1
  O  O133  1  0.25000000  0.50000000  0.00000000  1
  O  O134  1  0.00000000  0.12676200  0.81367900  1
  O  O135  1  0.00000000  0.87948500  0.56538400  1
  O  O136  1  0.00000000  0.88168000  0.68617300  1
  O  O137  1  0.75000000  0.50000000  0.50000000  1
  O  O138  1  0.00000000  0.12447400  0.93781300  1
  O  O139  1  0.00000000  0.10278800  0.69466100  1
  O  O140  1  0.78186900  0.75000000  0.62516400  1
  O  O141  1  0.00000000  0.60446500  0.44285300  1
  O  O142  1  0.00000000  0.88569000  0.80767100  1
  O  O143  1  0.00000000  0.88723600  0.94363200  1
  O  O144  1  0.21813100  0.75000000  0.62516400  1
  O  O145  1  0.00000000  0.62051500  0.56538400  1
  O  O146  1  0.75000000  0.50000000  0.74780000  1
  O  O147  1  0.00000000  0.37948500  0.43461600  1
  O  O148  1  0.00000000  0.61832000  0.68617300  1
  O  O149  1  0.78186900  0.25000000  0.37483600  1
  O  O150  1  0.00000000  0.39721200  0.69466100  1
  O  O151  1  0.00000000  0.39553500  0.55714700  1
  O  O152  1  0.21813100  0.25000000  0.37483600  1
  O  O153  1  0.25000000  0.50000000  0.50000000  1
  O  O154  1  0.00000000  0.12051500  0.43461600  1
  O  O155  1  0.00000000  0.89553500  0.44285300  1
