# generated using pymatgen
data_SiO2
_symmetry_space_group_name_H-M   'P 1'
_cell_length_a   5.02953000
_cell_length_b   8.38991000
_cell_length_c   14.14105200
_cell_angle_alpha   90.00000000
_cell_angle_beta   90.00000000
_cell_angle_gamma   90.00000000
_symmetry_Int_Tables_number   1
_chemical_formula_structural   SiO2
_chemical_formula_sum   'Si12 O24'
_cell_volume   596.71427072
_cell_formula_units_Z   12
loop_
 _symmetry_equiv_pos_site_id
 _symmetry_equiv_pos_as_xyz
  1  'x, y, z'
loop_
 _atom_site_type_symbol
 _atom_site_label
 _atom_site_symmetry_multiplicity
 _atom_site_fract_x
 _atom_site_fract_y
 _atom_site_fract_z
 _atom_site_occupancy
  Si  Si0  1  0.38414100  0.31895200  0.20176500  1
  Si  Si1  1  0.88414100  0.18104800  0.29823500  1
  Si  Si2  1  0.11585900  0.81895200  0.29823500  1
  Si  Si3  1  0.61585900  0.68104800  0.20176500  1
  Si  Si4  1  0.61585900  0.68104800  0.79823500  1
  Si  Si5  1  0.11585900  0.81895200  0.70176500  1
  Si  Si6  1  0.88414100  0.18104800  0.70176500  1
  Si  Si7  1  0.38414100  0.31895200  0.79823500  1
  Si  Si8  1  0.24740000  0.88243800  0.50000000  1
  Si  Si9  1  0.74740000  0.61756200  0.00000000  1
  Si  Si10  1  0.25260000  0.38243800  0.00000000  1
  Si  Si11  1  0.75260000  0.11756200  0.50000000  1
  O  O12  1  0.13161600  0.30074800  0.27389700  1
  O  O13  1  0.63161600  0.19925200  0.22610300  1
  O  O14  1  0.36838400  0.80074800  0.22610300  1
  O  O15  1  0.86838400  0.69925200  0.27389700  1
  O  O16  1  0.86838400  0.69925200  0.72610300  1
  O  O17  1  0.36838400  0.80074800  0.77389700  1
  O  O18  1  0.63161600  0.19925200  0.77389700  1
  O  O19  1  0.13161600  0.30074800  0.72610300  1
  O  O20  1  0.26890200  0.27538700  0.09602400  1
  O  O21  1  0.76890200  0.22461300  0.40397600  1
  O  O22  1  0.23109800  0.77538700  0.40397600  1
  O  O23  1  0.73109800  0.72461300  0.09602400  1
  O  O24  1  0.73109800  0.72461300  0.90397600  1
  O  O25  1  0.23109800  0.77538700  0.59602400  1
  O  O26  1  0.76890200  0.22461300  0.59602400  1
  O  O27  1  0.26890200  0.27538700  0.90397600  1
  O  O28  1  0.50000000  0.50000000  0.20798600  1
  O  O29  1  0.00000000  0.00000000  0.29201400  1
  O  O30  1  0.50000000  0.50000000  0.79201400  1
  O  O31  1  0.00000000  0.00000000  0.70798600  1
  O  O32  1  0.00000000  0.00000000  0.50000000  1
  O  O33  1  0.50000000  0.50000000  0.00000000  1
  O  O34  1  0.50000000  0.00000000  0.50000000  1
  O  O35  1  0.00000000  0.50000000  0.00000000  1
