# generated using pymatgen
data_Zr2N2O
_symmetry_space_group_name_H-M   'P 1'
_cell_length_a   8.85519128
_cell_length_b   8.87788546
_cell_length_c   8.87822413
_cell_angle_alpha   109.59402205
_cell_angle_beta   109.27203833
_cell_angle_gamma   109.42277912
_symmetry_Int_Tables_number   1
_chemical_formula_structural   Zr2N2O
_chemical_formula_sum   'Zr16 N16 O8'
_cell_volume   538.11654212
_cell_formula_units_Z   8
loop_
 _symmetry_equiv_pos_site_id
 _symmetry_equiv_pos_as_xyz
  1  'x, y, z'
loop_
 _atom_site_type_symbol
 _atom_site_label
 _atom_site_symmetry_multiplicity
 _atom_site_fract_x
 _atom_site_fract_y
 _atom_site_fract_z
 _atom_site_occupancy
  Zr  Zr0  1  0.21785885  0.97042778  0.24059896  1
  Zr  Zr1  1  0.98843408  0.48157718  0.51011344  1
  Zr  Zr2  1  0.03140758  0.25210122  0.22077942  1
  Zr  Zr3  1  0.24371301  0.78027958  0.95974670  1
  Zr  Zr4  1  0.46572067  0.75716823  0.28374990  1
  Zr  Zr5  1  0.25216370  0.29244245  0.46725370  1
  Zr  Zr6  1  0.50821511  0.51047945  0.98140389  1
  Zr  Zr7  1  0.99779214  0.99016204  0.01280902  1
  Zr  Zr8  1  0.28301175  0.53515676  0.75107367  1
  Zr  Zr9  1  0.71675825  0.45948843  0.25164299  1
  Zr  Zr10  1  0.49642020  0.01060503  0.49390697  1
  Zr  Zr11  1  0.75553757  0.71633307  0.53217746  1
  Zr  Zr12  1  0.74281612  0.21058695  0.03831707  1
  Zr  Zr13  1  0.53652176  0.25843670  0.71267813  1
  Zr  Zr14  1  0.95947416  0.74005846  0.79584511  1
  Zr  Zr15  1  0.78505591  0.03296417  0.75359452  1
  N  N16  1  0.25766974  0.53129601  0.01863760  1
  N  N17  1  0.23002084  0.76203004  0.72494181  1
  N  N18  1  0.23149390  0.48956535  0.54333641  1
  N  N19  1  0.72688707  0.95014289  0.03548016  1
  N  N20  1  0.46351632  0.00803673  0.26467604  1
  N  N21  1  0.45187210  0.22478319  0.51245334  1
  N  N22  1  0.27379272  0.04283513  0.96944210  1
  N  N23  1  0.48707728  0.45710663  0.77168973  1
  N  N24  1  0.95500949  0.96861505  0.27213086  1
  N  N25  1  0.72922280  0.77399718  0.75921808  1
  N  N26  1  0.96732886  0.73091133  0.04195223  1
  N  N27  1  0.77809263  0.51616455  0.45139859  1
  N  N28  1  0.77322312  0.23796071  0.27222155  1
  N  N29  1  0.73858994  0.46739198  0.98795772  1
  N  N30  1  0.76103510  0.27293945  0.77129807  1
  N  N31  1  0.99082009  0.25869483  0.46828961  1
  O  O32  1  0.01425659  0.74016197  0.53102571  1
  O  O33  1  0.24132837  0.73010689  0.22874098  1
  O  O34  1  0.03502138  0.27381553  0.95061913  1
  O  O35  1  0.04655119  0.03749756  0.72656773  1
  O  O36  1  0.27625614  0.22587743  0.24006126  1
  O  O37  1  0.50675905  0.54183477  0.22843751  1
  O  O38  1  0.54728239  0.77229003  0.48649151  1
  O  O39  1  0.53599206  0.98767727  0.73724135  1
