# generated using pymatgen
data_Na21S7Cl(O14F3)2
_symmetry_space_group_name_H-M   'P 1'
_cell_length_a   12.33823033
_cell_length_b   12.33823033
_cell_length_c   19.57228000
_cell_angle_alpha   90.00000000
_cell_angle_beta   90.00000000
_cell_angle_gamma   120.00000000
_symmetry_Int_Tables_number   1
_chemical_formula_structural   Na21S7Cl(O14F3)2
_chemical_formula_sum   'Na63 S21 Cl3 O84 F18'
_cell_volume   2580.34513269
_cell_formula_units_Z   3
loop_
 _symmetry_equiv_pos_site_id
 _symmetry_equiv_pos_as_xyz
  1  'x, y, z'
loop_
 _atom_site_type_symbol
 _atom_site_label
 _atom_site_symmetry_multiplicity
 _atom_site_fract_x
 _atom_site_fract_y
 _atom_site_fract_z
 _atom_site_occupancy
  Na  Na0  1  0.66432133  0.51076767  0.93403000  1
  Na  Na1  1  0.00000000  0.82340550  0.09597200  1
  Na  Na2  1  0.00000000  0.18912750  0.92885400  1
  Na  Na3  1  0.52134533  0.85247867  0.10308100  1
  Na  Na4  1  0.00000000  0.17771050  0.64759100  1
  Na  Na5  1  0.84090933  0.17444367  0.51537400  1
  Na  Na6  1  0.82555633  0.66646567  0.51537400  1
  Na  Na7  1  0.82228950  0.82228950  0.64759100  1
  Na  Na8  1  0.00000000  0.48762350  0.79227800  1
  Na  Na9  1  0.33353433  0.15909067  0.51537400  1
  Na  Na10  1  0.66886667  0.14752133  0.10308100  1
  Na  Na11  1  0.48661533  0.15285067  0.65339500  1
  Na  Na12  1  0.51843233  0.85029567  0.38488900  1
  Na  Na13  1  0.84948233  0.18323267  0.79404600  1
  Na  Na14  1  0.51338467  0.66623533  0.65339500  1
  Na  Na15  1  0.17659450  0.17659450  0.09597200  1
  Na  Na16  1  0.82340550  0.00000000  0.09597200  1
  Na  Na17  1  0.14752133  0.66886667  0.10308100  1
  Na  Na18  1  0.33268333  0.18034467  0.23867300  1
  Na  Na19  1  0.66813667  0.14970433  0.38488900  1
  Na  Na20  1  0.15909067  0.33353433  0.51537400  1
  Na  Na21  1  0.18034467  0.33268333  0.23867300  1
  Na  Na22  1  0.15355367  0.48923233  0.93403000  1
  Na  Na23  1  0.18912750  0.00000000  0.92885400  1
  Na  Na24  1  0.51733450  0.00000000  0.23574500  1
  Na  Na25  1  0.85029567  0.51843233  0.38488900  1
  Na  Na26  1  0.00000000  0.81583950  0.37905200  1
  Na  Na27  1  0.18323267  0.84948233  0.79404600  1
  Na  Na28  1  0.51076767  0.66432133  0.93403000  1
  Na  Na29  1  0.66624967  0.81676733  0.79404600  1
  Na  Na30  1  0.51568950  0.00000000  0.51732900  1
  Na  Na31  1  0.17771050  0.00000000  0.64759100  1
  Na  Na32  1  0.81676733  0.66624967  0.79404600  1
  Na  Na33  1  0.15051767  0.33375033  0.79404600  1
  Na  Na34  1  0.84714933  0.33376467  0.65339500  1
  Na  Na35  1  0.85247867  0.52134533  0.10308100  1
  Na  Na36  1  0.00000000  0.51568950  0.51732900  1
  Na  Na37  1  0.33376467  0.84714933  0.65339500  1
  Na  Na38  1  0.48431050  0.48431050  0.51732900  1
  Na  Na39  1  0.51237650  0.51237650  0.79227800  1
  Na  Na40  1  0.14970433  0.66813667  0.38488900  1
  Na  Na41  1  0.47865467  0.33113333  0.10308100  1
  Na  Na42  1  0.18416050  0.18416050  0.37905200  1
  Na  Na43  1  0.66646567  0.82555633  0.51537400  1
  Na  Na44  1  0.15233867  0.81965533  0.23867300  1
  Na  Na45  1  0.84644633  0.33567867  0.93403000  1
  Na  Na46  1  0.33186333  0.48156767  0.38488900  1
  Na  Na47  1  0.81965533  0.15233867  0.23867300  1
  Na  Na48  1  0.66731667  0.84766133  0.23867300  1
  Na  Na49  1  0.81583950  0.00000000  0.37905200  1
  Na  Na50  1  0.33375033  0.15051767  0.79404600  1
  Na  Na51  1  0.33567867  0.84644633  0.93403000  1
  Na  Na52  1  0.33113333  0.47865467  0.10308100  1
  Na  Na53  1  0.66623533  0.51338467  0.65339500  1
  Na  Na54  1  0.81087250  0.81087250  0.92885400  1
  Na  Na55  1  0.84766133  0.66731667  0.23867300  1
  Na  Na56  1  0.17444367  0.84090933  0.51537400  1
  Na  Na57  1  0.48923233  0.15355367  0.93403000  1
  Na  Na58  1  0.48266550  0.48266550  0.23574500  1
  Na  Na59  1  0.00000000  0.51733450  0.23574500  1
  Na  Na60  1  0.48156767  0.33186333  0.38488900  1
  Na  Na61  1  0.15285067  0.48661533  0.65339500  1
  Na  Na62  1  0.48762350  0.00000000  0.79227800  1
  S  S63  1  0.00000000  0.66696550  0.93893000  1
  S  S64  1  0.00000000  0.33452250  0.09390100  1
  S  S65  1  0.66666667  0.33333333  0.52677900  1
  S  S66  1  0.33333333  0.66666667  0.25550400  1
  S  S67  1  0.66350600  0.66350600  0.36834800  1
  S  S68  1  0.66666667  0.33333333  0.25550400  1
  S  S69  1  0.00000000  0.00000000  0.78056700  1
  S  S70  1  0.00000000  0.00000000  0.50684400  1
  S  S71  1  0.33025700  0.33025700  0.66648000  1
  S  S72  1  0.66974300  0.00000000  0.66648000  1
  S  S73  1  0.33649400  0.00000000  0.36834800  1
  S  S74  1  0.33333333  0.66666667  0.52677900  1
  S  S75  1  0.00000000  0.66974300  0.66648000  1
  S  S76  1  0.66696550  0.00000000  0.93893000  1
  S  S77  1  0.33303450  0.33303450  0.93893000  1
  S  S78  1  0.00000000  0.33649400  0.36834800  1
  S  S79  1  0.33452250  0.00000000  0.09390100  1
  S  S80  1  0.33333333  0.66666667  0.79541300  1
  S  S81  1  0.66666667  0.33333333  0.79541300  1
  S  S82  1  0.00000000  0.00000000  0.23831700  1
  S  S83  1  0.66547750  0.66547750  0.09390100  1
  Cl  Cl84  1  0.33333333  0.66666667  0.03008500  1
  Cl  Cl85  1  0.66666667  0.33333333  0.03008500  1
  Cl  Cl86  1  0.00000000  0.00000000  0.00043400  1
  O  O87  1  0.00000000  0.88567850  0.26371600  1
  O  O88  1  0.88624533  0.21988367  0.11957600  1
  O  O89  1  0.55256950  0.00000000  0.91362500  1
  O  O90  1  0.33333333  0.66666667  0.87197400  1
  O  O91  1  0.77843433  0.45015867  0.50195100  1
  O  O92  1  0.55059100  0.55059100  0.39575000  1
  O  O93  1  0.44940900  0.00000000  0.39575000  1
  O  O94  1  0.22107933  0.88582167  0.39239700  1
  O  O95  1  0.00000000  0.00000000  0.16180900  1
  O  O96  1  0.67606950  0.00000000  0.74312300  1
  O  O97  1  0.66583933  0.88545567  0.91302900  1
  O  O98  1  0.11435250  0.00000000  0.80546600  1
  O  O99  1  0.55176333  0.33174367  0.23019100  1
  O  O100  1  0.32827567  0.54984133  0.50195100  1
  O  O101  1  0.33187500  0.33187500  0.01549100  1
  O  O102  1  0.54984133  0.32827567  0.50195100  1
  O  O103  1  0.44823667  0.77998033  0.23019100  1
  O  O104  1  0.88567850  0.00000000  0.26371600  1
  O  O105  1  0.78152333  0.11422967  0.63902700  1
  O  O106  1  0.21961633  0.33416067  0.91302900  1
  O  O107  1  0.00000000  0.11423450  0.53215300  1
  O  O108  1  0.66058000  0.66058000  0.29158700  1
  O  O109  1  0.88582167  0.22107933  0.39239700  1
  O  O110  1  0.00000000  0.67606950  0.74312300  1
  O  O111  1  0.00000000  0.44875750  0.11992300  1
  O  O112  1  0.00000000  0.66812500  0.01549100  1
  O  O113  1  0.33333333  0.66666667  0.60359600  1
  O  O114  1  0.33416067  0.21961633  0.91302900  1
  O  O115  1  0.66666667  0.33333333  0.33263200  1
  O  O116  1  0.44875750  0.00000000  0.11992300  1
  O  O117  1  0.11432150  0.11432150  0.26371600  1
  O  O118  1  0.55362350  0.00000000  0.64502300  1
  O  O119  1  0.67172433  0.22156567  0.50195100  1
  O  O120  1  0.88577033  0.66729367  0.63902700  1
  O  O121  1  0.11422967  0.78152333  0.63902700  1
  O  O122  1  0.11417833  0.33525767  0.39239700  1
  O  O123  1  0.44743050  0.44743050  0.91362500  1
  O  O124  1  0.33522250  0.00000000  0.01770200  1
  O  O125  1  0.00000000  0.44940900  0.39575000  1
  O  O126  1  0.55304433  0.21853267  0.76994500  1
  O  O127  1  0.22156567  0.67172433  0.50195100  1
  O  O128  1  0.00000000  0.55256950  0.91362500  1
  O  O129  1  0.78011633  0.66636167  0.11957600  1
  O  O130  1  0.33270633  0.21847667  0.63902700  1
  O  O131  1  0.33525767  0.11417833  0.39239700  1
  O  O132  1  0.11375467  0.33363833  0.11957600  1
  O  O133  1  0.00000000  0.11435250  0.80546600  1
  O  O134  1  0.00000000  0.33942000  0.29158700  1
  O  O135  1  0.66666667  0.33333333  0.87197400  1
  O  O136  1  0.33942000  0.00000000  0.29158700  1
  O  O137  1  0.33451167  0.78146733  0.76994500  1
  O  O138  1  0.77892067  0.66474233  0.39239700  1
  O  O139  1  0.00000000  0.55362350  0.64502300  1
  O  O140  1  0.78146733  0.33451167  0.76994500  1
  O  O141  1  0.66666667  0.33333333  0.60359600  1
  O  O142  1  0.00000000  0.00000000  0.70353900  1
  O  O143  1  0.88564750  0.88564750  0.80546600  1
  O  O144  1  0.11423450  0.00000000  0.53215300  1
  O  O145  1  0.66636167  0.78011633  0.11957600  1
  O  O146  1  0.11454433  0.78038367  0.91302900  1
  O  O147  1  0.88576550  0.88576550  0.53215300  1
  O  O148  1  0.44637650  0.44637650  0.64502300  1
  O  O149  1  0.66477750  0.66477750  0.01770200  1
  O  O150  1  0.66812500  0.00000000  0.01549100  1
  O  O151  1  0.55124250  0.55124250  0.11992300  1
  O  O152  1  0.33333333  0.66666667  0.33263200  1
  O  O153  1  0.66825633  0.22001967  0.23019100  1
  O  O154  1  0.77998033  0.44823667  0.23019100  1
  O  O155  1  0.66729367  0.88577033  0.63902700  1
  O  O156  1  0.45015867  0.77843433  0.50195100  1
  O  O157  1  0.22001967  0.66825633  0.23019100  1
  O  O158  1  0.66474233  0.77892067  0.39239700  1
  O  O159  1  0.33174367  0.55176333  0.23019100  1
  O  O160  1  0.21853267  0.55304433  0.76994500  1
  O  O161  1  0.88545567  0.66583933  0.91302900  1
  O  O162  1  0.66548833  0.44695567  0.76994500  1
  O  O163  1  0.32393050  0.32393050  0.74312300  1
  O  O164  1  0.00000000  0.00000000  0.43022200  1
  O  O165  1  0.21847667  0.33270633  0.63902700  1
  O  O166  1  0.21988367  0.88624533  0.11957600  1
  O  O167  1  0.44695567  0.66548833  0.76994500  1
  O  O168  1  0.78038367  0.11454433  0.91302900  1
  O  O169  1  0.00000000  0.33522250  0.01770200  1
  O  O170  1  0.33363833  0.11375467  0.11957600  1
  F  F171  1  0.00000000  0.66146750  0.31311500  1
  F  F172  1  0.65981300  0.65981300  0.86396100  1
  F  F173  1  0.00000000  0.34943550  0.56649600  1
  F  F174  1  0.32604250  0.00000000  0.71755100  1
  F  F175  1  0.00000000  0.67536950  0.16739200  1
  F  F176  1  0.65056450  0.65056450  0.56649600  1
  F  F177  1  0.67536950  0.00000000  0.16739200  1
  F  F178  1  0.67395750  0.67395750  0.71755100  1
  F  F179  1  0.33853250  0.33853250  0.31311500  1
  F  F180  1  0.31483000  0.31483000  0.46530300  1
  F  F181  1  0.66146750  0.00000000  0.31311500  1
  F  F182  1  0.32463050  0.32463050  0.16739200  1
  F  F183  1  0.68517000  0.00000000  0.46530300  1
  F  F184  1  0.00000000  0.32604250  0.71755100  1
  F  F185  1  0.00000000  0.68517000  0.46530300  1
  F  F186  1  0.34018700  0.00000000  0.86396100  1
  F  F187  1  0.34943550  0.00000000  0.56649600  1
  F  F188  1  0.00000000  0.34018700  0.86396100  1
