# generated using pymatgen
data_Tb2PbS4
_symmetry_space_group_name_H-M   'P 1'
_cell_length_a   8.55141000
_cell_length_b   8.55141000
_cell_length_c   8.50924000
_cell_angle_alpha   90.00000000
_cell_angle_beta   90.00000000
_cell_angle_gamma   90.00000000
_symmetry_Int_Tables_number   1
_chemical_formula_structural   Tb2PbS4
_chemical_formula_sum   'Tb8 Pb4 S16'
_cell_volume   622.25190030
_cell_formula_units_Z   4
loop_
 _symmetry_equiv_pos_site_id
 _symmetry_equiv_pos_as_xyz
  1  'x, y, z'
loop_
 _atom_site_type_symbol
 _atom_site_label
 _atom_site_symmetry_multiplicity
 _atom_site_fract_x
 _atom_site_fract_y
 _atom_site_fract_z
 _atom_site_occupancy
  Tb  Tb0  1  0.25000000  0.37064300  0.62500000  1
  Tb  Tb1  1  0.62935700  0.25000000  0.37500000  1
  Tb  Tb2  1  0.25000000  0.12935700  0.12500000  1
  Tb  Tb3  1  0.87064300  0.25000000  0.87500000  1
  Tb  Tb4  1  0.75000000  0.87064300  0.12500000  1
  Tb  Tb5  1  0.12935700  0.75000000  0.87500000  1
  Tb  Tb6  1  0.75000000  0.62935700  0.62500000  1
  Tb  Tb7  1  0.37064300  0.75000000  0.37500000  1
  Pb  Pb8  1  0.50000000  0.00000000  0.75000000  1
  Pb  Pb9  1  0.00000000  0.00000000  0.50000000  1
  Pb  Pb10  1  0.00000000  0.50000000  0.25000000  1
  Pb  Pb11  1  0.50000000  0.50000000  0.00000000  1
  S  S12  1  0.82818200  0.57328800  0.93524700  1
  S  S13  1  0.92671200  0.32818200  0.56475300  1
  S  S14  1  0.92671200  0.17181800  0.18524700  1
  S  S15  1  0.67181800  0.57328800  0.31475300  1
  S  S16  1  0.82818200  0.92671200  0.81475300  1
  S  S17  1  0.57328800  0.17181800  0.06475300  1
  S  S18  1  0.67181800  0.92671200  0.43524700  1
  S  S19  1  0.57328800  0.32818200  0.68524700  1
  S  S20  1  0.32818200  0.07328800  0.43524700  1
  S  S21  1  0.42671200  0.82818200  0.06475300  1
  S  S22  1  0.42671200  0.67181800  0.68524700  1
  S  S23  1  0.17181800  0.07328800  0.81475300  1
  S  S24  1  0.32818200  0.42671200  0.31475300  1
  S  S25  1  0.07328800  0.67181800  0.56475300  1
  S  S26  1  0.17181800  0.42671200  0.93524700  1
  S  S27  1  0.07328800  0.82818200  0.18524700  1
