# generated using pymatgen
data_LiSc(SiO3)2
_symmetry_space_group_name_H-M   'P 1'
_cell_length_a   9.94889600
_cell_length_b   9.06644200
_cell_length_c   5.41369888
_cell_angle_alpha   90.00000000
_cell_angle_beta   110.68242645
_cell_angle_gamma   90.00000000
_symmetry_Int_Tables_number   1
_chemical_formula_structural   LiSc(SiO3)2
_chemical_formula_sum   'Li4 Sc4 Si8 O24'
_cell_volume   456.85038308
_cell_formula_units_Z   4
loop_
 _symmetry_equiv_pos_site_id
 _symmetry_equiv_pos_as_xyz
  1  'x, y, z'
loop_
 _atom_site_type_symbol
 _atom_site_label
 _atom_site_symmetry_multiplicity
 _atom_site_fract_x
 _atom_site_fract_y
 _atom_site_fract_z
 _atom_site_occupancy
  Li  Li0  1  0.00000000  0.24757300  0.75000000  1
  Li  Li1  1  0.00000000  0.75242700  0.25000000  1
  Li  Li2  1  0.50000000  0.74757300  0.75000000  1
  Li  Li3  1  0.50000000  0.25242700  0.25000000  1
  Sc  Sc4  1  0.00000000  0.89219800  0.75000000  1
  Sc  Sc5  1  0.00000000  0.10780200  0.25000000  1
  Sc  Sc6  1  0.50000000  0.39219800  0.75000000  1
  Sc  Sc7  1  0.50000000  0.60780200  0.25000000  1
  Si  Si8  1  0.79810300  0.58657500  0.77845800  1
  Si  Si9  1  0.20189700  0.41342500  0.22154200  1
  Si  Si10  1  0.79810300  0.41342500  0.27845800  1
  Si  Si11  1  0.20189700  0.58657500  0.72154200  1
  Si  Si12  1  0.29810300  0.08657500  0.77845800  1
  Si  Si13  1  0.70189700  0.91342500  0.22154200  1
  Si  Si14  1  0.29810300  0.91342500  0.27845800  1
  Si  Si15  1  0.70189700  0.08657500  0.72154200  1
  O  O16  1  0.14705600  0.50392200  0.93997800  1
  O  O17  1  0.14705600  0.49607800  0.43997800  1
  O  O18  1  0.85294400  0.49607800  0.06002200  1
  O  O19  1  0.85294400  0.50392200  0.56002200  1
  O  O20  1  0.62044750  0.41513250  0.15806400  1
  O  O21  1  0.12763550  0.25229650  0.15515200  1
  O  O22  1  0.37955250  0.58486750  0.84193600  1
  O  O23  1  0.62044750  0.58486750  0.65806400  1
  O  O24  1  0.37955250  0.41513250  0.34193600  1
  O  O25  1  0.87236450  0.74770350  0.84484800  1
  O  O26  1  0.12763550  0.74770350  0.65515200  1
  O  O27  1  0.87236450  0.25229650  0.34484800  1
  O  O28  1  0.64705600  0.00392200  0.93997800  1
  O  O29  1  0.64705600  0.99607800  0.43997800  1
  O  O30  1  0.35294400  0.99607800  0.06002200  1
  O  O31  1  0.35294400  0.00392200  0.56002200  1
  O  O32  1  0.12044750  0.91513250  0.15806400  1
  O  O33  1  0.62763550  0.75229650  0.15515200  1
  O  O34  1  0.87955250  0.08486750  0.84193600  1
  O  O35  1  0.12044750  0.08486750  0.65806400  1
  O  O36  1  0.87955250  0.91513250  0.34193600  1
  O  O37  1  0.37236450  0.24770350  0.84484800  1
  O  O38  1  0.62763550  0.24770350  0.65515200  1
  O  O39  1  0.37236450  0.75229650  0.34484800  1
