# generated using pymatgen
data_TlHO
_symmetry_space_group_name_H-M   'P 1'
_cell_length_a   6.16809600
_cell_length_b   6.38522800
_cell_length_c   21.78736198
_cell_angle_alpha   90.00000000
_cell_angle_beta   92.24917673
_cell_angle_gamma   90.00000000
_symmetry_Int_Tables_number   1
_chemical_formula_structural   TlHO
_chemical_formula_sum   'Tl16 H16 O16'
_cell_volume   857.42762843
_cell_formula_units_Z   16
loop_
 _symmetry_equiv_pos_site_id
 _symmetry_equiv_pos_as_xyz
  1  'x, y, z'
loop_
 _atom_site_type_symbol
 _atom_site_label
 _atom_site_symmetry_multiplicity
 _atom_site_fract_x
 _atom_site_fract_y
 _atom_site_fract_z
 _atom_site_occupancy
  Tl  Tl0  1  0.25193400  0.16452300  0.05427100  1
  Tl  Tl1  1  0.74806600  0.16452300  0.94572900  1
  Tl  Tl2  1  0.76213450  0.14370650  0.45165300  1
  Tl  Tl3  1  0.23786550  0.14370650  0.54834700  1
  Tl  Tl4  1  0.48599600  0.41203000  0.19745800  1
  Tl  Tl5  1  0.51400400  0.41203000  0.80254200  1
  Tl  Tl6  1  0.50741500  0.90777800  0.30669500  1
  Tl  Tl7  1  0.49258500  0.90777800  0.69330500  1
  Tl  Tl8  1  0.75193400  0.66452300  0.05427100  1
  Tl  Tl9  1  0.24806600  0.66452300  0.94572900  1
  Tl  Tl10  1  0.26213450  0.64370650  0.45165300  1
  Tl  Tl11  1  0.73786550  0.64370650  0.54834700  1
  Tl  Tl12  1  0.98599600  0.91203000  0.19745800  1
  Tl  Tl13  1  0.01400400  0.91203000  0.80254200  1
  Tl  Tl14  1  0.00741500  0.40777800  0.30669500  1
  Tl  Tl15  1  0.99258500  0.40777800  0.69330500  1
  H  H16  1  0.53133300  0.42815700  0.34025600  1
  H  H17  1  0.46866700  0.42815700  0.65974400  1
  H  H18  1  0.47354900  0.92408600  0.16569500  1
  H  H19  1  0.52645100  0.92408600  0.83430500  1
  H  H20  1  0.28970950  0.17225450  0.40053800  1
  H  H21  1  0.71029050  0.17225450  0.59946200  1
  H  H22  1  0.74401000  0.17702200  0.08899200  1
  H  H23  1  0.25599000  0.17702200  0.91100800  1
  H  H24  1  0.03133300  0.92815700  0.34025600  1
  H  H25  1  0.96866700  0.92815700  0.65974400  1
  H  H26  1  0.97354900  0.42408600  0.16569500  1
  H  H27  1  0.02645100  0.42408600  0.83430500  1
  H  H28  1  0.78970950  0.67225450  0.40053800  1
  H  H29  1  0.21029050  0.67225450  0.59946200  1
  H  H30  1  0.24401000  0.67702200  0.08899200  1
  H  H31  1  0.75599000  0.67702200  0.91100800  1
  O  O32  1  0.11050150  0.98415150  0.30613000  1
  O  O33  1  0.88949850  0.98415150  0.69387000  1
  O  O34  1  0.39320150  0.98521450  0.19885200  1
  O  O35  1  0.60679850  0.98521450  0.80114800  1
  O  O36  1  0.36677250  0.22695550  0.43721400  1
  O  O37  1  0.63322750  0.22695550  0.56278600  1
  O  O38  1  0.65582600  0.23922300  0.05574900  1
  O  O39  1  0.34417400  0.23922300  0.94425100  1
  O  O40  1  0.61050150  0.48415150  0.30613000  1
  O  O41  1  0.38949850  0.48415150  0.69387000  1
  O  O42  1  0.89320150  0.48521450  0.19885200  1
  O  O43  1  0.10679850  0.48521450  0.80114800  1
  O  O44  1  0.86677250  0.72695550  0.43721400  1
  O  O45  1  0.13322750  0.72695550  0.56278600  1
  O  O46  1  0.15582600  0.73922300  0.05574900  1
  O  O47  1  0.84417400  0.73922300  0.94425100  1
