# generated using pymatgen
data_ZnCuTeCl2O3
_symmetry_space_group_name_H-M   'P 1'
_cell_length_a   7.51924300
_cell_length_b   10.25924100
_cell_length_c   15.79716200
_cell_angle_alpha   90.00000000
_cell_angle_beta   90.00000000
_cell_angle_gamma   90.00000000
_symmetry_Int_Tables_number   1
_chemical_formula_structural   ZnCuTeCl2O3
_chemical_formula_sum   'Zn8 Cu8 Te8 Cl16 O24'
_cell_volume   1218.62034376
_cell_formula_units_Z   8
loop_
 _symmetry_equiv_pos_site_id
 _symmetry_equiv_pos_as_xyz
  1  'x, y, z'
loop_
 _atom_site_type_symbol
 _atom_site_label
 _atom_site_symmetry_multiplicity
 _atom_site_fract_x
 _atom_site_fract_y
 _atom_site_fract_z
 _atom_site_occupancy
  Zn  Zn0  1  0.84259000  0.49173800  0.61756400  1
  Zn  Zn1  1  0.84259000  0.00826200  0.88243600  1
  Zn  Zn2  1  0.65741000  0.50826200  0.11756400  1
  Zn  Zn3  1  0.34259000  0.49173800  0.88243600  1
  Zn  Zn4  1  0.15741000  0.50826200  0.38243600  1
  Zn  Zn5  1  0.15741000  0.99173800  0.11756400  1
  Zn  Zn6  1  0.34259000  0.00826200  0.61756400  1
  Zn  Zn7  1  0.65741000  0.99173800  0.38243600  1
  Cu  Cu8  1  0.88577700  0.23654000  0.45310200  1
  Cu  Cu9  1  0.88577700  0.26346000  0.04689800  1
  Cu  Cu10  1  0.38577700  0.23654000  0.04689800  1
  Cu  Cu11  1  0.61422300  0.73654000  0.54689800  1
  Cu  Cu12  1  0.11422300  0.73654000  0.95310200  1
  Cu  Cu13  1  0.38577700  0.26346000  0.45310200  1
  Cu  Cu14  1  0.61422300  0.76346000  0.95310200  1
  Cu  Cu15  1  0.11422300  0.76346000  0.54689800  1
  Te  Te16  1  0.69957600  0.01323500  0.09453400  1
  Te  Te17  1  0.69957600  0.48676500  0.40546600  1
  Te  Te18  1  0.80042400  0.98676500  0.59453400  1
  Te  Te19  1  0.19957600  0.48676500  0.09453400  1
  Te  Te20  1  0.30042400  0.98676500  0.90546600  1
  Te  Te21  1  0.80042400  0.51323500  0.90546600  1
  Te  Te22  1  0.19957600  0.01323500  0.40546600  1
  Te  Te23  1  0.30042400  0.51323500  0.59453400  1
  Cl  Cl24  1  0.54035300  0.70868000  0.12404600  1
  Cl  Cl25  1  0.33366700  0.42287200  0.28263700  1
  Cl  Cl26  1  0.45964700  0.29132000  0.87595400  1
  Cl  Cl27  1  0.16633300  0.57712800  0.78263700  1
  Cl  Cl28  1  0.66633300  0.57712800  0.71736300  1
  Cl  Cl29  1  0.16633300  0.92287200  0.71736300  1
  Cl  Cl30  1  0.54035300  0.79132000  0.37595400  1
  Cl  Cl31  1  0.66633300  0.92287200  0.78263700  1
  Cl  Cl32  1  0.45964700  0.20868000  0.62404600  1
  Cl  Cl33  1  0.95964700  0.29132000  0.62404600  1
  Cl  Cl34  1  0.04035300  0.70868000  0.37595400  1
  Cl  Cl35  1  0.04035300  0.79132000  0.12404600  1
  Cl  Cl36  1  0.33366700  0.07712800  0.21736300  1
  Cl  Cl37  1  0.95964700  0.20868000  0.87595400  1
  Cl  Cl38  1  0.83366700  0.42287200  0.21736300  1
  Cl  Cl39  1  0.83366700  0.07712800  0.28263700  1
  O  O40  1  0.68794600  0.94224000  0.98042100  1
  O  O41  1  0.31205400  0.44224000  0.48042100  1
  O  O42  1  0.18794600  0.94224000  0.51957900  1
  O  O43  1  0.06584500  0.58480400  0.58159400  1
  O  O44  1  0.36279500  0.81091000  0.94034600  1
  O  O45  1  0.13720500  0.31091000  0.05965400  1
  O  O46  1  0.68794600  0.55776000  0.51957900  1
  O  O47  1  0.43415500  0.08480400  0.41840600  1
  O  O48  1  0.63720500  0.18909000  0.05965400  1
  O  O49  1  0.81205400  0.05776000  0.48042100  1
  O  O50  1  0.31205400  0.05776000  0.01957900  1
  O  O51  1  0.56584500  0.58480400  0.91840600  1
  O  O52  1  0.63720500  0.31091000  0.44034600  1
  O  O53  1  0.86279500  0.68909000  0.94034600  1
  O  O54  1  0.18794600  0.55776000  0.98042100  1
  O  O55  1  0.43415500  0.41519600  0.08159400  1
  O  O56  1  0.13720500  0.18909000  0.44034600  1
  O  O57  1  0.36279500  0.68909000  0.55965400  1
  O  O58  1  0.93415500  0.08480400  0.08159400  1
  O  O59  1  0.86279500  0.81091000  0.55965400  1
  O  O60  1  0.56584500  0.91519600  0.58159400  1
  O  O61  1  0.06584500  0.91519600  0.91840600  1
  O  O62  1  0.93415500  0.41519600  0.41840600  1
  O  O63  1  0.81205400  0.44224000  0.01957900  1
