# generated using pymatgen
data_As2Pb2S5
_symmetry_space_group_name_H-M   'P 1'
_cell_length_a   8.21752300
_cell_length_b   26.23510900
_cell_length_c   8.47963186
_cell_angle_alpha   90.00000000
_cell_angle_beta   90.04708188
_cell_angle_gamma   90.00000000
_symmetry_Int_Tables_number   1
_chemical_formula_structural   As2Pb2S5
_chemical_formula_sum   'As16 Pb16 S40'
_cell_volume   1828.10296349
_cell_formula_units_Z   8
loop_
 _symmetry_equiv_pos_site_id
 _symmetry_equiv_pos_as_xyz
  1  'x, y, z'
loop_
 _atom_site_type_symbol
 _atom_site_label
 _atom_site_symmetry_multiplicity
 _atom_site_fract_x
 _atom_site_fract_y
 _atom_site_fract_z
 _atom_site_occupancy
  As  As0  1  0.44114200  0.54802600  0.44214600  1
  As  As1  1  0.72026000  0.65420100  0.63622400  1
  As  As2  1  0.56123300  0.03967800  0.11410500  1
  As  As3  1  0.10777200  0.63515000  0.37347800  1
  As  As4  1  0.43876700  0.53967800  0.88589500  1
  As  As5  1  0.94323300  0.35934500  0.82502800  1
  As  As6  1  0.55885800  0.04802600  0.55785400  1
  As  As7  1  0.89222800  0.13515000  0.62652200  1
  As  As8  1  0.11325300  0.64560900  0.96003700  1
  As  As9  1  0.27974000  0.15420100  0.36377600  1
  As  As10  1  0.88674700  0.14560900  0.03996300  1
  As  As11  1  0.94046200  0.36536100  0.36955900  1
  As  As12  1  0.05676700  0.85934500  0.17497200  1
  As  As13  1  0.36849400  0.76904900  0.11205300  1
  As  As14  1  0.05953800  0.86536100  0.63044100  1
  As  As15  1  0.63150600  0.26904900  0.88794700  1
  Pb  Pb16  1  0.53133900  0.40573400  0.62207300  1
  Pb  Pb17  1  0.78499200  0.77083900  0.39976500  1
  Pb  Pb18  1  0.96436500  0.00372900  0.36025400  1
  Pb  Pb19  1  0.21500800  0.27083900  0.60023500  1
  Pb  Pb20  1  0.46866100  0.90573400  0.37792700  1
  Pb  Pb21  1  0.19724000  0.27504100  0.12620700  1
  Pb  Pb22  1  0.03936600  0.50227300  0.13475000  1
  Pb  Pb23  1  0.53815500  0.40122700  0.12912000  1
  Pb  Pb24  1  0.35434300  0.74405800  0.65005300  1
  Pb  Pb25  1  0.64565700  0.24405800  0.34994700  1
  Pb  Pb26  1  0.96063400  0.00227300  0.86525000  1
  Pb  Pb27  1  0.69281100  0.62415900  0.13910200  1
  Pb  Pb28  1  0.03563500  0.50372900  0.63974600  1
  Pb  Pb29  1  0.80276000  0.77504100  0.87379300  1
  Pb  Pb30  1  0.46184500  0.90122700  0.87088000  1
  Pb  Pb31  1  0.30718900  0.12415900  0.86089800  1
  S  S32  1  0.40664800  0.01705300  0.34170400  1
  S  S33  1  0.60446500  0.51350900  0.07742700  1
  S  S34  1  0.03835700  0.19747600  0.88207400  1
  S  S35  1  0.09082000  0.38893300  0.60046700  1
  S  S36  1  0.89598300  0.89095900  0.82174700  1
  S  S37  1  0.94758300  0.70444600  0.63427400  1
  S  S38  1  0.10401700  0.39095900  0.17825300  1
  S  S39  1  0.26234300  0.47214100  0.88216200  1
  S  S40  1  0.74063400  0.09946400  0.83814200  1
  S  S41  1  0.42673600  0.18774100  0.57862100  1
  S  S42  1  0.10468900  0.08028400  0.62148700  1
  S  S43  1  0.58704000  0.81752100  0.62497100  1
  S  S44  1  0.07224100  0.08494600  0.09913100  1
  S  S45  1  0.77091400  0.30747700  0.67504800  1
  S  S46  1  0.92775900  0.58494600  0.90086900  1
  S  S47  1  0.71553200  0.97888800  0.60297800  1
  S  S48  1  0.59831400  0.81758200  0.12645700  1
  S  S49  1  0.25837000  0.59642700  0.58645100  1
  S  S50  1  0.75868100  0.43171400  0.37456500  1
  S  S51  1  0.96164300  0.69747600  0.11792600  1
  S  S52  1  0.42775600  0.19176300  0.15387400  1
  S  S53  1  0.41296000  0.31752100  0.37502900  1
  S  S54  1  0.25936600  0.59946400  0.16185800  1
  S  S55  1  0.23816200  0.80813100  0.91006600  1
  S  S56  1  0.57326400  0.68774100  0.42137900  1
  S  S57  1  0.90918000  0.88893300  0.39953300  1
  S  S58  1  0.21859100  0.92706600  0.13692500  1
  S  S59  1  0.78140900  0.42706600  0.86307500  1
  S  S60  1  0.05241700  0.20444600  0.36572600  1
  S  S61  1  0.89531100  0.58028400  0.37851300  1
  S  S62  1  0.40168600  0.31758200  0.87354300  1
  S  S63  1  0.22908600  0.80747700  0.32495200  1
  S  S64  1  0.59335200  0.51705300  0.65829600  1
  S  S65  1  0.57224400  0.69176300  0.84612600  1
  S  S66  1  0.24131900  0.93171400  0.62543500  1
  S  S67  1  0.73765700  0.97214100  0.11783800  1
  S  S68  1  0.28446800  0.47888800  0.39702200  1
  S  S69  1  0.74163000  0.09642700  0.41354900  1
  S  S70  1  0.76183800  0.30813100  0.08993400  1
  S  S71  1  0.39553500  0.01350900  0.92257300  1
