# generated using pymatgen
data_Pd2S9N4
_symmetry_space_group_name_H-M   'P 1'
_cell_length_a   33.49247187
_cell_length_b   33.49247187
_cell_length_c   6.67878632
_cell_angle_alpha   90.00000000
_cell_angle_beta   90.00000000
_cell_angle_gamma   120.00000000
_symmetry_Int_Tables_number   1
_chemical_formula_structural   Pd2S9N4
_chemical_formula_sum   'Pd36 S162 N72'
_cell_volume   6488.17541502
_cell_formula_units_Z   18
loop_
 _symmetry_equiv_pos_site_id
 _symmetry_equiv_pos_as_xyz
  1  'x, y, z'
loop_
 _atom_site_type_symbol
 _atom_site_label
 _atom_site_symmetry_multiplicity
 _atom_site_fract_x
 _atom_site_fract_y
 _atom_site_fract_z
 _atom_site_occupancy
  Pd  Pd0  1  0.25887533  0.15544467  0.86324067  1
  Pd  Pd1  1  0.34653467  0.85292333  0.64672333  1
  Pd  Pd2  1  0.49361133  0.34653467  0.35327667  1
  Pd  Pd3  1  0.18625667  0.17305533  0.01994333  1
  Pd  Pd4  1  0.15544467  0.89656933  0.13675933  1
  Pd  Pd5  1  0.22990267  0.40779133  0.52990733  1
  Pd  Pd6  1  0.40779133  0.17788867  0.47009267  1
  Pd  Pd7  1  0.51122200  0.43676400  0.19657400  1
  Pd  Pd8  1  0.48041000  0.16027800  0.31339000  1
  Pd  Pd9  1  0.17305533  0.98679867  0.98005667  1
  Pd  Pd10  1  0.32013200  0.48041000  0.68661000  1
  Pd  Pd11  1  0.43676400  0.92554200  0.80342600  1
  Pd  Pd12  1  0.92554200  0.48877800  0.19657400  1
  Pd  Pd13  1  0.01320133  0.18625667  0.98005667  1
  Pd  Pd14  1  0.16027800  0.67986800  0.68661000  1
  Pd  Pd15  1  0.85292333  0.50638867  0.35327667  1
  Pd  Pd16  1  0.82211133  0.22990267  0.47009267  1
  Pd  Pd17  1  0.89656933  0.74112467  0.86324067  1
  Pd  Pd18  1  0.07445800  0.51122200  0.80342600  1
  Pd  Pd19  1  0.17788867  0.77009733  0.52990733  1
  Pd  Pd20  1  0.14707667  0.49361133  0.64672333  1
  Pd  Pd21  1  0.83972200  0.32013200  0.31339000  1
  Pd  Pd22  1  0.98679867  0.81374333  0.01994333  1
  Pd  Pd23  1  0.10343067  0.25887533  0.13675933  1
  Pd  Pd24  1  0.59220867  0.82211133  0.52990733  1
  Pd  Pd25  1  0.67986800  0.51959000  0.31339000  1
  Pd  Pd26  1  0.82694467  0.01320133  0.01994333  1
  Pd  Pd27  1  0.51959000  0.83972200  0.68661000  1
  Pd  Pd28  1  0.48877800  0.56323600  0.80342600  1
  Pd  Pd29  1  0.56323600  0.07445800  0.19657400  1
  Pd  Pd30  1  0.74112467  0.84455533  0.13675933  1
  Pd  Pd31  1  0.84455533  0.10343067  0.86324067  1
  Pd  Pd32  1  0.81374333  0.82694467  0.98005667  1
  Pd  Pd33  1  0.50638867  0.65346533  0.64672333  1
  Pd  Pd34  1  0.65346533  0.14707667  0.35327667  1
  Pd  Pd35  1  0.77009733  0.59220867  0.47009267  1
  S  S36  1  0.30503400  0.43795800  0.38605000  1
  S  S37  1  0.40731700  0.14013300  0.16990400  1
  S  S38  1  0.20090333  0.27963967  0.37932367  1
  S  S39  1  0.51600900  0.18661700  0.00550800  1
  S  S40  1  0.37855200  0.21939300  0.31708300  1
  S  S41  1  0.14671633  0.99605867  0.67217467  1
  S  S42  1  0.28811467  0.11394033  0.01625033  1
  S  S43  1  0.29490533  0.78448267  0.79886467  1
  S  S44  1  0.41206967  0.46576333  0.04599033  1
  S  S45  1  0.29188667  0.75027733  0.40470633  1
  S  S46  1  0.17417433  0.28811467  0.98374967  1
  S  S47  1  0.44727367  0.49249233  0.65041633  1
  S  S48  1  0.12505733  0.04144667  0.73803967  1
  S  S49  1  0.31467233  0.36877767  0.60811667  1
  S  S50  1  0.27922800  0.98133900  0.05855000  1
  S  S51  1  0.32939200  0.51600900  0.99449200  1
  S  S52  1  0.45539900  0.53329200  0.11093100  1
  S  S53  1  0.29788900  0.27922800  0.94145000  1
  S  S54  1  0.19320033  0.93385067  0.83657067  1
  S  S55  1  0.43795800  0.13292400  0.61395000  1
  S  S56  1  0.54885067  0.17708933  0.46553133  1
  S  S57  1  0.33727467  0.81732433  0.33884133  1
  S  S58  1  0.38743867  0.35199433  0.27478333  1
  S  S59  1  0.21126767  0.80004133  0.22240233  1
  S  S60  1  0.25544033  0.12206567  0.55573567  1
  S  S61  1  0.37176133  0.54885067  0.53446867  1
  S  S62  1  0.15065767  0.14671633  0.32782533  1
  S  S63  1  0.26718400  0.40731700  0.83009600  1
  S  S64  1  0.25459700  0.86757000  0.28734300  1
  S  S65  1  0.13337467  0.25544033  0.44426433  1
  S  S66  1  0.15624400  0.03842800  0.13219800  1
  S  S67  1  0.36877767  0.05410533  0.39188333  1
  S  S68  1  0.41122633  0.21126767  0.77759767  1
  S  S69  1  0.46625733  0.36163267  0.05271667  1
  S  S70  1  0.27963967  0.07873633  0.62067633  1
  S  S71  1  0.53329200  0.07789300  0.88906900  1
  S  S72  1  0.37478000  0.58305600  0.92862700  1
  S  S73  1  0.58305600  0.20827600  0.07137300  1
  S  S74  1  0.22870867  0.20040933  0.71938333  1
  S  S75  1  0.54160933  0.29188667  0.59529367  1
  S  S76  1  0.49249233  0.04521867  0.34958367  1
  S  S77  1  0.47346633  0.39948267  0.49676267  1
  S  S78  1  0.35199433  0.96455567  0.72521667  1
  S  S79  1  0.39948267  0.92601633  0.50323733  1
  S  S80  1  0.21939300  0.84084100  0.68291700  1
  S  S81  1  0.46576333  0.05369367  0.95400967  1
  S  S82  1  0.38702700  0.25459700  0.71265700  1
  S  S83  1  0.51995033  0.33727467  0.66115867  1
  S  S84  1  0.36163267  0.89537533  0.94728333  1
  S  S85  1  0.08361067  0.12505733  0.26196033  1
  S  S86  1  0.25934967  0.19320033  0.16342933  1
  S  S87  1  0.51042267  0.29490533  0.20113533  1
  S  S88  1  0.20040933  0.97170067  0.28061667  1
  S  S89  1  0.11781600  0.15624400  0.86780200  1
  S  S90  1  0.97170067  0.77129133  0.71938333  1
  S  S91  1  0.07398367  0.47346633  0.50323733  1
  S  S92  1  0.86757000  0.61297300  0.71265700  1
  S  S93  1  0.18267567  0.51995033  0.33884133  1
  S  S94  1  0.04521867  0.55272633  0.65041633  1
  S  S95  1  0.81338300  0.32939200  0.00550800  1
  S  S96  1  0.95478133  0.44727367  0.34958367  1
  S  S97  1  0.96157200  0.11781600  0.13219800  1
  S  S98  1  0.07873633  0.79909667  0.37932367  1
  S  S99  1  0.95855333  0.08361067  0.73803967  1
  S  S100  1  0.84084100  0.62144800  0.31708300  1
  S  S101  1  0.11394033  0.82582567  0.98374967  1
  S  S102  1  0.79172400  0.37478000  0.07137300  1
  S  S103  1  0.98133900  0.70211100  0.94145000  1
  S  S104  1  0.94589467  0.31467233  0.39188333  1
  S  S105  1  0.99605867  0.84934233  0.32782533  1
  S  S106  1  0.12206567  0.86662533  0.44426433  1
  S  S107  1  0.96455567  0.61256133  0.27478333  1
  S  S108  1  0.85986700  0.26718400  0.16990400  1
  S  S109  1  0.10462467  0.46625733  0.94728333  1
  S  S110  1  0.21551733  0.51042267  0.79886467  1
  S  S111  1  0.00394133  0.15065767  0.67217467  1
  S  S112  1  0.05410533  0.68532767  0.60811667  1
  S  S113  1  0.87793433  0.13337467  0.55573567  1
  S  S114  1  0.92210700  0.45539900  0.88906900  1
  S  S115  1  0.03842800  0.88218400  0.86780200  1
  S  S116  1  0.81732433  0.48004967  0.66115867  1
  S  S117  1  0.93385067  0.74065033  0.16342933  1
  S  S118  1  0.92126367  0.20090333  0.62067633  1
  S  S119  1  0.80004133  0.58877367  0.77759767  1
  S  S120  1  0.82291067  0.37176133  0.46553133  1
  S  S121  1  0.03544433  0.38743867  0.72521667  1
  S  S122  1  0.07789300  0.54460100  0.11093100  1
  S  S123  1  0.13292400  0.69496600  0.38605000  1
  S  S124  1  0.94630633  0.41206967  0.95400967  1
  S  S125  1  0.19995867  0.41122633  0.22240233  1
  S  S126  1  0.04144667  0.91638933  0.26196033  1
  S  S127  1  0.24972267  0.54160933  0.40470633  1
  S  S128  1  0.89537533  0.53374267  0.05271667  1
  S  S129  1  0.20827600  0.62522000  0.92862700  1
  S  S130  1  0.15915900  0.37855200  0.68291700  1
  S  S131  1  0.14013300  0.73281600  0.83009600  1
  S  S132  1  0.01866100  0.29788900  0.05855000  1
  S  S133  1  0.06614933  0.25934967  0.83657067  1
  S  S134  1  0.88605967  0.17417433  0.01625033  1
  S  S135  1  0.13243000  0.38702700  0.28734300  1
  S  S136  1  0.05369367  0.58793033  0.04599033  1
  S  S137  1  0.18661700  0.67060800  0.99449200  1
  S  S138  1  0.02829933  0.22870867  0.28061667  1
  S  S139  1  0.75027733  0.45839067  0.59529367  1
  S  S140  1  0.92601633  0.52653367  0.49676267  1
  S  S141  1  0.17708933  0.62823867  0.53446867  1
  S  S142  1  0.86707600  0.30503400  0.61395000  1
  S  S143  1  0.78448267  0.48957733  0.20113533  1
  S  S144  1  0.63836733  0.10462467  0.05271667  1
  S  S145  1  0.74065033  0.80679967  0.83657067  1
  S  S146  1  0.53423667  0.94630633  0.04599033  1
  S  S147  1  0.84934233  0.85328367  0.67217467  1
  S  S148  1  0.71188533  0.88605967  0.98374967  1
  S  S149  1  0.48004967  0.66272533  0.33884133  1
  S  S150  1  0.62144800  0.78060700  0.68291700  1
  S  S151  1  0.62823867  0.45114933  0.46553133  1
  S  S152  1  0.74540300  0.13243000  0.71265700  1
  S  S153  1  0.62522000  0.41694400  0.07137300  1
  S  S154  1  0.50750767  0.95478133  0.65041633  1
  S  S155  1  0.78060700  0.15915900  0.31708300  1
  S  S156  1  0.45839067  0.70811333  0.40470633  1
  S  S157  1  0.64800567  0.03544433  0.27478333  1
  S  S158  1  0.61256133  0.64800567  0.72521667  1
  S  S159  1  0.66272533  0.18267567  0.66115867  1
  S  S160  1  0.78873233  0.19995867  0.77759767  1
  S  S161  1  0.63122233  0.94589467  0.60811667  1
  S  S162  1  0.52653367  0.60051733  0.50323733  1
  S  S163  1  0.77129133  0.79959067  0.28061667  1
  S  S164  1  0.88218400  0.84375600  0.13219800  1
  S  S165  1  0.67060800  0.48399100  0.00550800  1
  S  S166  1  0.72077200  0.01866100  0.94145000  1
  S  S167  1  0.54460100  0.46670800  0.88906900  1
  S  S168  1  0.58877367  0.78873233  0.22240233  1
  S  S169  1  0.70509467  0.21551733  0.20113533  1
  S  S170  1  0.48399100  0.81338300  0.99449200  1
  S  S171  1  0.60051733  0.07398367  0.49676267  1
  S  S172  1  0.58793033  0.53423667  0.95400967  1
  S  S173  1  0.46670800  0.92210700  0.11093100  1
  S  S174  1  0.48957733  0.70509467  0.79886467  1
  S  S175  1  0.70211100  0.72077200  0.05855000  1
  S  S176  1  0.74455967  0.87793433  0.44426433  1
  S  S177  1  0.79959067  0.02829933  0.71938333  1
  S  S178  1  0.61297300  0.74540300  0.28734300  1
  S  S179  1  0.86662533  0.74455967  0.55573567  1
  S  S180  1  0.70811333  0.24972267  0.59529367  1
  S  S181  1  0.91638933  0.87494267  0.73803967  1
  S  S182  1  0.56204200  0.86707600  0.38605000  1
  S  S183  1  0.87494267  0.95855333  0.26196033  1
  S  S184  1  0.82582567  0.71188533  0.01625033  1
  S  S185  1  0.80679967  0.06614933  0.16342933  1
  S  S186  1  0.68532767  0.63122233  0.39188333  1
  S  S187  1  0.73281600  0.59268300  0.16990400  1
  S  S188  1  0.55272633  0.50750767  0.34958367  1
  S  S189  1  0.79909667  0.72036033  0.62067633  1
  S  S190  1  0.72036033  0.92126367  0.37932367  1
  S  S191  1  0.85328367  0.00394133  0.32782533  1
  S  S192  1  0.69496600  0.56204200  0.61395000  1
  S  S193  1  0.41694400  0.79172400  0.92862700  1
  S  S194  1  0.59268300  0.85986700  0.83009600  1
  S  S195  1  0.84375600  0.96157200  0.86780200  1
  S  S196  1  0.53374267  0.63836733  0.94728333  1
  S  S197  1  0.45114933  0.82291067  0.53446867  1
  N  N198  1  0.38885533  0.58943767  0.70183267  1
  N  N199  1  0.13275100  0.05552200  0.96483400  1
  N  N200  1  0.28966000  0.37413300  0.79764400  1
  N  N201  1  0.07722900  0.13275100  0.03516600  1
  N  N202  1  0.41495300  0.45513200  0.81896800  1
  N  N203  1  0.39892267  0.07855733  0.58284033  1
  N  N204  1  0.58943767  0.20058233  0.29816733  1
  N  N205  1  0.32036533  0.39892267  0.41715967  1
  N  N206  1  0.37700667  0.95920033  0.53568933  1
  N  N207  1  0.21153467  0.29315433  0.15230133  1
  N  N208  1  0.53391567  0.27781133  0.36849933  1
  N  N209  1  0.34630133  0.93441067  0.91617367  1
  N  N210  1  0.27781133  0.74389567  0.63150067  1
  N  N211  1  0.37351233  0.25171367  0.48563467  1
  N  N212  1  0.24886033  0.95632667  0.86902267  1
  N  N213  1  0.41780633  0.37700667  0.46431067  1
  N  N214  1  0.29315433  0.08161967  0.84769867  1
  N  N215  1  0.25477600  0.98703200  0.24950700  1
  N  N216  1  0.45513200  0.04017900  0.18103200  1
  N  N217  1  0.25171367  0.87820133  0.51436533  1
  N  N218  1  0.29253367  0.24886033  0.13097733  1
  N  N219  1  0.41189067  0.34630133  0.08382633  1
  N  N220  1  0.37413300  0.08447300  0.20235600  1
  N  N221  1  0.26774400  0.25477600  0.75049300  1
  N  N222  1  0.05552200  0.92277100  0.03516600  1
  N  N223  1  0.79941767  0.38885533  0.29816733  1
  N  N224  1  0.95632667  0.70746633  0.13097733  1
  N  N225  1  0.74389567  0.46608433  0.36849933  1
  N  N226  1  0.08161967  0.78846533  0.15230133  1
  N  N227  1  0.06558933  0.41189067  0.91617367  1
  N  N228  1  0.25610433  0.53391567  0.63150067  1
  N  N229  1  0.98703200  0.73225600  0.75049300  1
  N  N230  1  0.04367333  0.29253367  0.86902267  1
  N  N231  1  0.87820133  0.62648767  0.48563467  1
  N  N232  1  0.20058233  0.61114467  0.70183267  1
  N  N233  1  0.01296800  0.26774400  0.24950700  1
  N  N234  1  0.94447800  0.07722900  0.96483400  1
  N  N235  1  0.04017900  0.58504700  0.81896800  1
  N  N236  1  0.91552700  0.28966000  0.20235600  1
  N  N237  1  0.08447300  0.71034000  0.79764400  1
  N  N238  1  0.95982100  0.41495300  0.18103200  1
  N  N239  1  0.92144267  0.32036533  0.58284033  1
  N  N240  1  0.12179867  0.37351233  0.51436533  1
  N  N241  1  0.91838033  0.21153467  0.84769867  1
  N  N242  1  0.95920033  0.58219367  0.46431067  1
  N  N243  1  0.07855733  0.67963467  0.41715967  1
  N  N244  1  0.04079967  0.41780633  0.53568933  1
  N  N245  1  0.93441067  0.58810933  0.08382633  1
  N  N246  1  0.72218867  0.25610433  0.36849933  1
  N  N247  1  0.46608433  0.72218867  0.63150067  1
  N  N248  1  0.62299333  0.04079967  0.46431067  1
  N  N249  1  0.41056233  0.79941767  0.70183267  1
  N  N250  1  0.74828633  0.12179867  0.48563467  1
  N  N251  1  0.73225600  0.74522400  0.24950700  1
  N  N252  1  0.92277100  0.86724900  0.96483400  1
  N  N253  1  0.65369867  0.06558933  0.08382633  1
  N  N254  1  0.71034000  0.62586700  0.20235600  1
  N  N255  1  0.54486800  0.95982100  0.81896800  1
  N  N256  1  0.86724900  0.94447800  0.03516600  1
  N  N257  1  0.67963467  0.60107733  0.58284033  1
  N  N258  1  0.61114467  0.41056233  0.29816733  1
  N  N259  1  0.70684567  0.91838033  0.15230133  1
  N  N260  1  0.58219367  0.62299333  0.53568933  1
  N  N261  1  0.75113967  0.04367333  0.13097733  1
  N  N262  1  0.62648767  0.74828633  0.51436533  1
  N  N263  1  0.58810933  0.65369867  0.91617367  1
  N  N264  1  0.78846533  0.70684567  0.84769867  1
  N  N265  1  0.58504700  0.54486800  0.18103200  1
  N  N266  1  0.62586700  0.91552700  0.79764400  1
  N  N267  1  0.74522400  0.01296800  0.75049300  1
  N  N268  1  0.70746633  0.75113967  0.86902267  1
  N  N269  1  0.60107733  0.92144267  0.41715967  1
