# generated using pymatgen
data_Ca3Mg3(PO4)4
_symmetry_space_group_name_H-M   'P 1'
_cell_length_a   23.14927800
_cell_length_b   10.11881400
_cell_length_c   17.34095892
_cell_angle_alpha   90.00000000
_cell_angle_beta   99.98803977
_cell_angle_gamma   90.00000000
_symmetry_Int_Tables_number   1
_chemical_formula_structural   Ca3Mg3(PO4)4
_chemical_formula_sum   'Ca36 Mg36 P48 O192'
_cell_volume   4000.43858378
_cell_formula_units_Z   12
loop_
 _symmetry_equiv_pos_site_id
 _symmetry_equiv_pos_as_xyz
  1  'x, y, z'
loop_
 _atom_site_type_symbol
 _atom_site_label
 _atom_site_symmetry_multiplicity
 _atom_site_fract_x
 _atom_site_fract_y
 _atom_site_fract_z
 _atom_site_occupancy
  Ca  Ca0  1  0.84170650  0.95262550  0.56467500  1
  Ca  Ca1  1  0.56788250  0.61147350  0.58918400  1
  Ca  Ca2  1  0.68730900  0.15157200  0.43338800  1
  Ca  Ca3  1  0.56788250  0.38852650  0.08918400  1
  Ca  Ca4  1  0.65829350  0.54737450  0.43532500  1
  Ca  Ca5  1  0.91080300  0.41923700  0.39117900  1
  Ca  Ca6  1  0.91080300  0.58076300  0.89117900  1
  Ca  Ca7  1  0.81269100  0.65157200  0.06661200  1
  Ca  Ca8  1  0.58919700  0.91923700  0.10882100  1
  Ca  Ca9  1  0.68730900  0.84842800  0.93338800  1
  Ca  Ca10  1  0.93211750  0.11147350  0.91081600  1
  Ca  Ca11  1  0.81269100  0.34842800  0.56661200  1
  Ca  Ca12  1  0.65829350  0.45262550  0.93532500  1
  Ca  Ca13  1  0.00000000  0.89792900  0.25000000  1
  Ca  Ca14  1  0.93211750  0.88852650  0.41081600  1
  Ca  Ca15  1  0.00000000  0.10207100  0.75000000  1
  Ca  Ca16  1  0.58919700  0.08076300  0.60882100  1
  Ca  Ca17  1  0.84170650  0.04737450  0.06467500  1
  Ca  Ca18  1  0.34170650  0.45262550  0.56467500  1
  Ca  Ca19  1  0.06788250  0.11147350  0.58918400  1
  Ca  Ca20  1  0.18730900  0.65157200  0.43338800  1
  Ca  Ca21  1  0.06788250  0.88852650  0.08918400  1
  Ca  Ca22  1  0.15829350  0.04737450  0.43532500  1
  Ca  Ca23  1  0.41080300  0.91923700  0.39117900  1
  Ca  Ca24  1  0.41080300  0.08076300  0.89117900  1
  Ca  Ca25  1  0.31269100  0.15157200  0.06661200  1
  Ca  Ca26  1  0.08919700  0.41923700  0.10882100  1
  Ca  Ca27  1  0.18730900  0.34842800  0.93338800  1
  Ca  Ca28  1  0.43211750  0.61147350  0.91081600  1
  Ca  Ca29  1  0.31269100  0.84842800  0.56661200  1
  Ca  Ca30  1  0.15829350  0.95262550  0.93532500  1
  Ca  Ca31  1  0.50000000  0.39792900  0.25000000  1
  Ca  Ca32  1  0.43211750  0.38852650  0.41081600  1
  Ca  Ca33  1  0.50000000  0.60207100  0.75000000  1
  Ca  Ca34  1  0.08919700  0.58076300  0.60882100  1
  Ca  Ca35  1  0.34170650  0.54737450  0.06467500  1
  Mg  Mg36  1  0.73688800  0.36752800  0.12998100  1
  Mg  Mg37  1  0.89267200  0.85072000  0.76483600  1
  Mg  Mg38  1  0.89267200  0.14928000  0.26483600  1
  Mg  Mg39  1  0.76311200  0.13247200  0.87001900  1
  Mg  Mg40  1  0.60732800  0.64928000  0.23516400  1
  Mg  Mg41  1  0.76600050  0.61688450  0.27509700  1
  Mg  Mg42  1  0.76311200  0.86752800  0.37001900  1
  Mg  Mg43  1  0.91928050  0.40955650  0.05098200  1
  Mg  Mg44  1  0.91928050  0.59044350  0.55098200  1
  Mg  Mg45  1  0.76600050  0.38311550  0.77509700  1
  Mg  Mg46  1  0.73688800  0.63247200  0.62998100  1
  Mg  Mg47  1  0.00000000  0.57362000  0.75000000  1
  Mg  Mg48  1  0.73399950  0.88311550  0.72490300  1
  Mg  Mg49  1  0.58071950  0.09044350  0.94901800  1
  Mg  Mg50  1  0.58071950  0.90955650  0.44901800  1
  Mg  Mg51  1  0.60732800  0.35072000  0.73516400  1
  Mg  Mg52  1  0.00000000  0.42638000  0.25000000  1
  Mg  Mg53  1  0.73399950  0.11688450  0.22490300  1
  Mg  Mg54  1  0.23688800  0.86752800  0.12998100  1
  Mg  Mg55  1  0.39267200  0.35072000  0.76483600  1
  Mg  Mg56  1  0.39267200  0.64928000  0.26483600  1
  Mg  Mg57  1  0.26311200  0.63247200  0.87001900  1
  Mg  Mg58  1  0.10732800  0.14928000  0.23516400  1
  Mg  Mg59  1  0.26600050  0.11688450  0.27509700  1
  Mg  Mg60  1  0.26311200  0.36752800  0.37001900  1
  Mg  Mg61  1  0.41928050  0.90955650  0.05098200  1
  Mg  Mg62  1  0.41928050  0.09044350  0.55098200  1
  Mg  Mg63  1  0.26600050  0.88311550  0.77509700  1
  Mg  Mg64  1  0.23688800  0.13247200  0.62998100  1
  Mg  Mg65  1  0.50000000  0.07362000  0.75000000  1
  Mg  Mg66  1  0.23399950  0.38311550  0.72490300  1
  Mg  Mg67  1  0.08071950  0.59044350  0.94901800  1
  Mg  Mg68  1  0.08071950  0.40955650  0.44901800  1
  Mg  Mg69  1  0.10732800  0.85072000  0.73516400  1
  Mg  Mg70  1  0.50000000  0.92638000  0.25000000  1
  Mg  Mg71  1  0.23399950  0.61688450  0.22490300  1
  P  P72  1  0.66324650  0.61490550  0.77590800  1
  P  P73  1  0.83675350  0.11490550  0.72409200  1
  P  P74  1  0.63809150  0.92018750  0.28647100  1
  P  P75  1  0.68451650  0.38035950  0.60042000  1
  P  P76  1  0.83675350  0.88509450  0.22409200  1
  P  P77  1  0.86190850  0.57981250  0.71352900  1
  P  P78  1  0.50154450  0.85374550  0.90422200  1
  P  P79  1  0.52667250  0.36194250  0.87922200  1
  P  P80  1  0.97332750  0.13805750  0.12077800  1
  P  P81  1  0.50154450  0.14625450  0.40422200  1
  P  P82  1  0.86190850  0.42018750  0.21352900  1
  P  P83  1  0.99845550  0.35374550  0.59577800  1
  P  P84  1  0.69436200  0.87833800  0.52479700  1
  P  P85  1  0.66324650  0.38509450  0.27590800  1
  P  P86  1  0.97332750  0.86194250  0.62077800  1
  P  P87  1  0.80563800  0.37833800  0.97520300  1
  P  P88  1  0.99845550  0.64625450  0.09577800  1
  P  P89  1  0.69436200  0.12166200  0.02479700  1
  P  P90  1  0.63809150  0.07981250  0.78647100  1
  P  P91  1  0.68451650  0.61964050  0.10042000  1
  P  P92  1  0.52667250  0.63805750  0.37922200  1
  P  P93  1  0.81548350  0.11964050  0.39958000  1
  P  P94  1  0.81548350  0.88035950  0.89958000  1
  P  P95  1  0.80563800  0.62166200  0.47520300  1
  P  P96  1  0.16324650  0.11490550  0.77590800  1
  P  P97  1  0.33675350  0.61490550  0.72409200  1
  P  P98  1  0.13809150  0.42018750  0.28647100  1
  P  P99  1  0.18451650  0.88035950  0.60042000  1
  P  P100  1  0.33675350  0.38509450  0.22409200  1
  P  P101  1  0.36190850  0.07981250  0.71352900  1
  P  P102  1  0.00154450  0.35374550  0.90422200  1
  P  P103  1  0.02667250  0.86194250  0.87922200  1
  P  P104  1  0.47332750  0.63805750  0.12077800  1
  P  P105  1  0.00154450  0.64625450  0.40422200  1
  P  P106  1  0.36190850  0.92018750  0.21352900  1
  P  P107  1  0.49845550  0.85374550  0.59577800  1
  P  P108  1  0.19436200  0.37833800  0.52479700  1
  P  P109  1  0.16324650  0.88509450  0.27590800  1
  P  P110  1  0.47332750  0.36194250  0.62077800  1
  P  P111  1  0.30563800  0.87833800  0.97520300  1
  P  P112  1  0.49845550  0.14625450  0.09577800  1
  P  P113  1  0.19436200  0.62166200  0.02479700  1
  P  P114  1  0.13809150  0.57981250  0.78647100  1
  P  P115  1  0.18451650  0.11964050  0.10042000  1
  P  P116  1  0.02667250  0.13805750  0.37922200  1
  P  P117  1  0.31548350  0.61964050  0.39958000  1
  P  P118  1  0.31548350  0.38035950  0.89958000  1
  P  P119  1  0.30563800  0.12166200  0.47520300  1
  O  O120  1  0.51229550  0.28343750  0.37096400  1
  O  O121  1  0.92746750  0.09625850  0.17236300  1
  O  O122  1  0.53350300  0.42302400  0.65831400  1
  O  O123  1  0.85669900  0.20622200  0.36065900  1
  O  O124  1  0.60091950  0.62225550  0.72699700  1
  O  O125  1  0.84202350  0.02165550  0.92037900  1
  O  O126  1  0.58085700  0.15245700  0.74286800  1
  O  O127  1  0.74436550  0.58718250  0.15589800  1
  O  O128  1  0.53350300  0.57697600  0.15831400  1
  O  O129  1  0.62268750  0.00261650  0.85721300  1
  O  O130  1  0.85669900  0.79377800  0.86065900  1
  O  O131  1  0.98770450  0.21656250  0.62903600  1
  O  O132  1  0.68227300  0.46428000  0.78237400  1
  O  O133  1  0.80042350  0.18229150  0.47428500  1
  O  O134  1  0.68300550  0.18949650  0.81362900  1
  O  O135  1  0.65213700  0.77417400  0.48012200  1
  O  O136  1  0.84786300  0.72582600  0.51987800  1
  O  O137  1  0.84202350  0.97834450  0.42037900  1
  O  O138  1  0.74412850  0.08267250  0.97947100  1
  O  O139  1  0.84113150  0.49011650  0.77623600  1
  O  O140  1  0.95029800  0.07547200  0.04039500  1
  O  O141  1  0.97957400  0.29051600  0.11731900  1
  O  O142  1  0.54970200  0.42452800  0.95960500  1
  O  O143  1  0.84288000  0.50531800  0.96999000  1
  O  O144  1  0.79248200  0.81026500  0.26606400  1
  O  O145  1  0.51105450  0.95973150  0.66087000  1
  O  O146  1  0.96649700  0.07697600  0.34168600  1
  O  O147  1  0.94432600  0.34705300  0.94156100  1
  O  O148  1  0.60091950  0.37774450  0.22699700  1
  O  O149  1  0.69957650  0.31770850  0.52571500  1
  O  O150  1  0.58085700  0.84754300  0.24286800  1
  O  O151  1  0.66442950  0.33833650  0.36084400  1
  O  O152  1  0.75587150  0.41732750  0.02052900  1
  O  O153  1  0.96649700  0.92302400  0.84168600  1
  O  O154  1  0.75587150  0.58267250  0.52052900  1
  O  O155  1  0.81699450  0.68949650  0.68637100  1
  O  O156  1  0.91914300  0.34754300  0.25713200  1
  O  O157  1  0.65712000  0.00531800  0.53001000  1
  O  O158  1  0.52042600  0.20948400  0.88268100  1
  O  O159  1  0.69957650  0.68229150  0.02571500  1
  O  O160  1  0.87731250  0.50261650  0.64278700  1
  O  O161  1  0.68300550  0.81050350  0.31362900  1
  O  O162  1  0.81772700  0.03572000  0.21762600  1
  O  O163  1  0.98894550  0.54026850  0.33913000  1
  O  O164  1  0.55567400  0.84705300  0.55843900  1
  O  O165  1  0.64330100  0.70622200  0.13934100  1
  O  O166  1  0.55567400  0.15294700  0.05843900  1
  O  O167  1  0.54970200  0.57547200  0.45960500  1
  O  O168  1  0.65213700  0.22582600  0.98012200  1
  O  O169  1  0.87731250  0.49738350  0.14278700  1
  O  O170  1  0.65712000  0.99468200  0.03001000  1
  O  O171  1  0.64330100  0.29377800  0.63934100  1
  O  O172  1  0.57253250  0.59625850  0.32763700  1
  O  O173  1  0.89908050  0.87774450  0.27300300  1
  O  O174  1  0.62268750  0.99738350  0.35721300  1
  O  O175  1  0.70751800  0.68973500  0.73393600  1
  O  O176  1  0.83557050  0.16166350  0.63915600  1
  O  O177  1  0.57253250  0.40374150  0.82763700  1
  O  O178  1  0.65886850  0.00988350  0.22376400  1
  O  O179  1  0.79248200  0.18973500  0.76606400  1
  O  O180  1  0.84113150  0.50988350  0.27623600  1
  O  O181  1  0.89908050  0.12225550  0.77300300  1
  O  O182  1  0.70751800  0.31026500  0.23393600  1
  O  O183  1  0.55294900  0.09928200  0.46816000  1
  O  O184  1  0.98770450  0.78343750  0.12903600  1
  O  O185  1  0.55294900  0.90071800  0.96816000  1
  O  O186  1  0.77774100  0.32983400  0.89262500  1
  O  O187  1  0.92746750  0.90374150  0.67236300  1
  O  O188  1  0.91914300  0.65245700  0.75713200  1
  O  O189  1  0.75563450  0.08718250  0.34410200  1
  O  O190  1  0.94432600  0.65294700  0.44156100  1
  O  O191  1  0.83557050  0.83833650  0.13915600  1
  O  O192  1  0.81699450  0.31050350  0.18637100  1
  O  O193  1  0.80042350  0.81770850  0.97428500  1
  O  O194  1  0.98894550  0.45973150  0.83913000  1
  O  O195  1  0.65797650  0.52165550  0.57962100  1
  O  O196  1  0.72225900  0.17016600  0.10737500  1
  O  O197  1  0.68227300  0.53572000  0.28237400  1
  O  O198  1  0.81772700  0.96428000  0.71762600  1
  O  O199  1  0.51105450  0.04026850  0.16087000  1
  O  O200  1  0.74436550  0.41281750  0.65589800  1
  O  O201  1  0.75563450  0.91281750  0.84410200  1
  O  O202  1  0.94705100  0.40071800  0.53184000  1
  O  O203  1  0.84786300  0.27417400  0.01987800  1
  O  O204  1  0.72225900  0.82983400  0.60737500  1
  O  O205  1  0.51229550  0.71656250  0.87096400  1
  O  O206  1  0.65886850  0.99011650  0.72376400  1
  O  O207  1  0.95029800  0.92452800  0.54039500  1
  O  O208  1  0.77774100  0.67016600  0.39262500  1
  O  O209  1  0.84288000  0.49468200  0.46999000  1
  O  O210  1  0.97957400  0.70948400  0.61731900  1
  O  O211  1  0.74412850  0.91732750  0.47947100  1
  O  O212  1  0.52042600  0.79051600  0.38268100  1
  O  O213  1  0.66442950  0.66166350  0.86084400  1
  O  O214  1  0.65797650  0.47834450  0.07962100  1
  O  O215  1  0.94705100  0.59928200  0.03184000  1
  O  O216  1  0.01229550  0.78343750  0.37096400  1
  O  O217  1  0.42746750  0.59625850  0.17236300  1
  O  O218  1  0.03350300  0.92302400  0.65831400  1
  O  O219  1  0.35669900  0.70622200  0.36065900  1
  O  O220  1  0.10091950  0.12225550  0.72699700  1
  O  O221  1  0.34202350  0.52165550  0.92037900  1
  O  O222  1  0.08085700  0.65245700  0.74286800  1
  O  O223  1  0.24436550  0.08718250  0.15589800  1
  O  O224  1  0.03350300  0.07697600  0.15831400  1
  O  O225  1  0.12268750  0.50261650  0.85721300  1
  O  O226  1  0.35669900  0.29377800  0.86065900  1
  O  O227  1  0.48770450  0.71656250  0.62903600  1
  O  O228  1  0.18227300  0.96428000  0.78237400  1
  O  O229  1  0.30042350  0.68229150  0.47428500  1
  O  O230  1  0.18300550  0.68949650  0.81362900  1
  O  O231  1  0.15213700  0.27417400  0.48012200  1
  O  O232  1  0.34786300  0.22582600  0.51987800  1
  O  O233  1  0.34202350  0.47834450  0.42037900  1
  O  O234  1  0.24412850  0.58267250  0.97947100  1
  O  O235  1  0.34113150  0.99011650  0.77623600  1
  O  O236  1  0.45029800  0.57547200  0.04039500  1
  O  O237  1  0.47957400  0.79051600  0.11731900  1
  O  O238  1  0.04970200  0.92452800  0.95960500  1
  O  O239  1  0.34288000  0.00531800  0.96999000  1
  O  O240  1  0.29248200  0.31026500  0.26606400  1
  O  O241  1  0.01105450  0.45973150  0.66087000  1
  O  O242  1  0.46649700  0.57697600  0.34168600  1
  O  O243  1  0.44432600  0.84705300  0.94156100  1
  O  O244  1  0.10091950  0.87774450  0.22699700  1
  O  O245  1  0.19957650  0.81770850  0.52571500  1
  O  O246  1  0.08085700  0.34754300  0.24286800  1
  O  O247  1  0.16442950  0.83833650  0.36084400  1
  O  O248  1  0.25587150  0.91732750  0.02052900  1
  O  O249  1  0.46649700  0.42302400  0.84168600  1
  O  O250  1  0.25587150  0.08267250  0.52052900  1
  O  O251  1  0.31699450  0.18949650  0.68637100  1
  O  O252  1  0.41914300  0.84754300  0.25713200  1
  O  O253  1  0.15712000  0.50531800  0.53001000  1
  O  O254  1  0.02042600  0.70948400  0.88268100  1
  O  O255  1  0.19957650  0.18229150  0.02571500  1
  O  O256  1  0.37731250  0.00261650  0.64278700  1
  O  O257  1  0.18300550  0.31050350  0.31362900  1
  O  O258  1  0.31772700  0.53572000  0.21762600  1
  O  O259  1  0.48894550  0.04026850  0.33913000  1
  O  O260  1  0.05567400  0.34705300  0.55843900  1
  O  O261  1  0.14330100  0.20622200  0.13934100  1
  O  O262  1  0.05567400  0.65294700  0.05843900  1
  O  O263  1  0.04970200  0.07547200  0.45960500  1
  O  O264  1  0.15213700  0.72582600  0.98012200  1
  O  O265  1  0.37731250  0.99738350  0.14278700  1
  O  O266  1  0.15712000  0.49468200  0.03001000  1
  O  O267  1  0.14330100  0.79377800  0.63934100  1
  O  O268  1  0.07253250  0.09625850  0.32763700  1
  O  O269  1  0.39908050  0.37774450  0.27300300  1
  O  O270  1  0.12268750  0.49738350  0.35721300  1
  O  O271  1  0.20751800  0.18973500  0.73393600  1
  O  O272  1  0.33557050  0.66166350  0.63915600  1
  O  O273  1  0.07253250  0.90374150  0.82763700  1
  O  O274  1  0.15886850  0.50988350  0.22376400  1
  O  O275  1  0.29248200  0.68973500  0.76606400  1
  O  O276  1  0.34113150  0.00988350  0.27623600  1
  O  O277  1  0.39908050  0.62225550  0.77300300  1
  O  O278  1  0.20751800  0.81026500  0.23393600  1
  O  O279  1  0.05294900  0.59928200  0.46816000  1
  O  O280  1  0.48770450  0.28343750  0.12903600  1
  O  O281  1  0.05294900  0.40071800  0.96816000  1
  O  O282  1  0.27774100  0.82983400  0.89262500  1
  O  O283  1  0.42746750  0.40374150  0.67236300  1
  O  O284  1  0.41914300  0.15245700  0.75713200  1
  O  O285  1  0.25563450  0.58718250  0.34410200  1
  O  O286  1  0.44432600  0.15294700  0.44156100  1
  O  O287  1  0.33557050  0.33833650  0.13915600  1
  O  O288  1  0.31699450  0.81050350  0.18637100  1
  O  O289  1  0.30042350  0.31770850  0.97428500  1
  O  O290  1  0.48894550  0.95973150  0.83913000  1
  O  O291  1  0.15797650  0.02165550  0.57962100  1
  O  O292  1  0.22225900  0.67016600  0.10737500  1
  O  O293  1  0.18227300  0.03572000  0.28237400  1
  O  O294  1  0.31772700  0.46428000  0.71762600  1
  O  O295  1  0.01105450  0.54026850  0.16087000  1
  O  O296  1  0.24436550  0.91281750  0.65589800  1
  O  O297  1  0.25563450  0.41281750  0.84410200  1
  O  O298  1  0.44705100  0.90071800  0.53184000  1
  O  O299  1  0.34786300  0.77417400  0.01987800  1
  O  O300  1  0.22225900  0.32983400  0.60737500  1
  O  O301  1  0.01229550  0.21656250  0.87096400  1
  O  O302  1  0.15886850  0.49011650  0.72376400  1
  O  O303  1  0.45029800  0.42452800  0.54039500  1
  O  O304  1  0.27774100  0.17016600  0.39262500  1
  O  O305  1  0.34288000  0.99468200  0.46999000  1
  O  O306  1  0.47957400  0.20948400  0.61731900  1
  O  O307  1  0.24412850  0.41732750  0.47947100  1
  O  O308  1  0.02042600  0.29051600  0.38268100  1
  O  O309  1  0.16442950  0.16166350  0.86084400  1
  O  O310  1  0.15797650  0.97834450  0.07962100  1
  O  O311  1  0.44705100  0.09928200  0.03184000  1
