# generated using pymatgen
data_P4S3I2
_symmetry_space_group_name_H-M   'P 1'
_cell_length_a   6.95894900
_cell_length_b   9.94723300
_cell_length_c   16.75924100
_cell_angle_alpha   90.00000000
_cell_angle_beta   90.00000000
_cell_angle_gamma   90.00000000
_symmetry_Int_Tables_number   1
_chemical_formula_structural   P4S3I2
_chemical_formula_sum   'P16 S12 I8'
_cell_volume   1160.11299272
_cell_formula_units_Z   4
loop_
 _symmetry_equiv_pos_site_id
 _symmetry_equiv_pos_as_xyz
  1  'x, y, z'
loop_
 _atom_site_type_symbol
 _atom_site_label
 _atom_site_symmetry_multiplicity
 _atom_site_fract_x
 _atom_site_fract_y
 _atom_site_fract_z
 _atom_site_occupancy
  P  P0  1  0.45333500  0.47838000  0.35092000  1
  P  P1  1  0.04666500  0.97838000  0.35092000  1
  P  P2  1  0.80945300  0.13267600  0.75000000  1
  P  P3  1  0.30945300  0.36732400  0.25000000  1
  P  P4  1  0.95333500  0.02162000  0.64908000  1
  P  P5  1  0.24305800  0.24413200  0.75000000  1
  P  P6  1  0.54666500  0.52162000  0.64908000  1
  P  P7  1  0.54666500  0.52162000  0.85092000  1
  P  P8  1  0.74305800  0.25586800  0.25000000  1
  P  P9  1  0.25694200  0.74413200  0.75000000  1
  P  P10  1  0.95333500  0.02162000  0.85092000  1
  P  P11  1  0.45333500  0.47838000  0.14908000  1
  P  P12  1  0.75694200  0.75586800  0.25000000  1
  P  P13  1  0.69054700  0.63267600  0.75000000  1
  P  P14  1  0.19054700  0.86732400  0.25000000  1
  P  P15  1  0.04666500  0.97838000  0.14908000  1
  S  S16  1  0.76643200  0.88928600  0.14974700  1
  S  S17  1  0.73356800  0.38928600  0.14974700  1
  S  S18  1  0.23356800  0.11071400  0.85025300  1
  S  S19  1  0.54142300  0.81815200  0.75000000  1
  S  S20  1  0.26643200  0.61071400  0.85025300  1
  S  S21  1  0.76643200  0.88928600  0.35025300  1
  S  S22  1  0.04142300  0.68184800  0.25000000  1
  S  S23  1  0.26643200  0.61071400  0.64974700  1
  S  S24  1  0.73356800  0.38928600  0.35025300  1
  S  S25  1  0.95857700  0.31815200  0.75000000  1
  S  S26  1  0.45857700  0.18184800  0.25000000  1
  S  S27  1  0.23356800  0.11071400  0.64974700  1
  I  I28  1  0.72204000  0.64551100  0.95844200  1
  I  I29  1  0.27796000  0.35448900  0.04155800  1
  I  I30  1  0.27796000  0.35448900  0.45844200  1
  I  I31  1  0.77796000  0.14551100  0.95844200  1
  I  I32  1  0.77796000  0.14551100  0.54155800  1
  I  I33  1  0.22204000  0.85448900  0.04155800  1
  I  I34  1  0.22204000  0.85448900  0.45844200  1
  I  I35  1  0.72204000  0.64551100  0.54155800  1
