# generated using pymatgen
data_Cu4H3C2N5
_symmetry_space_group_name_H-M   'P 1'
_cell_length_a   5.78607185
_cell_length_b   5.78607185
_cell_length_c   10.86263600
_cell_angle_alpha   90.00000000
_cell_angle_beta   90.00000000
_cell_angle_gamma   120.00000000
_symmetry_Int_Tables_number   1
_chemical_formula_structural   Cu4H3C2N5
_chemical_formula_sum   'Cu8 H6 C4 N10'
_cell_volume   314.94411933
_cell_formula_units_Z   2
loop_
 _symmetry_equiv_pos_site_id
 _symmetry_equiv_pos_as_xyz
  1  'x, y, z'
loop_
 _atom_site_type_symbol
 _atom_site_label
 _atom_site_symmetry_multiplicity
 _atom_site_fract_x
 _atom_site_fract_y
 _atom_site_fract_z
 _atom_site_occupancy
  Cu  Cu0  1  0.67019100  0.83509550  0.73229900  1
  Cu  Cu1  1  0.16490450  0.83509550  0.73229900  1
  Cu  Cu2  1  0.16490450  0.32980900  0.73229900  1
  Cu  Cu3  1  0.33333333  0.66666667  0.25125100  1
  Cu  Cu4  1  0.83509550  0.16490450  0.23229900  1
  Cu  Cu5  1  0.32980900  0.16490450  0.23229900  1
  Cu  Cu6  1  0.66666667  0.33333333  0.75125100  1
  Cu  Cu7  1  0.83509550  0.67019100  0.23229900  1
  H  H8  1  0.23712400  0.47424800  0.03889300  1
  H  H9  1  0.23712400  0.76287600  0.03889300  1
  H  H10  1  0.52575200  0.76287600  0.03889300  1
  H  H11  1  0.76287600  0.23712400  0.53889300  1
  H  H12  1  0.47424800  0.23712400  0.53889300  1
  H  H13  1  0.76287600  0.52575200  0.53889300  1
  C  C14  1  0.33333333  0.66666667  0.53131800  1
  C  C15  1  0.00000000  0.00000000  0.43909500  1
  C  C16  1  0.66666667  0.33333333  0.03131800  1
  C  C17  1  0.00000000  0.00000000  0.93909500  1
  N  N18  1  0.33333333  0.66666667  0.07190900  1
  N  N19  1  0.00000000  0.00000000  0.32036200  1
  N  N20  1  0.00000000  0.00000000  0.04933900  1
  N  N21  1  0.00000000  0.00000000  0.54933900  1
  N  N22  1  0.33333333  0.66666667  0.42182900  1
  N  N23  1  0.00000000  0.00000000  0.82036200  1
  N  N24  1  0.33333333  0.66666667  0.65052400  1
  N  N25  1  0.66666667  0.33333333  0.92182900  1
  N  N26  1  0.66666667  0.33333333  0.57190900  1
  N  N27  1  0.66666667  0.33333333  0.15052400  1
