# generated using pymatgen
data_Al2Se3
_symmetry_space_group_name_H-M   'P 1'
_cell_length_a   7.52328600
_cell_length_b   7.52328600
_cell_length_c   31.89210600
_cell_angle_alpha   90.00000000
_cell_angle_beta   90.00000000
_cell_angle_gamma   90.00000000
_symmetry_Int_Tables_number   1
_chemical_formula_structural   Al2Se3
_chemical_formula_sum   'Al32 Se48'
_cell_volume   1805.08784931
_cell_formula_units_Z   16
loop_
 _symmetry_equiv_pos_site_id
 _symmetry_equiv_pos_as_xyz
  1  'x, y, z'
loop_
 _atom_site_type_symbol
 _atom_site_label
 _atom_site_symmetry_multiplicity
 _atom_site_fract_x
 _atom_site_fract_y
 _atom_site_fract_z
 _atom_site_occupancy
  Al  Al0  1  0.50000000  0.50000000  0.17123600  1
  Al  Al1  1  0.00000000  0.00000000  0.32876400  1
  Al  Al2  1  0.50000000  0.00000000  0.42123600  1
  Al  Al3  1  0.50000000  0.72719450  0.29369050  1
  Al  Al4  1  0.22719450  0.50000000  0.04369050  1
  Al  Al5  1  0.50000000  0.00000000  0.07876400  1
  Al  Al6  1  0.00000000  0.27280550  0.45630950  1
  Al  Al7  1  0.77280550  0.00000000  0.20630950  1
  Al  Al8  1  0.77280550  0.50000000  0.04369050  1
  Al  Al9  1  0.00000000  0.75000000  0.12500000  1
  Al  Al10  1  0.00000000  0.25000000  0.12500000  1
  Al  Al11  1  0.22719450  0.00000000  0.20630950  1
  Al  Al12  1  0.25000000  0.50000000  0.37500000  1
  Al  Al13  1  0.50000000  0.27280550  0.29369050  1
  Al  Al14  1  0.75000000  0.50000000  0.37500000  1
  Al  Al15  1  0.00000000  0.72719450  0.45630950  1
  Al  Al16  1  0.00000000  0.00000000  0.67123600  1
  Al  Al17  1  0.50000000  0.50000000  0.82876400  1
  Al  Al18  1  0.00000000  0.50000000  0.92123600  1
  Al  Al19  1  0.00000000  0.22719450  0.79369050  1
  Al  Al20  1  0.72719450  0.00000000  0.54369050  1
  Al  Al21  1  0.00000000  0.50000000  0.57876400  1
  Al  Al22  1  0.50000000  0.77280550  0.95630950  1
  Al  Al23  1  0.27280550  0.50000000  0.70630950  1
  Al  Al24  1  0.27280550  0.00000000  0.54369050  1
  Al  Al25  1  0.50000000  0.25000000  0.62500000  1
  Al  Al26  1  0.50000000  0.75000000  0.62500000  1
  Al  Al27  1  0.72719450  0.50000000  0.70630950  1
  Al  Al28  1  0.75000000  0.00000000  0.87500000  1
  Al  Al29  1  0.00000000  0.77280550  0.79369050  1
  Al  Al30  1  0.25000000  0.00000000  0.87500000  1
  Al  Al31  1  0.50000000  0.22719450  0.95630950  1
  Se  Se32  1  0.50000000  0.74071300  0.37507600  1
  Se  Se33  1  0.76915300  0.00000000  0.46289500  1
  Se  Se34  1  0.50000000  0.73084700  0.03710500  1
  Se  Se35  1  0.00000000  0.74071300  0.37492400  1
  Se  Se36  1  0.23084700  0.00000000  0.46289500  1
  Se  Se37  1  0.75928700  0.50000000  0.12507600  1
  Se  Se38  1  0.75928700  0.00000000  0.12492400  1
  Se  Se39  1  0.00000000  0.24372300  0.20440600  1
  Se  Se40  1  0.00000000  0.74372300  0.04559400  1
  Se  Se41  1  0.00000000  0.75627700  0.20440600  1
  Se  Se42  1  0.24071300  0.50000000  0.12507600  1
  Se  Se43  1  0.24071300  0.00000000  0.12492400  1
  Se  Se44  1  0.26915300  0.00000000  0.28710500  1
  Se  Se45  1  0.25627700  0.50000000  0.29559400  1
  Se  Se46  1  0.50000000  0.23084700  0.21289500  1
  Se  Se47  1  0.50000000  0.25928700  0.37507600  1
  Se  Se48  1  0.50000000  0.76915300  0.21289500  1
  Se  Se49  1  0.73084700  0.00000000  0.28710500  1
  Se  Se50  1  0.74372300  0.50000000  0.29559400  1
  Se  Se51  1  0.75627700  0.50000000  0.45440600  1
  Se  Se52  1  0.50000000  0.26915300  0.03710500  1
  Se  Se53  1  0.00000000  0.25928700  0.37492400  1
  Se  Se54  1  0.24372300  0.50000000  0.45440600  1
  Se  Se55  1  0.00000000  0.25627700  0.04559400  1
  Se  Se56  1  0.00000000  0.24071300  0.87507600  1
  Se  Se57  1  0.26915300  0.50000000  0.96289500  1
  Se  Se58  1  0.00000000  0.23084700  0.53710500  1
  Se  Se59  1  0.50000000  0.24071300  0.87492400  1
  Se  Se60  1  0.73084700  0.50000000  0.96289500  1
  Se  Se61  1  0.25928700  0.00000000  0.62507600  1
  Se  Se62  1  0.25928700  0.50000000  0.62492400  1
  Se  Se63  1  0.50000000  0.74372300  0.70440600  1
  Se  Se64  1  0.50000000  0.24372300  0.54559400  1
  Se  Se65  1  0.50000000  0.25627700  0.70440600  1
  Se  Se66  1  0.74071300  0.00000000  0.62507600  1
  Se  Se67  1  0.74071300  0.50000000  0.62492400  1
  Se  Se68  1  0.76915300  0.50000000  0.78710500  1
  Se  Se69  1  0.75627700  0.00000000  0.79559400  1
  Se  Se70  1  0.00000000  0.73084700  0.71289500  1
  Se  Se71  1  0.00000000  0.75928700  0.87507600  1
  Se  Se72  1  0.00000000  0.26915300  0.71289500  1
  Se  Se73  1  0.23084700  0.50000000  0.78710500  1
  Se  Se74  1  0.24372300  0.00000000  0.79559400  1
  Se  Se75  1  0.25627700  0.00000000  0.95440600  1
  Se  Se76  1  0.00000000  0.76915300  0.53710500  1
  Se  Se77  1  0.50000000  0.75928700  0.87492400  1
  Se  Se78  1  0.74372300  0.00000000  0.95440600  1
  Se  Se79  1  0.50000000  0.75627700  0.54559400  1
