# generated using pymatgen
data_Sr(H8O5)2
_symmetry_space_group_name_H-M   'P 1'
_cell_length_a   9.70801800
_cell_length_b   8.75229200
_cell_length_c   11.40971384
_cell_angle_alpha   90.00000000
_cell_angle_beta   95.51139849
_cell_angle_gamma   90.00000000
_symmetry_Int_Tables_number   1
_chemical_formula_structural   Sr(H8O5)2
_chemical_formula_sum   'Sr4 H64 O40'
_cell_volume   964.97213685
_cell_formula_units_Z   4
loop_
 _symmetry_equiv_pos_site_id
 _symmetry_equiv_pos_as_xyz
  1  'x, y, z'
loop_
 _atom_site_type_symbol
 _atom_site_label
 _atom_site_symmetry_multiplicity
 _atom_site_fract_x
 _atom_site_fract_y
 _atom_site_fract_z
 _atom_site_occupancy
  Sr  Sr0  1  0.51363100  0.51164000  0.74650600  1
  Sr  Sr1  1  0.51363100  0.48836000  0.24650600  1
  Sr  Sr2  1  0.01363100  0.01164000  0.74650600  1
  Sr  Sr3  1  0.01363100  0.98836000  0.24650600  1
  H  H4  1  0.82031750  0.43394450  0.66205700  1
  H  H5  1  0.71255350  0.40964850  0.55093400  1
  H  H6  1  0.24541500  0.66749500  0.65224700  1
  H  H7  1  0.27560900  0.59308900  0.53218800  1
  H  H8  1  0.83201350  0.80521050  0.61589000  1
  H  H9  1  0.94703400  0.66748600  0.64206800  1
  H  H10  1  0.18580950  0.22317950  0.65303400  1
  H  H11  1  0.05741400  0.34876800  0.64093500  1
  H  H12  1  0.18580950  0.77682050  0.15303400  1
  H  H13  1  0.05741400  0.65123200  0.14093500  1
  H  H14  1  0.94703400  0.33251400  0.14206800  1
  H  H15  1  0.83201350  0.19478950  0.11589000  1
  H  H16  1  0.82031750  0.56605550  0.16205700  1
  H  H17  1  0.71255350  0.59035150  0.05093400  1
  H  H18  1  0.24541500  0.33250500  0.15224700  1
  H  H19  1  0.27560900  0.40691100  0.03218800  1
  H  H20  1  0.13454300  0.55046800  0.31873300  1
  H  H21  1  0.86445400  0.15329100  0.38963600  1
  H  H22  1  0.73600600  0.28577300  0.38939800  1
  H  H23  1  0.80693200  0.45906200  0.37643700  1
  H  H24  1  0.04942650  0.32645650  0.35188200  1
  H  H25  1  0.07865400  0.22254900  0.46589800  1
  H  H26  1  0.95299200  0.67079800  0.35111200  1
  H  H27  1  0.91498200  0.77587900  0.45424500  1
  H  H28  1  0.95299200  0.32920200  0.85111200  1
  H  H29  1  0.91498200  0.22412100  0.95424500  1
  H  H30  1  0.04942650  0.67354350  0.85188200  1
  H  H31  1  0.07865400  0.77745100  0.96589800  1
  H  H32  1  0.86445400  0.84670900  0.88963600  1
  H  H33  1  0.13454300  0.44953200  0.81873300  1
  H  H34  1  0.80693200  0.54093800  0.87643700  1
  H  H35  1  0.73600600  0.71422700  0.88939800  1
  H  H36  1  0.32031750  0.93394450  0.66205700  1
  H  H37  1  0.21255350  0.90964850  0.55093400  1
  H  H38  1  0.74541500  0.16749500  0.65224700  1
  H  H39  1  0.77560900  0.09308900  0.53218800  1
  H  H40  1  0.33201350  0.30521050  0.61589000  1
  H  H41  1  0.44703400  0.16748600  0.64206800  1
  H  H42  1  0.68580950  0.72317950  0.65303400  1
  H  H43  1  0.55741400  0.84876800  0.64093500  1
  H  H44  1  0.68580950  0.27682050  0.15303400  1
  H  H45  1  0.55741400  0.15123200  0.14093500  1
  H  H46  1  0.44703400  0.83251400  0.14206800  1
  H  H47  1  0.33201350  0.69478950  0.11589000  1
  H  H48  1  0.32031750  0.06605550  0.16205700  1
  H  H49  1  0.21255350  0.09035150  0.05093400  1
  H  H50  1  0.74541500  0.83250500  0.15224700  1
  H  H51  1  0.77560900  0.90691100  0.03218800  1
  H  H52  1  0.63454300  0.05046800  0.31873300  1
  H  H53  1  0.36445400  0.65329100  0.38963600  1
  H  H54  1  0.23600600  0.78577300  0.38939800  1
  H  H55  1  0.30693200  0.95906200  0.37643700  1
  H  H56  1  0.54942650  0.82645650  0.35188200  1
  H  H57  1  0.57865400  0.72254900  0.46589800  1
  H  H58  1  0.45299200  0.17079800  0.35111200  1
  H  H59  1  0.41498200  0.27587900  0.45424500  1
  H  H60  1  0.45299200  0.82920200  0.85111200  1
  H  H61  1  0.41498200  0.72412100  0.95424500  1
  H  H62  1  0.54942650  0.17354350  0.85188200  1
  H  H63  1  0.57865400  0.27745100  0.96589800  1
  H  H64  1  0.36445400  0.34670900  0.88963600  1
  H  H65  1  0.63454300  0.94953200  0.81873300  1
  H  H66  1  0.30693200  0.04093800  0.87643700  1
  H  H67  1  0.23600600  0.21422700  0.88939800  1
  O  O68  1  0.98863400  0.49175600  0.68000300  1
  O  O69  1  0.98863400  0.50824400  0.18000300  1
  O  O70  1  0.03446600  0.50900000  0.30790700  1
  O  O71  1  0.03446600  0.49100000  0.80790700  1
  O  O72  1  0.71963200  0.40935100  0.63868400  1
  O  O73  1  0.28941150  0.57639350  0.62063200  1
  O  O74  1  0.92920550  0.77836450  0.61475300  1
  O  O75  1  0.09234750  0.23901850  0.61746500  1
  O  O76  1  0.09234750  0.76098150  0.11746500  1
  O  O77  1  0.92920550  0.22163550  0.11475300  1
  O  O78  1  0.71963200  0.59064900  0.13868400  1
  O  O79  1  0.28941150  0.42360650  0.12063200  1
  O  O80  1  0.26421000  0.63581200  0.39084600  1
  O  O81  1  0.71874400  0.41256200  0.39117200  1
  O  O82  1  0.04962000  0.21855900  0.37956000  1
  O  O83  1  0.91227450  0.77127250  0.36757500  1
  O  O84  1  0.91227450  0.22872750  0.86757500  1
  O  O85  1  0.04962000  0.78144100  0.87956000  1
  O  O86  1  0.26421000  0.36418800  0.89084600  1
  O  O87  1  0.71874400  0.58743800  0.89117200  1
  O  O88  1  0.48863400  0.99175600  0.68000300  1
  O  O89  1  0.48863400  0.00824400  0.18000300  1
  O  O90  1  0.53446600  0.00900000  0.30790700  1
  O  O91  1  0.53446600  0.99100000  0.80790700  1
  O  O92  1  0.21963200  0.90935100  0.63868400  1
  O  O93  1  0.78941150  0.07639350  0.62063200  1
  O  O94  1  0.42920550  0.27836450  0.61475300  1
  O  O95  1  0.59234750  0.73901850  0.61746500  1
  O  O96  1  0.59234750  0.26098150  0.11746500  1
  O  O97  1  0.42920550  0.72163550  0.11475300  1
  O  O98  1  0.21963200  0.09064900  0.13868400  1
  O  O99  1  0.78941150  0.92360650  0.12063200  1
  O  O100  1  0.76421000  0.13581200  0.39084600  1
  O  O101  1  0.21874400  0.91256200  0.39117200  1
  O  O102  1  0.54962000  0.71855900  0.37956000  1
  O  O103  1  0.41227450  0.27127250  0.36757500  1
  O  O104  1  0.41227450  0.72872750  0.86757500  1
  O  O105  1  0.54962000  0.28144100  0.87956000  1
  O  O106  1  0.76421000  0.86418800  0.89084600  1
  O  O107  1  0.21874400  0.08743800  0.89117200  1
