# generated using pymatgen
data_CrPO4
_symmetry_space_group_name_H-M   'P 1'
_cell_length_a   6.05762000
_cell_length_b   7.43118200
_cell_length_c   15.52987564
_cell_angle_alpha   90.00000000
_cell_angle_beta   98.43134214
_cell_angle_gamma   90.00000000
_symmetry_Int_Tables_number   1
_chemical_formula_structural   CrPO4
_chemical_formula_sum   'Cr8 P8 O32'
_cell_volume   691.52616627
_cell_formula_units_Z   8
loop_
 _symmetry_equiv_pos_site_id
 _symmetry_equiv_pos_as_xyz
  1  'x, y, z'
loop_
 _atom_site_type_symbol
 _atom_site_label
 _atom_site_symmetry_multiplicity
 _atom_site_fract_x
 _atom_site_fract_y
 _atom_site_fract_z
 _atom_site_occupancy
  Cr  Cr0  1  0.24955950  0.16156950  0.24996300  1
  Cr  Cr1  1  0.75044050  0.83843050  0.75003700  1
  Cr  Cr2  1  0.75044050  0.16156950  0.25003700  1
  Cr  Cr3  1  0.24955950  0.83843050  0.74996300  1
  Cr  Cr4  1  0.74955950  0.66156950  0.24996300  1
  Cr  Cr5  1  0.25044050  0.33843050  0.75003700  1
  Cr  Cr6  1  0.25044050  0.66156950  0.25003700  1
  Cr  Cr7  1  0.74955950  0.33843050  0.74996300  1
  P  P8  1  0.65437850  0.91272850  0.36979300  1
  P  P9  1  0.34562150  0.08727150  0.63020700  1
  P  P10  1  0.34562150  0.91272850  0.13020700  1
  P  P11  1  0.65437850  0.08727150  0.86979300  1
  P  P12  1  0.15437850  0.41272850  0.36979300  1
  P  P13  1  0.84562150  0.58727150  0.63020700  1
  P  P14  1  0.84562150  0.41272850  0.13020700  1
  P  P15  1  0.15437850  0.58727150  0.86979300  1
  O  O16  1  0.82517000  0.08871700  0.79648500  1
  O  O17  1  0.47484500  0.73177600  0.16473400  1
  O  O18  1  0.47484500  0.26822400  0.66473400  1
  O  O19  1  0.74815200  0.92061900  0.46137700  1
  O  O20  1  0.52368050  0.09227050  0.33398300  1
  O  O21  1  0.17483000  0.91128300  0.20351500  1
  O  O22  1  0.74815200  0.07938100  0.96137700  1
  O  O23  1  0.17483000  0.08871700  0.70351500  1
  O  O24  1  0.25184800  0.92061900  0.03862300  1
  O  O25  1  0.52515500  0.73177600  0.33526600  1
  O  O26  1  0.52515500  0.26822400  0.83526600  1
  O  O27  1  0.47631950  0.90772950  0.66601700  1
  O  O28  1  0.52368050  0.90772950  0.83398300  1
  O  O29  1  0.47631950  0.09227050  0.16601700  1
  O  O30  1  0.25184800  0.07938100  0.53862300  1
  O  O31  1  0.82517000  0.91128300  0.29648500  1
  O  O32  1  0.32517000  0.58871700  0.79648500  1
  O  O33  1  0.97484500  0.23177600  0.16473400  1
  O  O34  1  0.97484500  0.76822400  0.66473400  1
  O  O35  1  0.24815200  0.42061900  0.46137700  1
  O  O36  1  0.02368050  0.59227050  0.33398300  1
  O  O37  1  0.67483000  0.41128300  0.20351500  1
  O  O38  1  0.24815200  0.57938100  0.96137700  1
  O  O39  1  0.67483000  0.58871700  0.70351500  1
  O  O40  1  0.75184800  0.42061900  0.03862300  1
  O  O41  1  0.02515500  0.23177600  0.33526600  1
  O  O42  1  0.02515500  0.76822400  0.83526600  1
  O  O43  1  0.97631950  0.40772950  0.66601700  1
  O  O44  1  0.02368050  0.40772950  0.83398300  1
  O  O45  1  0.97631950  0.59227050  0.16601700  1
  O  O46  1  0.75184800  0.57938100  0.53862300  1
  O  O47  1  0.32517000  0.41128300  0.29648500  1
