# generated using pymatgen
data_Nd2Pb5F16
_symmetry_space_group_name_H-M   'P 1'
_cell_length_a   7.36774800
_cell_length_b   4.11230800
_cell_length_c   24.80019806
_cell_angle_alpha   90.00000000
_cell_angle_beta   94.88747966
_cell_angle_gamma   90.00000000
_symmetry_Int_Tables_number   1
_chemical_formula_structural   Nd2Pb5F16
_chemical_formula_sum   'Nd4 Pb10 F32'
_cell_volume   748.67537270
_cell_formula_units_Z   2
loop_
 _symmetry_equiv_pos_site_id
 _symmetry_equiv_pos_as_xyz
  1  'x, y, z'
loop_
 _atom_site_type_symbol
 _atom_site_label
 _atom_site_symmetry_multiplicity
 _atom_site_fract_x
 _atom_site_fract_y
 _atom_site_fract_z
 _atom_site_occupancy
  Nd  Nd0  1  0.55325600  0.50000000  0.69199100  1
  Nd  Nd1  1  0.64400700  0.00000000  0.84014500  1
  Nd  Nd2  1  0.05325600  0.00000000  0.69199100  1
  Nd  Nd3  1  0.14400700  0.50000000  0.84014500  1
  Pb  Pb4  1  0.53461000  0.50000000  0.98337900  1
  Pb  Pb5  1  0.92968200  0.50000000  0.12806200  1
  Pb  Pb6  1  0.81052400  0.00000000  0.26849900  1
  Pb  Pb7  1  0.67662100  0.00000000  0.54976900  1
  Pb  Pb8  1  0.80636500  0.50000000  0.41258000  1
  Pb  Pb9  1  0.03461000  0.00000000  0.98337900  1
  Pb  Pb10  1  0.42968200  0.00000000  0.12806200  1
  Pb  Pb11  1  0.31052400  0.50000000  0.26849900  1
  Pb  Pb12  1  0.17662100  0.50000000  0.54976900  1
  Pb  Pb13  1  0.30636500  0.00000000  0.41258000  1
  F  F14  1  0.77635100  0.00000000  0.16583800  1
  F  F15  1  0.58447500  0.50000000  0.09295100  1
  F  F16  1  0.68250300  0.50000000  0.30118900  1
  F  F17  1  0.98686200  0.50000000  0.23003500  1
  F  F18  1  0.65995500  0.00000000  0.37723400  1
  F  F19  1  0.51565100  0.50000000  0.45005400  1
  F  F20  1  0.52220300  0.50000000  0.59309600  1
  F  F21  1  0.84377000  0.50000000  0.51957600  1
  F  F22  1  0.67820100  0.00000000  0.74614400  1
  F  F23  1  0.87238300  0.50000000  0.69029100  1
  F  F24  1  0.70219000  0.00000000  0.64627400  1
  F  F25  1  0.50075400  0.50000000  0.88478700  1
  F  F26  1  0.51735200  0.50000000  0.78528500  1
  F  F27  1  0.82535500  0.50000000  0.84125300  1
  F  F28  1  0.87576600  0.50000000  0.01707500  1
  F  F29  1  0.68630000  0.00000000  0.94020400  1
  F  F30  1  0.27635100  0.50000000  0.16583800  1
  F  F31  1  0.08447500  0.00000000  0.09295100  1
  F  F32  1  0.18250300  0.00000000  0.30118900  1
  F  F33  1  0.48686200  0.00000000  0.23003500  1
  F  F34  1  0.15995500  0.50000000  0.37723400  1
  F  F35  1  0.01565100  0.00000000  0.45005400  1
  F  F36  1  0.02220300  0.00000000  0.59309600  1
  F  F37  1  0.34377000  0.00000000  0.51957600  1
  F  F38  1  0.17820100  0.50000000  0.74614400  1
  F  F39  1  0.37238300  0.00000000  0.69029100  1
  F  F40  1  0.20219000  0.50000000  0.64627400  1
  F  F41  1  0.00075400  0.00000000  0.88478700  1
  F  F42  1  0.01735200  0.00000000  0.78528500  1
  F  F43  1  0.32535500  0.00000000  0.84125300  1
  F  F44  1  0.37576600  0.00000000  0.01707500  1
  F  F45  1  0.18630000  0.50000000  0.94020400  1
