# generated using pymatgen
data_Yb(YS2)2
_symmetry_space_group_name_H-M   'P 1'
_cell_length_a   8.36140200
_cell_length_b   8.36140200
_cell_length_c   8.32707000
_cell_angle_alpha   90.00000000
_cell_angle_beta   90.00000000
_cell_angle_gamma   90.00000000
_symmetry_Int_Tables_number   1
_chemical_formula_structural   Yb(YS2)2
_chemical_formula_sum   'Yb4 Y8 S16'
_cell_volume   582.17080635
_cell_formula_units_Z   4
loop_
 _symmetry_equiv_pos_site_id
 _symmetry_equiv_pos_as_xyz
  1  'x, y, z'
loop_
 _atom_site_type_symbol
 _atom_site_label
 _atom_site_symmetry_multiplicity
 _atom_site_fract_x
 _atom_site_fract_y
 _atom_site_fract_z
 _atom_site_occupancy
  Yb  Yb0  1  0.00000000  0.00000000  0.50000000  1
  Yb  Yb1  1  0.50000000  0.00000000  0.75000000  1
  Yb  Yb2  1  0.50000000  0.50000000  0.00000000  1
  Yb  Yb3  1  0.00000000  0.50000000  0.25000000  1
  Y  Y4  1  0.87257900  0.75000000  0.87500000  1
  Y  Y5  1  0.75000000  0.37257900  0.62500000  1
  Y  Y6  1  0.62742100  0.75000000  0.37500000  1
  Y  Y7  1  0.75000000  0.12742100  0.12500000  1
  Y  Y8  1  0.37257900  0.25000000  0.37500000  1
  Y  Y9  1  0.25000000  0.87257900  0.12500000  1
  Y  Y10  1  0.12742100  0.25000000  0.87500000  1
  Y  Y11  1  0.25000000  0.62742100  0.62500000  1
  S  S12  1  0.07259200  0.32212600  0.55734000  1
  S  S13  1  0.67787400  0.07259200  0.44266000  1
  S  S14  1  0.67787400  0.42740800  0.30734000  1
  S  S15  1  0.42740800  0.32212600  0.69266000  1
  S  S16  1  0.82212600  0.07259200  0.80734000  1
  S  S17  1  0.07259200  0.17787400  0.19266000  1
  S  S18  1  0.42740800  0.17787400  0.05734000  1
  S  S19  1  0.82212600  0.42740800  0.94266000  1
  S  S20  1  0.57259200  0.82212600  0.05734000  1
  S  S21  1  0.17787400  0.57259200  0.94266000  1
  S  S22  1  0.17787400  0.92740800  0.80734000  1
  S  S23  1  0.92740800  0.82212600  0.19266000  1
  S  S24  1  0.32212600  0.57259200  0.30734000  1
  S  S25  1  0.57259200  0.67787400  0.69266000  1
  S  S26  1  0.92740800  0.67787400  0.55734000  1
  S  S27  1  0.32212600  0.92740800  0.44266000  1
