# generated using pymatgen
data_NaSr3RuO6
_symmetry_space_group_name_H-M   'P 1'
_cell_length_a   9.72949619
_cell_length_b   9.72949619
_cell_length_c   11.66172777
_cell_angle_alpha   90.00000000
_cell_angle_beta   90.00000000
_cell_angle_gamma   120.00000000
_symmetry_Int_Tables_number   1
_chemical_formula_structural   NaSr3RuO6
_chemical_formula_sum   'Na6 Sr18 Ru6 O36'
_cell_volume   956.03597676
_cell_formula_units_Z   6
loop_
 _symmetry_equiv_pos_site_id
 _symmetry_equiv_pos_as_xyz
  1  'x, y, z'
loop_
 _atom_site_type_symbol
 _atom_site_label
 _atom_site_symmetry_multiplicity
 _atom_site_fract_x
 _atom_site_fract_y
 _atom_site_fract_z
 _atom_site_occupancy
  Na  Na0  1  0.00000000  0.00000000  0.25000000  1
  Na  Na1  1  0.00000000  0.00000000  0.75000000  1
  Na  Na2  1  0.66666667  0.33333333  0.58333333  1
  Na  Na3  1  0.66666667  0.33333333  0.08333333  1
  Na  Na4  1  0.33333333  0.66666667  0.91666667  1
  Na  Na5  1  0.33333333  0.66666667  0.41666667  1
  Sr  Sr6  1  0.97535433  0.66666667  0.41666667  1
  Sr  Sr7  1  0.33333333  0.30868767  0.41666667  1
  Sr  Sr8  1  0.69131233  0.02464567  0.41666667  1
  Sr  Sr9  1  0.02464567  0.33333333  0.58333333  1
  Sr  Sr10  1  0.66666667  0.69131233  0.58333333  1
  Sr  Sr11  1  0.30868767  0.97535433  0.58333333  1
  Sr  Sr12  1  0.64202100  0.00000000  0.75000000  1
  Sr  Sr13  1  0.00000000  0.64202100  0.75000000  1
  Sr  Sr14  1  0.35797900  0.35797900  0.75000000  1
  Sr  Sr15  1  0.69131233  0.66666667  0.91666667  1
  Sr  Sr16  1  0.33333333  0.02464567  0.91666667  1
  Sr  Sr17  1  0.97535433  0.30868767  0.91666667  1
  Sr  Sr18  1  0.30868767  0.33333333  0.08333333  1
  Sr  Sr19  1  0.66666667  0.97535433  0.08333333  1
  Sr  Sr20  1  0.02464567  0.69131233  0.08333333  1
  Sr  Sr21  1  0.35797900  0.00000000  0.25000000  1
  Sr  Sr22  1  0.00000000  0.35797900  0.25000000  1
  Sr  Sr23  1  0.64202100  0.64202100  0.25000000  1
  Ru  Ru24  1  0.00000000  0.00000000  0.00000000  1
  Ru  Ru25  1  0.00000000  0.00000000  0.50000000  1
  Ru  Ru26  1  0.66666667  0.33333333  0.33333333  1
  Ru  Ru27  1  0.66666667  0.33333333  0.83333333  1
  Ru  Ru28  1  0.33333333  0.66666667  0.66666667  1
  Ru  Ru29  1  0.33333333  0.66666667  0.16666667  1
  O  O30  1  0.17885667  0.15485133  0.59947533  1
  O  O31  1  0.84514867  0.02400533  0.59947533  1
  O  O32  1  0.97599467  0.82114333  0.59947533  1
  O  O33  1  0.35733867  0.51181533  0.56719133  1
  O  O34  1  0.48818467  0.84552333  0.56719133  1
  O  O35  1  0.15447667  0.64266133  0.56719133  1
  O  O36  1  0.82114333  0.84514867  0.40052467  1
  O  O37  1  0.15485133  0.97599467  0.40052467  1
  O  O38  1  0.02400533  0.17885667  0.40052467  1
  O  O39  1  0.64266133  0.48818467  0.43280867  1
  O  O40  1  0.84552333  0.35733867  0.43280867  1
  O  O41  1  0.51181533  0.15447667  0.43280867  1
  O  O42  1  0.84552333  0.48818467  0.93280867  1
  O  O43  1  0.51181533  0.35733867  0.93280867  1
  O  O44  1  0.64266133  0.15447667  0.93280867  1
  O  O45  1  0.02400533  0.84514867  0.90052467  1
  O  O46  1  0.15485133  0.17885667  0.90052467  1
  O  O47  1  0.82114333  0.97599467  0.90052467  1
  O  O48  1  0.48781000  0.17848200  0.73385800  1
  O  O49  1  0.82151800  0.30932800  0.73385800  1
  O  O50  1  0.69067200  0.51219000  0.73385800  1
  O  O51  1  0.30932800  0.82151800  0.76614200  1
  O  O52  1  0.51219000  0.69067200  0.76614200  1
  O  O53  1  0.17848200  0.48781000  0.76614200  1
  O  O54  1  0.51219000  0.82151800  0.26614200  1
  O  O55  1  0.17848200  0.69067200  0.26614200  1
  O  O56  1  0.30932800  0.48781000  0.26614200  1
  O  O57  1  0.69067200  0.17848200  0.23385800  1
  O  O58  1  0.82151800  0.51219000  0.23385800  1
  O  O59  1  0.48781000  0.30932800  0.23385800  1
  O  O60  1  0.15447667  0.51181533  0.06719133  1
  O  O61  1  0.48818467  0.64266133  0.06719133  1
  O  O62  1  0.35733867  0.84552333  0.06719133  1
  O  O63  1  0.97599467  0.15485133  0.09947533  1
  O  O64  1  0.17885667  0.02400533  0.09947533  1
  O  O65  1  0.84514867  0.82114333  0.09947533  1
