# generated using pymatgen
data_HgH12(ClO7)2
_symmetry_space_group_name_H-M   'P 1'
_cell_length_a   7.91242520
_cell_length_b   7.91242520
_cell_length_c   5.68832600
_cell_angle_alpha   90.00000000
_cell_angle_beta   90.00000000
_cell_angle_gamma   120.00000000
_symmetry_Int_Tables_number   1
_chemical_formula_structural   HgH12(ClO7)2
_chemical_formula_sum   'Hg1 H12 Cl2 O14'
_cell_volume   308.41418522
_cell_formula_units_Z   1
loop_
 _symmetry_equiv_pos_site_id
 _symmetry_equiv_pos_as_xyz
  1  'x, y, z'
loop_
 _atom_site_type_symbol
 _atom_site_label
 _atom_site_symmetry_multiplicity
 _atom_site_fract_x
 _atom_site_fract_y
 _atom_site_fract_z
 _atom_site_occupancy
  Hg  Hg0  1  0.00000000  0.00000000  0.00000000  1
  H  H1  1  0.34778200  0.27352600  0.26945300  1
  H  H2  1  0.92574400  0.65221800  0.26945300  1
  H  H3  1  0.72647400  0.07425600  0.26945300  1
  H  H4  1  0.34778200  0.07425600  0.26945300  1
  H  H5  1  0.72647400  0.65221800  0.26945300  1
  H  H6  1  0.92574400  0.27352600  0.26945300  1
  H  H7  1  0.65221800  0.72647400  0.73054700  1
  H  H8  1  0.07425600  0.34778200  0.73054700  1
  H  H9  1  0.27352600  0.92574400  0.73054700  1
  H  H10  1  0.65221800  0.92574400  0.73054700  1
  H  H11  1  0.27352600  0.34778200  0.73054700  1
  H  H12  1  0.07425600  0.72647400  0.73054700  1
  Cl  Cl13  1  0.66666667  0.33333333  0.80438300  1
  Cl  Cl14  1  0.33333333  0.66666667  0.19561700  1
  O  O15  1  0.26333400  0.13166700  0.27743500  1
  O  O16  1  0.86833300  0.73666600  0.27743500  1
  O  O17  1  0.86833300  0.13166700  0.27743500  1
  O  O18  1  0.73666600  0.86833300  0.72256500  1
  O  O19  1  0.13166700  0.26333400  0.72256500  1
  O  O20  1  0.13166700  0.86833300  0.72256500  1
  O  O21  1  0.86770200  0.43385100  0.71522500  1
  O  O22  1  0.56614900  0.13229800  0.71522500  1
  O  O23  1  0.56614900  0.43385100  0.71522500  1
  O  O24  1  0.13229800  0.56614900  0.28477500  1
  O  O25  1  0.43385100  0.86770200  0.28477500  1
  O  O26  1  0.43385100  0.56614900  0.28477500  1
  O  O27  1  0.66666667  0.33333333  0.05975700  1
  O  O28  1  0.33333333  0.66666667  0.94024300  1
