# generated using pymatgen
data_Nd2Zr2O7
_symmetry_space_group_name_H-M   'P 1'
_cell_length_a   3.67429700
_cell_length_b   7.67588500
_cell_length_c   10.99859600
_cell_angle_alpha   90.00000000
_cell_angle_beta   90.00000000
_cell_angle_gamma   90.00000000
_symmetry_Int_Tables_number   1
_chemical_formula_structural   Nd2Zr2O7
_chemical_formula_sum   'Nd4 Zr4 O14'
_cell_volume   310.19869582
_cell_formula_units_Z   2
loop_
 _symmetry_equiv_pos_site_id
 _symmetry_equiv_pos_as_xyz
  1  'x, y, z'
loop_
 _atom_site_type_symbol
 _atom_site_label
 _atom_site_symmetry_multiplicity
 _atom_site_fract_x
 _atom_site_fract_y
 _atom_site_fract_z
 _atom_site_occupancy
  Nd  Nd0  1  0.50000000  0.00000000  0.50000000  1
  Nd  Nd1  1  0.00000000  0.25000000  0.22231000  1
  Nd  Nd2  1  0.50000000  0.50000000  0.50000000  1
  Nd  Nd3  1  0.00000000  0.75000000  0.77769000  1
  Zr  Zr4  1  0.00000000  0.75000000  0.23880500  1
  Zr  Zr5  1  0.00000000  0.25000000  0.76119500  1
  Zr  Zr6  1  0.50000000  0.50000000  0.00000000  1
  Zr  Zr7  1  0.50000000  0.00000000  0.00000000  1
  O  O8  1  0.00000000  0.96145300  0.63341100  1
  O  O9  1  0.50000000  0.25000000  0.86688600  1
  O  O10  1  0.00000000  0.02504300  0.88566600  1
  O  O11  1  0.00000000  0.97495700  0.11433400  1
  O  O12  1  0.00000000  0.52504300  0.11433400  1
  O  O13  1  0.50000000  0.25000000  0.10071700  1
  O  O14  1  0.50000000  0.75000000  0.36987600  1
  O  O15  1  0.00000000  0.03854700  0.36658900  1
  O  O16  1  0.00000000  0.46145300  0.36658900  1
  O  O17  1  0.00000000  0.53854700  0.63341100  1
  O  O18  1  0.50000000  0.25000000  0.63012400  1
  O  O19  1  0.50000000  0.75000000  0.89928300  1
  O  O20  1  0.00000000  0.47495700  0.88566600  1
  O  O21  1  0.50000000  0.75000000  0.13311400  1
