# generated using pymatgen
data_ZnSiO3
_symmetry_space_group_name_H-M   'P 1'
_cell_length_a   5.29931500
_cell_length_b   9.31241600
_cell_length_c   9.42866239
_cell_angle_alpha   90.00000000
_cell_angle_beta   100.51128383
_cell_angle_gamma   90.00000000
_symmetry_Int_Tables_number   1
_chemical_formula_structural   ZnSiO3
_chemical_formula_sum   'Zn8 Si8 O24'
_cell_volume   457.49089087
_cell_formula_units_Z   8
loop_
 _symmetry_equiv_pos_site_id
 _symmetry_equiv_pos_as_xyz
  1  'x, y, z'
loop_
 _atom_site_type_symbol
 _atom_site_label
 _atom_site_symmetry_multiplicity
 _atom_site_fract_x
 _atom_site_fract_y
 _atom_site_fract_z
 _atom_site_occupancy
  Zn  Zn0  1  0.97029900  0.99518100  0.74480800  1
  Zn  Zn1  1  0.52970100  0.49518100  0.25519200  1
  Zn  Zn2  1  0.97703800  0.64599900  0.74984800  1
  Zn  Zn3  1  0.47703800  0.85400100  0.74984800  1
  Zn  Zn4  1  0.02296200  0.35400100  0.25015200  1
  Zn  Zn5  1  0.47029900  0.50481900  0.74480800  1
  Zn  Zn6  1  0.02970100  0.00481900  0.25519200  1
  Zn  Zn7  1  0.52296200  0.14599900  0.25015200  1
  Si  Si8  1  0.25258300  0.83709600  0.04626700  1
  Si  Si9  1  0.68710100  0.83314200  0.44430900  1
  Si  Si10  1  0.24741700  0.33709600  0.95373300  1
  Si  Si11  1  0.31289900  0.16685800  0.55569100  1
  Si  Si12  1  0.18710100  0.66685800  0.44430900  1
  Si  Si13  1  0.74741700  0.16290400  0.95373300  1
  Si  Si14  1  0.81289900  0.33314200  0.55569100  1
  Si  Si15  1  0.75258300  0.66290400  0.04626700  1
  O  O16  1  0.69715800  0.66352700  0.86798500  1
  O  O17  1  0.12391100  0.29608900  0.60223900  1
  O  O18  1  0.74843400  0.84027600  0.62265800  1
  O  O19  1  0.77838000  0.50646100  0.12424600  1
  O  O20  1  0.24843400  0.65972400  0.62265800  1
  O  O21  1  0.72162000  0.00646100  0.87575400  1
  O  O22  1  0.80284200  0.16352700  0.13201500  1
  O  O23  1  0.49200800  0.26129000  0.89676700  1
  O  O24  1  0.50799200  0.73871000  0.10323300  1
  O  O25  1  0.22162000  0.49353900  0.87575400  1
  O  O26  1  0.24682400  0.02189500  0.63787700  1
  O  O27  1  0.37608900  0.79608900  0.39776100  1
  O  O28  1  0.87608900  0.70391100  0.39776100  1
  O  O29  1  0.75317600  0.97810500  0.36212300  1
  O  O30  1  0.00799200  0.76129000  0.10323300  1
  O  O31  1  0.75156600  0.34027600  0.37734200  1
  O  O32  1  0.74682400  0.47810500  0.63787700  1
  O  O33  1  0.25156600  0.15972400  0.37734200  1
  O  O34  1  0.19715800  0.83647300  0.86798500  1
  O  O35  1  0.99200800  0.23871000  0.89676700  1
  O  O36  1  0.25317600  0.52189500  0.36212300  1
  O  O37  1  0.27838000  0.99353900  0.12424600  1
  O  O38  1  0.30284200  0.33647300  0.13201500  1
  O  O39  1  0.62391100  0.20391100  0.60223900  1
