# generated using pymatgen
data_V(PO3)4
_symmetry_space_group_name_H-M   'P 1'
_cell_length_a   15.05188600
_cell_length_b   7.34993000
_cell_length_c   9.64272226
_cell_angle_alpha   90.00000000
_cell_angle_beta   120.42946848
_cell_angle_gamma   90.00000000
_symmetry_Int_Tables_number   1
_chemical_formula_structural   V(PO3)4
_chemical_formula_sum   'V4 P16 O48'
_cell_volume   919.83227022
_cell_formula_units_Z   4
loop_
 _symmetry_equiv_pos_site_id
 _symmetry_equiv_pos_as_xyz
  1  'x, y, z'
loop_
 _atom_site_type_symbol
 _atom_site_label
 _atom_site_symmetry_multiplicity
 _atom_site_fract_x
 _atom_site_fract_y
 _atom_site_fract_z
 _atom_site_occupancy
  V  V0  1  0.00000000  0.85589100  0.25000000  1
  V  V1  1  0.00000000  0.14410900  0.75000000  1
  V  V2  1  0.50000000  0.35589100  0.25000000  1
  V  V3  1  0.50000000  0.64410900  0.75000000  1
  P  P4  1  0.86589650  0.16515750  0.33905900  1
  P  P5  1  0.63410350  0.66515750  0.16094100  1
  P  P6  1  0.87155650  0.56872150  0.35673700  1
  P  P7  1  0.13410350  0.83484250  0.66094100  1
  P  P8  1  0.62844350  0.06872150  0.14326300  1
  P  P9  1  0.37155650  0.93127850  0.85673700  1
  P  P10  1  0.12844350  0.43127850  0.64326300  1
  P  P11  1  0.36589650  0.33484250  0.83905900  1
  P  P12  1  0.36589650  0.66515750  0.33905900  1
  P  P13  1  0.13410350  0.16515750  0.16094100  1
  P  P14  1  0.37155650  0.06872150  0.35673700  1
  P  P15  1  0.63410350  0.33484250  0.66094100  1
  P  P16  1  0.12844350  0.56872150  0.14326300  1
  P  P17  1  0.87155650  0.43127850  0.85673700  1
  P  P18  1  0.62844350  0.93127850  0.64326300  1
  P  P19  1  0.86589650  0.83484250  0.83905900  1
  O  O20  1  0.07350000  0.05381700  0.21537700  1
  O  O21  1  0.36602450  0.13143850  0.78532700  1
  O  O22  1  0.24978050  0.38941150  0.72938300  1
  O  O23  1  0.75021950  0.61058850  0.27061700  1
  O  O24  1  0.10275050  0.85248350  0.48652400  1
  O  O25  1  0.89724950  0.85248350  0.01347600  1
  O  O26  1  0.91901900  0.41813300  0.03160700  1
  O  O27  1  0.08845200  0.68863600  0.23057700  1
  O  O28  1  0.08098100  0.41813300  0.46839300  1
  O  O29  1  0.89724950  0.14751650  0.51347600  1
  O  O30  1  0.63397550  0.86856150  0.21467300  1
  O  O31  1  0.91901900  0.58186700  0.53160700  1
  O  O32  1  0.08098100  0.58186700  0.96839300  1
  O  O33  1  0.91154800  0.68863600  0.26942300  1
  O  O34  1  0.07350000  0.94618300  0.71537700  1
  O  O35  1  0.86602450  0.36856150  0.28532700  1
  O  O36  1  0.25021950  0.88941150  0.77061700  1
  O  O37  1  0.10275050  0.14751650  0.98652400  1
  O  O38  1  0.13397550  0.63143850  0.71467300  1
  O  O39  1  0.91154800  0.31136400  0.76942300  1
  O  O40  1  0.92650000  0.05381700  0.28462300  1
  O  O41  1  0.92650000  0.94618300  0.78462300  1
  O  O42  1  0.74978050  0.11058850  0.22938300  1
  O  O43  1  0.08845200  0.31136400  0.73057700  1
  O  O44  1  0.57350000  0.55381700  0.21537700  1
  O  O45  1  0.86602450  0.63143850  0.78532700  1
  O  O46  1  0.74978050  0.88941150  0.72938300  1
  O  O47  1  0.25021950  0.11058850  0.27061700  1
  O  O48  1  0.60275050  0.35248350  0.48652400  1
  O  O49  1  0.39724950  0.35248350  0.01347600  1
  O  O50  1  0.41901900  0.91813300  0.03160700  1
  O  O51  1  0.58845200  0.18863600  0.23057700  1
  O  O52  1  0.58098100  0.91813300  0.46839300  1
  O  O53  1  0.39724950  0.64751650  0.51347600  1
  O  O54  1  0.13397550  0.36856150  0.21467300  1
  O  O55  1  0.41901900  0.08186700  0.53160700  1
  O  O56  1  0.58098100  0.08186700  0.96839300  1
  O  O57  1  0.41154800  0.18863600  0.26942300  1
  O  O58  1  0.57350000  0.44618300  0.71537700  1
  O  O59  1  0.36602450  0.86856150  0.28532700  1
  O  O60  1  0.75021950  0.38941150  0.77061700  1
  O  O61  1  0.60275050  0.64751650  0.98652400  1
  O  O62  1  0.63397550  0.13143850  0.71467300  1
  O  O63  1  0.41154800  0.81136400  0.76942300  1
  O  O64  1  0.42650000  0.55381700  0.28462300  1
  O  O65  1  0.42650000  0.44618300  0.78462300  1
  O  O66  1  0.24978050  0.61058850  0.22938300  1
  O  O67  1  0.58845200  0.81136400  0.73057700  1
