# generated using pymatgen
data_Zr(TiH2)2
_symmetry_space_group_name_H-M   'P 1'
_cell_length_a   8.15234200
_cell_length_b   8.15234200
_cell_length_c   8.15234200
_cell_angle_alpha   90.00000000
_cell_angle_beta   90.00000000
_cell_angle_gamma   90.00000000
_symmetry_Int_Tables_number   1
_chemical_formula_structural   Zr(TiH2)2
_chemical_formula_sum   'Zr8 Ti16 H32'
_cell_volume   541.81019361
_cell_formula_units_Z   8
loop_
 _symmetry_equiv_pos_site_id
 _symmetry_equiv_pos_as_xyz
  1  'x, y, z'
loop_
 _atom_site_type_symbol
 _atom_site_label
 _atom_site_symmetry_multiplicity
 _atom_site_fract_x
 _atom_site_fract_y
 _atom_site_fract_z
 _atom_site_occupancy
  Zr  Zr0  1  0.25000000  0.25000000  0.25000000  1
  Zr  Zr1  1  0.50000000  0.00000000  0.50000000  1
  Zr  Zr2  1  0.25000000  0.75000000  0.75000000  1
  Zr  Zr3  1  0.50000000  0.50000000  0.00000000  1
  Zr  Zr4  1  0.75000000  0.25000000  0.75000000  1
  Zr  Zr5  1  0.00000000  0.00000000  0.00000000  1
  Zr  Zr6  1  0.75000000  0.75000000  0.25000000  1
  Zr  Zr7  1  0.00000000  0.50000000  0.50000000  1
  Ti  Ti8  1  0.37500000  0.87500000  0.12500000  1
  Ti  Ti9  1  0.37500000  0.62500000  0.37500000  1
  Ti  Ti10  1  0.12500000  0.87500000  0.37500000  1
  Ti  Ti11  1  0.12500000  0.62500000  0.12500000  1
  Ti  Ti12  1  0.37500000  0.37500000  0.62500000  1
  Ti  Ti13  1  0.37500000  0.12500000  0.87500000  1
  Ti  Ti14  1  0.12500000  0.37500000  0.87500000  1
  Ti  Ti15  1  0.12500000  0.12500000  0.62500000  1
  Ti  Ti16  1  0.87500000  0.87500000  0.62500000  1
  Ti  Ti17  1  0.87500000  0.62500000  0.87500000  1
  Ti  Ti18  1  0.62500000  0.87500000  0.87500000  1
  Ti  Ti19  1  0.62500000  0.62500000  0.62500000  1
  Ti  Ti20  1  0.87500000  0.37500000  0.12500000  1
  Ti  Ti21  1  0.87500000  0.12500000  0.37500000  1
  Ti  Ti22  1  0.62500000  0.37500000  0.37500000  1
  Ti  Ti23  1  0.62500000  0.12500000  0.12500000  1
  H  H24  1  0.64438900  0.14438900  0.35561100  1
  H  H25  1  0.14438900  0.85561100  0.14438900  1
  H  H26  1  0.85561100  0.14438900  0.14438900  1
  H  H27  1  0.35561100  0.85561100  0.35561100  1
  H  H28  1  0.10561100  0.10561100  0.39438900  1
  H  H29  1  0.10561100  0.39438900  0.10561100  1
  H  H30  1  0.39438900  0.10561100  0.10561100  1
  H  H31  1  0.39438900  0.39438900  0.39438900  1
  H  H32  1  0.64438900  0.64438900  0.85561100  1
  H  H33  1  0.14438900  0.35561100  0.64438900  1
  H  H34  1  0.85561100  0.64438900  0.64438900  1
  H  H35  1  0.35561100  0.35561100  0.85561100  1
  H  H36  1  0.10561100  0.60561100  0.89438900  1
  H  H37  1  0.10561100  0.89438900  0.60561100  1
  H  H38  1  0.39438900  0.60561100  0.60561100  1
  H  H39  1  0.39438900  0.89438900  0.89438900  1
  H  H40  1  0.14438900  0.14438900  0.85561100  1
  H  H41  1  0.64438900  0.85561100  0.64438900  1
  H  H42  1  0.35561100  0.14438900  0.64438900  1
  H  H43  1  0.85561100  0.85561100  0.85561100  1
  H  H44  1  0.60561100  0.10561100  0.89438900  1
  H  H45  1  0.60561100  0.39438900  0.60561100  1
  H  H46  1  0.89438900  0.10561100  0.60561100  1
  H  H47  1  0.89438900  0.39438900  0.89438900  1
  H  H48  1  0.14438900  0.64438900  0.35561100  1
  H  H49  1  0.64438900  0.35561100  0.14438900  1
  H  H50  1  0.35561100  0.64438900  0.14438900  1
  H  H51  1  0.85561100  0.35561100  0.35561100  1
  H  H52  1  0.60561100  0.60561100  0.39438900  1
  H  H53  1  0.60561100  0.89438900  0.10561100  1
  H  H54  1  0.89438900  0.60561100  0.10561100  1
  H  H55  1  0.89438900  0.89438900  0.39438900  1
