# generated using pymatgen
data_LiZr2(PO4)3
_symmetry_space_group_name_H-M   'P 1'
_cell_length_a   15.52159400
_cell_length_b   9.03331200
_cell_length_c   9.19461384
_cell_angle_alpha   90.00000000
_cell_angle_beta   124.24191149
_cell_angle_gamma   90.00000000
_symmetry_Int_Tables_number   1
_chemical_formula_structural   LiZr2(PO4)3
_chemical_formula_sum   'Li4 Zr8 P12 O48'
_cell_volume   1065.73340129
_cell_formula_units_Z   4
loop_
 _symmetry_equiv_pos_site_id
 _symmetry_equiv_pos_as_xyz
  1  'x, y, z'
loop_
 _atom_site_type_symbol
 _atom_site_label
 _atom_site_symmetry_multiplicity
 _atom_site_fract_x
 _atom_site_fract_y
 _atom_site_fract_z
 _atom_site_occupancy
  Li  Li0  1  0.75777450  0.38588850  0.72080900  1
  Li  Li1  1  0.24222550  0.38588850  0.27919100  1
  Li  Li2  1  0.25777450  0.88588850  0.72080900  1
  Li  Li3  1  0.74222550  0.88588850  0.27919100  1
  Zr  Zr4  1  0.10654000  0.24975700  0.82070500  1
  Zr  Zr5  1  0.89346000  0.24975700  0.17929500  1
  Zr  Zr6  1  0.10555450  0.75030250  0.31843500  1
  Zr  Zr7  1  0.89444550  0.75030250  0.68156500  1
  Zr  Zr8  1  0.60654000  0.74975700  0.82070500  1
  Zr  Zr9  1  0.39346000  0.74975700  0.17929500  1
  Zr  Zr10  1  0.60555450  0.25030250  0.31843500  1
  Zr  Zr11  1  0.39444550  0.25030250  0.68156500  1
  P  P12  1  0.14561750  0.60607250  0.00193500  1
  P  P13  1  0.85438250  0.60607250  0.99806500  1
  P  P14  1  0.00000000  0.03750000  0.00000000  1
  P  P15  1  0.00000000  0.96281200  0.50000000  1
  P  P16  1  0.14344550  0.39594350  0.49834700  1
  P  P17  1  0.85655450  0.39594350  0.50165300  1
  P  P18  1  0.64561750  0.10607250  0.00193500  1
  P  P19  1  0.35438250  0.10607250  0.99806500  1
  P  P20  1  0.50000000  0.53750000  0.00000000  1
  P  P21  1  0.50000000  0.46281200  0.50000000  1
  P  P22  1  0.64344550  0.89594350  0.49834700  1
  P  P23  1  0.35655450  0.89594350  0.50165300  1
  O  O24  1  0.85297950  0.35906250  0.33561400  1
  O  O25  1  0.43429150  0.55888350  0.33386000  1
  O  O26  1  0.15356100  0.43447400  0.99717100  1
  O  O27  1  0.04433900  0.33005200  0.33435500  1
  O  O28  1  0.04580550  0.66817750  0.83901500  1
  O  O29  1  0.23973300  0.67802900  0.01718000  1
  O  O30  1  0.76026700  0.67802900  0.98282000  1
  O  O31  1  0.84643900  0.43447400  0.00282900  1
  O  O32  1  0.92640950  0.13683250  0.01913700  1
  O  O33  1  0.56570850  0.55888350  0.66614000  1
  O  O34  1  0.92015550  0.86514750  0.50737600  1
  O  O35  1  0.14702050  0.35906250  0.66438600  1
  O  O36  1  0.85043300  0.63377700  0.82724300  1
  O  O37  1  0.07359050  0.13683250  0.98086300  1
  O  O38  1  0.43447600  0.43746300  0.83632400  1
  O  O39  1  0.07984450  0.86514750  0.49262400  1
  O  O40  1  0.14593800  0.56502400  0.47856900  1
  O  O41  1  0.23825950  0.32995650  0.50347000  1
  O  O42  1  0.76174050  0.32995650  0.49653000  1
  O  O43  1  0.95566100  0.33005200  0.66564500  1
  O  O44  1  0.95419450  0.66817750  0.16098500  1
  O  O45  1  0.85406200  0.56502400  0.52143100  1
  O  O46  1  0.56552400  0.43746300  0.16367600  1
  O  O47  1  0.14956700  0.63377700  0.17275700  1
  O  O48  1  0.35297950  0.85906250  0.33561400  1
  O  O49  1  0.93429150  0.05888350  0.33386000  1
  O  O50  1  0.65356100  0.93447400  0.99717100  1
  O  O51  1  0.54433900  0.83005200  0.33435500  1
  O  O52  1  0.54580550  0.16817750  0.83901500  1
  O  O53  1  0.73973300  0.17802900  0.01718000  1
  O  O54  1  0.26026700  0.17802900  0.98282000  1
  O  O55  1  0.34643900  0.93447400  0.00282900  1
  O  O56  1  0.42640950  0.63683250  0.01913700  1
  O  O57  1  0.06570850  0.05888350  0.66614000  1
  O  O58  1  0.42015550  0.36514750  0.50737600  1
  O  O59  1  0.64702050  0.85906250  0.66438600  1
  O  O60  1  0.35043300  0.13377700  0.82724300  1
  O  O61  1  0.57359050  0.63683250  0.98086300  1
  O  O62  1  0.93447600  0.93746300  0.83632400  1
  O  O63  1  0.57984450  0.36514750  0.49262400  1
  O  O64  1  0.64593800  0.06502400  0.47856900  1
  O  O65  1  0.73825950  0.82995650  0.50347000  1
  O  O66  1  0.26174050  0.82995650  0.49653000  1
  O  O67  1  0.45566100  0.83005200  0.66564500  1
  O  O68  1  0.45419450  0.16817750  0.16098500  1
  O  O69  1  0.35406200  0.06502400  0.52143100  1
  O  O70  1  0.06552400  0.93746300  0.16367600  1
  O  O71  1  0.64956700  0.13377700  0.17275700  1
