# generated using pymatgen
data_CaMg3(CO3)4
_symmetry_space_group_name_H-M   'P 1'
_cell_length_a   9.61444815
_cell_length_b   9.61444815
_cell_length_c   7.90404107
_cell_angle_alpha   90.00000000
_cell_angle_beta   90.00000000
_cell_angle_gamma   120.00000000
_symmetry_Int_Tables_number   1
_chemical_formula_structural   CaMg3(CO3)4
_chemical_formula_sum   'Ca3 Mg9 C12 O36'
_cell_volume   632.74474001
_cell_formula_units_Z   3
loop_
 _symmetry_equiv_pos_site_id
 _symmetry_equiv_pos_as_xyz
  1  'x, y, z'
loop_
 _atom_site_type_symbol
 _atom_site_label
 _atom_site_symmetry_multiplicity
 _atom_site_fract_x
 _atom_site_fract_y
 _atom_site_fract_z
 _atom_site_occupancy
  Ca  Ca0  1  0.00000000  0.00000000  0.00000000  1
  Ca  Ca1  1  0.66666667  0.33333333  0.33333333  1
  Ca  Ca2  1  0.33333333  0.66666667  0.66666667  1
  Mg  Mg3  1  0.12412567  0.33333333  0.33333333  1
  Mg  Mg4  1  0.66666667  0.79079233  0.33333333  1
  Mg  Mg5  1  0.20920767  0.87587433  0.33333333  1
  Mg  Mg6  1  0.79079233  0.66666667  0.66666667  1
  Mg  Mg7  1  0.33333333  0.12412567  0.66666667  1
  Mg  Mg8  1  0.87587433  0.20920767  0.66666667  1
  Mg  Mg9  1  0.45745900  0.00000000  0.00000000  1
  Mg  Mg10  1  0.00000000  0.45745900  0.00000000  1
  Mg  Mg11  1  0.54254100  0.54254100  0.00000000  1
  C  C12  1  0.54334900  0.00000000  0.50000000  1
  C  C13  1  0.00000000  0.54334900  0.50000000  1
  C  C14  1  0.45665100  0.45665100  0.50000000  1
  C  C15  1  0.00000000  0.00000000  0.50000000  1
  C  C16  1  0.21001567  0.33333333  0.83333333  1
  C  C17  1  0.66666667  0.87668233  0.83333333  1
  C  C18  1  0.12331767  0.78998433  0.83333333  1
  C  C19  1  0.66666667  0.33333333  0.83333333  1
  C  C20  1  0.87668233  0.66666667  0.16666667  1
  C  C21  1  0.33333333  0.21001567  0.16666667  1
  C  C22  1  0.78998433  0.12331767  0.16666667  1
  C  C23  1  0.33333333  0.66666667  0.16666667  1
  O  O24  1  0.67580633  0.13506667  0.51571267  1
  O  O25  1  0.32419367  0.45926033  0.48428733  1
  O  O26  1  0.13506667  0.67580633  0.48428733  1
  O  O27  1  0.54073967  0.86493333  0.48428733  1
  O  O28  1  0.86503300  0.86503300  0.50000000  1
  O  O29  1  0.00000000  0.13496700  0.50000000  1
  O  O30  1  0.13496700  0.00000000  0.50000000  1
  O  O31  1  0.59209800  0.59209800  0.50000000  1
  O  O32  1  0.00000000  0.40790200  0.50000000  1
  O  O33  1  0.40790200  0.00000000  0.50000000  1
  O  O34  1  0.45926033  0.32419367  0.51571267  1
  O  O35  1  0.86493333  0.54073967  0.51571267  1
  O  O36  1  0.34247300  0.46840000  0.84904600  1
  O  O37  1  0.99086033  0.79259367  0.81762067  1
  O  O38  1  0.80173333  0.00913967  0.81762067  1
  O  O39  1  0.20740633  0.19826667  0.81762067  1
  O  O40  1  0.53169967  0.19836633  0.83333333  1
  O  O41  1  0.66666667  0.46830033  0.83333333  1
  O  O42  1  0.80163367  0.33333333  0.83333333  1
  O  O43  1  0.25876467  0.92543133  0.83333333  1
  O  O44  1  0.66666667  0.74123533  0.83333333  1
  O  O45  1  0.07456867  0.33333333  0.83333333  1
  O  O46  1  0.12592700  0.65752700  0.84904600  1
  O  O47  1  0.53160000  0.87407300  0.84904600  1
  O  O48  1  0.00913967  0.80173333  0.18237933  1
  O  O49  1  0.65752700  0.12592700  0.15095400  1
  O  O50  1  0.46840000  0.34247300  0.15095400  1
  O  O51  1  0.87407300  0.53160000  0.15095400  1
  O  O52  1  0.19836633  0.53169967  0.16666667  1
  O  O53  1  0.33333333  0.80163367  0.16666667  1
  O  O54  1  0.46830033  0.66666667  0.16666667  1
  O  O55  1  0.92543133  0.25876467  0.16666667  1
  O  O56  1  0.33333333  0.07456867  0.16666667  1
  O  O57  1  0.74123533  0.66666667  0.16666667  1
  O  O58  1  0.79259367  0.99086033  0.18237933  1
  O  O59  1  0.19826667  0.20740633  0.18237933  1
