# generated using pymatgen
data_KNiPH2O5
_symmetry_space_group_name_H-M   'P 1'
_cell_length_a   4.77072351
_cell_length_b   5.61027600
_cell_length_c   8.36101402
_cell_angle_alpha   90.00000000
_cell_angle_beta   90.00000000
_cell_angle_gamma   90.00000000
_symmetry_Int_Tables_number   1
_chemical_formula_structural   KNiPH2O5
_chemical_formula_sum   'K2 Ni2 P2 H4 O10'
_cell_volume   223.78317240
_cell_formula_units_Z   2
loop_
 _symmetry_equiv_pos_site_id
 _symmetry_equiv_pos_as_xyz
  1  'x, y, z'
loop_
 _atom_site_type_symbol
 _atom_site_label
 _atom_site_symmetry_multiplicity
 _atom_site_fract_x
 _atom_site_fract_y
 _atom_site_fract_z
 _atom_site_occupancy
  K  K0  1  0.63074800  0.00000000  0.45743575  1
  K  K1  1  0.13074800  0.50000000  0.54256425  1
  Ni  Ni2  1  0.50448500  0.00000000  0.01711675  1
  Ni  Ni3  1  0.00448500  0.50000000  0.98288325  1
  P  P4  1  0.07803700  0.00000000  0.79106125  1
  P  P5  1  0.57803700  0.50000000  0.20893875  1
  H  H6  1  0.08549600  0.14036050  0.19084525  1
  H  H7  1  0.08549600  0.85963950  0.19084525  1
  H  H8  1  0.58549600  0.35963950  0.80915475  1
  H  H9  1  0.58549600  0.64036050  0.80915475  1
  O  O10  1  0.75949500  0.00000000  0.82152175  1
  O  O11  1  0.25949500  0.50000000  0.17847825  1
  O  O12  1  0.13627300  0.00000000  0.61099125  1
  O  O13  1  0.63627300  0.50000000  0.38900875  1
  O  O14  1  0.20774100  0.00000000  0.20757275  1
  O  O15  1  0.70774100  0.50000000  0.79242725  1
  O  O16  1  0.22379300  0.22145900  0.87556925  1
  O  O17  1  0.22379300  0.77854100  0.87556925  1
  O  O18  1  0.72379300  0.27854100  0.12443075  1
  O  O19  1  0.72379300  0.72145900  0.12443075  1
