# generated using pymatgen
data_K6Ba3Ta12(Si2O13)4
_symmetry_space_group_name_H-M   'P 1'
_cell_length_a   7.87271200
_cell_length_b   9.17386900
_cell_length_c   15.88216800
_cell_angle_alpha   90.00000000
_cell_angle_beta   90.00000000
_cell_angle_gamma   90.00000000
_symmetry_Int_Tables_number   1
_chemical_formula_structural   K6Ba3Ta12(Si2O13)4
_chemical_formula_sum   'K6 Ba3 Ta12 Si8 O52'
_cell_volume   1147.06144954
_cell_formula_units_Z   1
loop_
 _symmetry_equiv_pos_site_id
 _symmetry_equiv_pos_as_xyz
  1  'x, y, z'
loop_
 _atom_site_type_symbol
 _atom_site_label
 _atom_site_symmetry_multiplicity
 _atom_site_fract_x
 _atom_site_fract_y
 _atom_site_fract_z
 _atom_site_occupancy
  K  K0  1  0.50000000  0.09462700  0.50000000  1
  K  K1  1  0.00000000  0.11305100  0.50000000  1
  K  K2  1  0.00000000  0.19667000  0.19554800  1
  K  K3  1  0.00000000  0.19667000  0.80445200  1
  K  K4  1  0.50000000  0.20276100  0.20286800  1
  K  K5  1  0.50000000  0.20276100  0.79713200  1
  Ba  Ba6  1  0.50000000  0.69831400  0.69877600  1
  Ba  Ba7  1  0.50000000  0.69831400  0.30122400  1
  Ba  Ba8  1  0.50000000  0.60209900  0.00000000  1
  Ta  Ta9  1  0.75003500  0.24073000  0.00000000  1
  Ta  Ta10  1  0.24625300  0.73528500  0.50000000  1
  Ta  Ta11  1  0.75374700  0.73528500  0.50000000  1
  Ta  Ta12  1  0.24786300  0.88291300  0.88179900  1
  Ta  Ta13  1  0.75213700  0.88291300  0.88179900  1
  Ta  Ta14  1  0.24786300  0.88291300  0.11820100  1
  Ta  Ta15  1  0.24996500  0.24073000  0.00000000  1
  Ta  Ta16  1  0.24862800  0.37949600  0.38032600  1
  Ta  Ta17  1  0.75137200  0.37949600  0.61967400  1
  Ta  Ta18  1  0.75137200  0.37949600  0.38032600  1
  Ta  Ta19  1  0.24862800  0.37949600  0.61967400  1
  Ta  Ta20  1  0.75213700  0.88291300  0.11820100  1
  Si  Si21  1  0.79407300  0.50413200  0.83378500  1
  Si  Si22  1  0.20592700  0.50413200  0.83378500  1
  Si  Si23  1  0.79182000  0.99559400  0.66704900  1
  Si  Si24  1  0.79182000  0.99559400  0.33295100  1
  Si  Si25  1  0.20818000  0.99559400  0.66704900  1
  Si  Si26  1  0.20818000  0.99559400  0.33295100  1
  Si  Si27  1  0.79407300  0.50413200  0.16621500  1
  Si  Si28  1  0.20592700  0.50413200  0.16621500  1
  O  O29  1  0.76151500  0.08930000  0.91204000  1
  O  O30  1  0.27451600  0.39788200  0.90923500  1
  O  O31  1  0.72548400  0.39788200  0.90923500  1
  O  O32  1  0.72626400  0.44151400  0.74361500  1
  O  O33  1  0.27373600  0.44151400  0.74361500  1
  O  O34  1  0.00000000  0.50166600  0.83423900  1
  O  O35  1  0.23926300  0.58631600  0.58782000  1
  O  O36  1  0.76073700  0.58631600  0.58782000  1
  O  O37  1  0.76073700  0.58631600  0.41218000  1
  O  O38  1  0.28313500  0.66665000  0.84839900  1
  O  O39  1  0.71686500  0.66665000  0.84839900  1
  O  O40  1  0.50000000  0.72960100  0.50000000  1
  O  O41  1  0.00000000  0.77282600  0.50000000  1
  O  O42  1  0.76121800  0.82339600  0.00000000  1
  O  O43  1  0.00000000  0.87212100  0.86543000  1
  O  O44  1  0.00000000  0.87212100  0.13457000  1
  O  O45  1  0.50000000  0.88136000  0.88573300  1
  O  O46  1  0.50000000  0.88136000  0.11426700  1
  O  O47  1  0.27862600  0.89293200  0.59146900  1
  O  O48  1  0.27862600  0.89293200  0.40853100  1
  O  O49  1  0.72137400  0.89293200  0.59146900  1
  O  O50  1  0.72137400  0.89293200  0.40853100  1
  O  O51  1  0.27893600  0.93568900  0.75691100  1
  O  O52  1  0.72106400  0.93568900  0.75691100  1
  O  O53  1  0.72106400  0.93568900  0.24308900  1
  O  O54  1  0.27893600  0.93568900  0.24308900  1
  O  O55  1  0.00000000  0.99701500  0.66734500  1
  O  O56  1  0.00000000  0.99701500  0.33265500  1
  O  O57  1  0.23848500  0.08930000  0.91204000  1
  O  O58  1  0.23848500  0.08930000  0.08796000  1
  O  O59  1  0.76151500  0.08930000  0.08796000  1
  O  O60  1  0.26896000  0.16410800  0.65295000  1
  O  O61  1  0.73104000  0.16410800  0.65295000  1
  O  O62  1  0.26896000  0.16410800  0.34705000  1
  O  O63  1  0.73104000  0.16410800  0.34705000  1
  O  O64  1  0.50000000  0.23733400  0.00000000  1
  O  O65  1  0.00000000  0.26447100  0.00000000  1
  O  O66  1  0.23868100  0.32483800  0.50000000  1
  O  O67  1  0.76131900  0.32483800  0.50000000  1
  O  O68  1  0.00000000  0.36040500  0.63379600  1
  O  O69  1  0.00000000  0.36040500  0.36620400  1
  O  O70  1  0.50000000  0.38538500  0.61909900  1
  O  O71  1  0.50000000  0.38538500  0.38090100  1
  O  O72  1  0.27451600  0.39788200  0.09076500  1
  O  O73  1  0.72548400  0.39788200  0.09076500  1
  O  O74  1  0.27373600  0.44151400  0.25638500  1
  O  O75  1  0.72626400  0.44151400  0.25638500  1
  O  O76  1  0.00000000  0.50166600  0.16576100  1
  O  O77  1  0.23926300  0.58631600  0.41218000  1
  O  O78  1  0.28313500  0.66665000  0.15160100  1
  O  O79  1  0.71686500  0.66665000  0.15160100  1
  O  O80  1  0.23878200  0.82339600  0.00000000  1
