# generated using pymatgen
data_In5CuS8
_symmetry_space_group_name_H-M   'P 1'
_cell_length_a   10.65469800
_cell_length_b   10.65469800
_cell_length_c   10.65469800
_cell_angle_alpha   90.00000000
_cell_angle_beta   90.00000000
_cell_angle_gamma   90.00000000
_symmetry_Int_Tables_number   1
_chemical_formula_structural   In5CuS8
_chemical_formula_sum   'In20 Cu4 S32'
_cell_volume   1209.54890699
_cell_formula_units_Z   4
loop_
 _symmetry_equiv_pos_site_id
 _symmetry_equiv_pos_as_xyz
  1  'x, y, z'
loop_
 _atom_site_type_symbol
 _atom_site_label
 _atom_site_symmetry_multiplicity
 _atom_site_fract_x
 _atom_site_fract_y
 _atom_site_fract_z
 _atom_site_occupancy
  In  In0  1  0.38147100  0.11852900  0.11852900  1
  In  In1  1  0.88147100  0.38147100  0.88147100  1
  In  In2  1  0.00000000  0.00000000  0.00000000  1
  In  In3  1  0.61852900  0.11852900  0.88147100  1
  In  In4  1  0.11852900  0.38147100  0.11852900  1
  In  In5  1  0.38147100  0.61852900  0.61852900  1
  In  In6  1  0.88147100  0.88147100  0.38147100  1
  In  In7  1  0.00000000  0.50000000  0.50000000  1
  In  In8  1  0.61852900  0.61852900  0.38147100  1
  In  In9  1  0.11852900  0.88147100  0.61852900  1
  In  In10  1  0.88147100  0.11852900  0.61852900  1
  In  In11  1  0.38147100  0.38147100  0.38147100  1
  In  In12  1  0.50000000  0.00000000  0.50000000  1
  In  In13  1  0.11852900  0.11852900  0.38147100  1
  In  In14  1  0.61852900  0.38147100  0.61852900  1
  In  In15  1  0.88147100  0.61852900  0.11852900  1
  In  In16  1  0.38147100  0.88147100  0.88147100  1
  In  In17  1  0.50000000  0.50000000  0.00000000  1
  In  In18  1  0.11852900  0.61852900  0.88147100  1
  In  In19  1  0.61852900  0.88147100  0.11852900  1
  Cu  Cu20  1  0.25000000  0.25000000  0.75000000  1
  Cu  Cu21  1  0.25000000  0.75000000  0.25000000  1
  Cu  Cu22  1  0.75000000  0.25000000  0.25000000  1
  Cu  Cu23  1  0.75000000  0.75000000  0.75000000  1
  S  S24  1  0.13430833  0.36569167  0.36569167  1
  S  S25  1  0.12382400  0.37617600  0.87617600  1
  S  S26  1  0.62382400  0.12382400  0.12382400  1
  S  S27  1  0.13430833  0.13430833  0.13430833  1
  S  S28  1  0.87617600  0.37617600  0.12382400  1
  S  S29  1  0.36569167  0.36569167  0.13430833  1
  S  S30  1  0.37617600  0.12382400  0.87617600  1
  S  S31  1  0.36569167  0.13430833  0.36569167  1
  S  S32  1  0.13430833  0.86569167  0.86569167  1
  S  S33  1  0.12382400  0.87617600  0.37617600  1
  S  S34  1  0.62382400  0.62382400  0.62382400  1
  S  S35  1  0.13430833  0.63430833  0.63430833  1
  S  S36  1  0.87617600  0.87617600  0.62382400  1
  S  S37  1  0.36569167  0.86569167  0.63430833  1
  S  S38  1  0.37617600  0.62382400  0.37617600  1
  S  S39  1  0.36569167  0.63430833  0.86569167  1
  S  S40  1  0.63430833  0.36569167  0.86569167  1
  S  S41  1  0.62382400  0.37617600  0.37617600  1
  S  S42  1  0.12382400  0.12382400  0.62382400  1
  S  S43  1  0.63430833  0.13430833  0.63430833  1
  S  S44  1  0.37617600  0.37617600  0.62382400  1
  S  S45  1  0.86569167  0.36569167  0.63430833  1
  S  S46  1  0.87617600  0.12382400  0.37617600  1
  S  S47  1  0.86569167  0.13430833  0.86569167  1
  S  S48  1  0.63430833  0.86569167  0.36569167  1
  S  S49  1  0.62382400  0.87617600  0.87617600  1
  S  S50  1  0.12382400  0.62382400  0.12382400  1
  S  S51  1  0.63430833  0.63430833  0.13430833  1
  S  S52  1  0.37617600  0.87617600  0.12382400  1
  S  S53  1  0.86569167  0.86569167  0.13430833  1
  S  S54  1  0.87617600  0.62382400  0.87617600  1
  S  S55  1  0.86569167  0.63430833  0.36569167  1
