# generated using pymatgen
data_LaP3H8O7
_symmetry_space_group_name_H-M   'P 1'
_cell_length_a   7.31400800
_cell_length_b   8.09975208
_cell_length_c   9.06195168
_cell_angle_alpha   110.71216222
_cell_angle_beta   98.21008353
_cell_angle_gamma   104.62168702
_symmetry_Int_Tables_number   1
_chemical_formula_structural   LaP3H8O7
_chemical_formula_sum   'La2 P6 H16 O14'
_cell_volume   469.63958442
_cell_formula_units_Z   2
loop_
 _symmetry_equiv_pos_site_id
 _symmetry_equiv_pos_as_xyz
  1  'x, y, z'
loop_
 _atom_site_type_symbol
 _atom_site_label
 _atom_site_symmetry_multiplicity
 _atom_site_fract_x
 _atom_site_fract_y
 _atom_site_fract_z
 _atom_site_occupancy
  La  La0  1  0.84001200  0.68261800  0.63204300  1
  La  La1  1  0.15998800  0.31738200  0.36795700  1
  P  P2  1  0.65220500  0.31848500  0.23161700  1
  P  P3  1  0.34779500  0.68151500  0.76838300  1
  P  P4  1  0.03305300  0.19290600  0.91224400  1
  P  P5  1  0.96694700  0.80709400  0.08775600  1
  P  P6  1  0.53182100  0.27195000  0.68711400  1
  P  P7  1  0.46817900  0.72805000  0.31288600  1
  H  H8  1  0.65597200  0.37564300  0.10061900  1
  H  H9  1  0.34402800  0.62435700  0.89938100  1
  H  H10  1  0.63321400  0.12655800  0.16041600  1
  H  H11  1  0.36678600  0.87344200  0.83958400  1
  H  H12  1  0.22605700  0.18394200  0.91777500  1
  H  H13  1  0.77394300  0.81605800  0.08222500  1
  H  H14  1  0.03799800  0.34720700  0.87047000  1
  H  H15  1  0.96200200  0.65279300  0.12953000  1
  H  H16  1  0.54491700  0.09944300  0.68505800  1
  H  H17  1  0.45508300  0.90055700  0.31494200  1
  H  H18  1  0.54690500  0.37653300  0.85478200  1
  H  H19  1  0.45309500  0.62346700  0.14521800  1
  H  H20  1  0.14835900  0.99607700  0.55889300  1
  H  H21  1  0.85164100  0.00392300  0.44110700  1
  H  H22  1  0.18732500  0.80020700  0.48024500  1
  H  H23  1  0.81267500  0.19979300  0.51975500  1
  O  O24  1  0.84844000  0.42711300  0.35956600  1
  O  O25  1  0.15156000  0.57288700  0.64043400  1
  O  O26  1  0.47284800  0.33903100  0.29288900  1
  O  O27  1  0.52715200  0.66096900  0.70711100  1
  O  O28  1  0.88666300  0.01921900  0.77397000  1
  O  O29  1  0.11333700  0.98078100  0.22603000  1
  O  O30  1  0.00501700  0.23998300  0.08358700  1
  O  O31  1  0.99498300  0.76001700  0.91641300  1
  O  O32  1  0.71144500  0.36296400  0.64163900  1
  O  O33  1  0.28855500  0.63703600  0.35836100  1
  O  O34  1  0.32940700  0.23753200  0.58631300  1
  O  O35  1  0.67059300  0.76246800  0.41368700  1
  O  O36  1  0.11110500  0.86659900  0.54757800  1
  O  O37  1  0.88889500  0.13340100  0.45242200  1
