# generated using pymatgen
data_Nb2CoO6
_symmetry_space_group_name_H-M   'P 1'
_cell_length_a   9.16404825
_cell_length_b   6.85490864
_cell_length_c   7.44790958
_cell_angle_alpha   90.00000000
_cell_angle_beta   112.65820259
_cell_angle_gamma   90.00000000
_symmetry_Int_Tables_number   1
_chemical_formula_structural   Nb2CoO6
_chemical_formula_sum   'Nb8 Co4 O24'
_cell_volume   431.75774038
_cell_formula_units_Z   4
loop_
 _symmetry_equiv_pos_site_id
 _symmetry_equiv_pos_as_xyz
  1  'x, y, z'
loop_
 _atom_site_type_symbol
 _atom_site_label
 _atom_site_symmetry_multiplicity
 _atom_site_fract_x
 _atom_site_fract_y
 _atom_site_fract_z
 _atom_site_occupancy
  Nb  Nb0  1  0.50000000  0.50000000  0.00000000  1
  Nb  Nb1  1  0.50000000  0.50000000  0.50000000  1
  Nb  Nb2  1  0.83437225  0.50000000  0.31436350  1
  Nb  Nb3  1  0.16562775  0.50000000  0.68563650  1
  Nb  Nb4  1  0.00000000  0.00000000  0.00000000  1
  Nb  Nb5  1  0.00000000  0.00000000  0.50000000  1
  Nb  Nb6  1  0.33437225  0.00000000  0.31436350  1
  Nb  Nb7  1  0.66562775  0.00000000  0.68563650  1
  Co  Co8  1  0.16571025  0.50000000  0.16897300  1
  Co  Co9  1  0.83428975  0.50000000  0.83102700  1
  Co  Co10  1  0.66571025  0.00000000  0.16897300  1
  Co  Co11  1  0.33428975  0.00000000  0.83102700  1
  O  O12  1  0.06762625  0.50000000  0.86364250  1
  O  O13  1  0.93237375  0.50000000  0.13635750  1
  O  O14  1  0.72219800  0.50000000  0.52189700  1
  O  O15  1  0.27780200  0.50000000  0.47810300  1
  O  O16  1  0.40888925  0.50000000  0.20781450  1
  O  O17  1  0.59111075  0.50000000  0.79218550  1
  O  O18  1  0.50000000  0.19454250  0.50000000  1
  O  O19  1  0.50000000  0.80545750  0.50000000  1
  O  O20  1  0.16709800  0.80954275  0.16242850  1
  O  O21  1  0.16709800  0.19045725  0.16242850  1
  O  O22  1  0.33290200  0.30954275  0.83757150  1
  O  O23  1  0.33290200  0.69045725  0.83757150  1
  O  O24  1  0.56762625  0.00000000  0.86364250  1
  O  O25  1  0.43237375  0.00000000  0.13635750  1
  O  O26  1  0.22219800  0.00000000  0.52189700  1
  O  O27  1  0.77780200  0.00000000  0.47810300  1
  O  O28  1  0.90888925  0.00000000  0.20781450  1
  O  O29  1  0.09111075  0.00000000  0.79218550  1
  O  O30  1  0.00000000  0.69454250  0.50000000  1
  O  O31  1  0.00000000  0.30545750  0.50000000  1
  O  O32  1  0.66709800  0.30954275  0.16242850  1
  O  O33  1  0.66709800  0.69045725  0.16242850  1
  O  O34  1  0.83290200  0.80954275  0.83757150  1
  O  O35  1  0.83290200  0.19045725  0.83757150  1
