# generated using pymatgen
data_MnSnO3
_symmetry_space_group_name_H-M   'P 1'
_cell_length_a   5.45839107
_cell_length_b   5.45839107
_cell_length_c   14.30718871
_cell_angle_alpha   90.00000000
_cell_angle_beta   90.00000000
_cell_angle_gamma   120.00000000
_symmetry_Int_Tables_number   1
_chemical_formula_structural   MnSnO3
_chemical_formula_sum   'Mn6 Sn6 O18'
_cell_volume   369.15965633
_cell_formula_units_Z   6
loop_
 _symmetry_equiv_pos_site_id
 _symmetry_equiv_pos_as_xyz
  1  'x, y, z'
loop_
 _atom_site_type_symbol
 _atom_site_label
 _atom_site_symmetry_multiplicity
 _atom_site_fract_x
 _atom_site_fract_y
 _atom_site_fract_z
 _atom_site_occupancy
  Mn  Mn0  1  0.00000000  0.00000000  0.13596000  1
  Mn  Mn1  1  0.33333333  0.66666667  0.30262667  1
  Mn  Mn2  1  0.66666667  0.33333333  0.46929333  1
  Mn  Mn3  1  0.00000000  0.00000000  0.63596000  1
  Mn  Mn4  1  0.33333333  0.66666667  0.80262667  1
  Mn  Mn5  1  0.66666667  0.33333333  0.96929333  1
  Sn  Sn6  1  0.66666667  0.33333333  0.18567533  1
  Sn  Sn7  1  0.33333333  0.66666667  0.01900867  1
  Sn  Sn8  1  0.33333333  0.66666667  0.51900867  1
  Sn  Sn9  1  0.00000000  0.00000000  0.35234200  1
  Sn  Sn10  1  0.00000000  0.00000000  0.85234200  1
  Sn  Sn11  1  0.66666667  0.33333333  0.68567533  1
  O  O12  1  0.97497900  0.68997800  0.25389000  1
  O  O13  1  0.71499900  0.02502100  0.25389000  1
  O  O14  1  0.31002200  0.28500100  0.25389000  1
  O  O15  1  0.38166567  0.02331133  0.08722333  1
  O  O16  1  0.97668867  0.35835433  0.08722333  1
  O  O17  1  0.64164567  0.61833433  0.08722333  1
  O  O18  1  0.64164567  0.02331133  0.58722333  1
  O  O19  1  0.38166567  0.35835433  0.58722333  1
  O  O20  1  0.97668867  0.61833433  0.58722333  1
  O  O21  1  0.04833233  0.35664467  0.42055667  1
  O  O22  1  0.64335533  0.69168767  0.42055667  1
  O  O23  1  0.30831233  0.95166767  0.42055667  1
  O  O24  1  0.30831233  0.35664467  0.92055667  1
  O  O25  1  0.04833233  0.69168767  0.92055667  1
  O  O26  1  0.64335533  0.95166767  0.92055667  1
  O  O27  1  0.71499900  0.68997800  0.75389000  1
  O  O28  1  0.31002200  0.02502100  0.75389000  1
  O  O29  1  0.97497900  0.28500100  0.75389000  1
