# generated using pymatgen
data_NbO2F
_symmetry_space_group_name_H-M   'P 1'
_cell_length_a   5.78546600
_cell_length_b   7.73633600
_cell_length_c   17.03956200
_cell_angle_alpha   90.00000000
_cell_angle_beta   90.00000000
_cell_angle_gamma   90.00000000
_symmetry_Int_Tables_number   1
_chemical_formula_structural   NbO2F
_chemical_formula_sum   'Nb12 O24 F12'
_cell_volume   762.66197939
_cell_formula_units_Z   12
loop_
 _symmetry_equiv_pos_site_id
 _symmetry_equiv_pos_as_xyz
  1  'x, y, z'
loop_
 _atom_site_type_symbol
 _atom_site_label
 _atom_site_symmetry_multiplicity
 _atom_site_fract_x
 _atom_site_fract_y
 _atom_site_fract_z
 _atom_site_occupancy
  Nb  Nb0  1  0.76933400  0.50000000  0.41698500  1
  Nb  Nb1  1  0.73066600  0.00000000  0.41698500  1
  Nb  Nb2  1  0.76933400  0.50000000  0.08301500  1
  Nb  Nb3  1  0.73066600  0.00000000  0.08301500  1
  Nb  Nb4  1  0.18318400  0.00000000  0.25000000  1
  Nb  Nb5  1  0.31681600  0.50000000  0.25000000  1
  Nb  Nb6  1  0.26933400  0.00000000  0.91698500  1
  Nb  Nb7  1  0.23066600  0.50000000  0.91698500  1
  Nb  Nb8  1  0.26933400  0.00000000  0.58301500  1
  Nb  Nb9  1  0.23066600  0.50000000  0.58301500  1
  Nb  Nb10  1  0.68318400  0.50000000  0.75000000  1
  Nb  Nb11  1  0.81681600  0.00000000  0.75000000  1
  O  O12  1  0.75000000  0.75000000  0.41872800  1
  O  O13  1  0.00000000  0.50000000  0.00000000  1
  O  O14  1  0.75000000  0.25000000  0.41872800  1
  O  O15  1  0.75000000  0.75000000  0.08127200  1
  O  O16  1  0.50000000  0.00000000  0.00000000  1
  O  O17  1  0.98112100  0.00000000  0.16492100  1
  O  O18  1  0.75000000  0.25000000  0.08127200  1
  O  O19  1  0.25000000  0.25000000  0.25000000  1
  O  O20  1  0.51887900  0.50000000  0.16492100  1
  O  O21  1  0.51887900  0.50000000  0.33507900  1
  O  O22  1  0.25000000  0.75000000  0.25000000  1
  O  O23  1  0.98112100  0.00000000  0.33507900  1
  O  O24  1  0.25000000  0.25000000  0.91872800  1
  O  O25  1  0.50000000  0.00000000  0.50000000  1
  O  O26  1  0.25000000  0.75000000  0.91872800  1
  O  O27  1  0.25000000  0.25000000  0.58127200  1
  O  O28  1  0.00000000  0.50000000  0.50000000  1
  O  O29  1  0.48112100  0.50000000  0.66492100  1
  O  O30  1  0.25000000  0.75000000  0.58127200  1
  O  O31  1  0.75000000  0.75000000  0.75000000  1
  O  O32  1  0.01887900  0.00000000  0.66492100  1
  O  O33  1  0.01887900  0.00000000  0.83507900  1
  O  O34  1  0.75000000  0.25000000  0.75000000  1
  O  O35  1  0.48112100  0.50000000  0.83507900  1
  F  F36  1  0.50000000  0.50000000  0.00000000  1
  F  F37  1  0.00000000  0.00000000  0.00000000  1
  F  F38  1  0.49502000  0.00000000  0.16792700  1
  F  F39  1  0.00498000  0.50000000  0.16792700  1
  F  F40  1  0.00498000  0.50000000  0.33207300  1
  F  F41  1  0.49502000  0.00000000  0.33207300  1
  F  F42  1  0.00000000  0.00000000  0.50000000  1
  F  F43  1  0.50000000  0.50000000  0.50000000  1
  F  F44  1  0.99502000  0.50000000  0.66792700  1
  F  F45  1  0.50498000  0.00000000  0.66792700  1
  F  F46  1  0.50498000  0.00000000  0.83207300  1
  F  F47  1  0.99502000  0.50000000  0.83207300  1
