# generated using pymatgen
data_MnSi6Pb8O21
_symmetry_space_group_name_H-M   'P 1'
_cell_length_a   10.12706999
_cell_length_b   10.12706999
_cell_length_c   39.38057431
_cell_angle_alpha   90.00000000
_cell_angle_beta   90.00000000
_cell_angle_gamma   120.00000000
_symmetry_Int_Tables_number   1
_chemical_formula_structural   MnSi6Pb8O21
_chemical_formula_sum   'Mn6 Si36 Pb48 O126'
_cell_volume   3497.68182333
_cell_formula_units_Z   6
loop_
 _symmetry_equiv_pos_site_id
 _symmetry_equiv_pos_as_xyz
  1  'x, y, z'
loop_
 _atom_site_type_symbol
 _atom_site_label
 _atom_site_symmetry_multiplicity
 _atom_site_fract_x
 _atom_site_fract_y
 _atom_site_fract_z
 _atom_site_occupancy
  Mn  Mn0  1  0.66666667  0.33333333  0.08333333  1
  Mn  Mn1  1  0.00000000  0.00000000  0.25000000  1
  Mn  Mn2  1  0.33333333  0.66666667  0.41666667  1
  Mn  Mn3  1  0.66666667  0.33333333  0.58333333  1
  Mn  Mn4  1  0.00000000  0.00000000  0.75000000  1
  Mn  Mn5  1  0.33333333  0.66666667  0.91666667  1
  Si  Si6  1  0.71956100  0.04875500  0.21283700  1
  Si  Si7  1  0.94710567  0.28457833  0.12049633  1
  Si  Si8  1  0.04875500  0.71956100  0.28716300  1
  Si  Si9  1  0.95124500  0.67080600  0.21283700  1
  Si  Si10  1  0.67080600  0.95124500  0.28716300  1
  Si  Si11  1  0.33747267  0.05289433  0.12049633  1
  Si  Si12  1  0.99586067  0.38208833  0.04617033  1
  Si  Si13  1  0.28043900  0.32919400  0.28716300  1
  Si  Si14  1  0.32919400  0.28043900  0.21283700  1
  Si  Si15  1  0.38622767  0.00413933  0.04617033  1
  Si  Si16  1  0.61791167  0.61377233  0.04617033  1
  Si  Si17  1  0.71542167  0.66252733  0.12049633  1
  Si  Si18  1  0.38622767  0.38208833  0.54617033  1
  Si  Si19  1  0.61377233  0.61791167  0.45382967  1
  Si  Si20  1  0.71542167  0.05289433  0.62049633  1
  Si  Si21  1  0.61791167  0.00413933  0.54617033  1
  Si  Si22  1  0.33747267  0.28457833  0.62049633  1
  Si  Si23  1  0.00413933  0.38622767  0.45382967  1
  Si  Si24  1  0.66252733  0.71542167  0.37950367  1
  Si  Si25  1  0.94710567  0.66252733  0.62049633  1
  Si  Si26  1  0.99586067  0.61377233  0.54617033  1
  Si  Si27  1  0.05289433  0.33747267  0.37950367  1
  Si  Si28  1  0.28457833  0.94710567  0.37950367  1
  Si  Si29  1  0.38208833  0.99586067  0.45382967  1
  Si  Si30  1  0.05289433  0.71542167  0.87950367  1
  Si  Si31  1  0.28043900  0.95124500  0.78716300  1
  Si  Si32  1  0.38208833  0.38622767  0.95382967  1
  Si  Si33  1  0.28457833  0.33747267  0.87950367  1
  Si  Si34  1  0.00413933  0.61791167  0.95382967  1
  Si  Si35  1  0.67080600  0.71956100  0.78716300  1
  Si  Si36  1  0.32919400  0.04875500  0.71283700  1
  Si  Si37  1  0.61377233  0.99586067  0.95382967  1
  Si  Si38  1  0.66252733  0.94710567  0.87950367  1
  Si  Si39  1  0.71956100  0.67080600  0.71283700  1
  Si  Si40  1  0.95124500  0.28043900  0.71283700  1
  Si  Si41  1  0.04875500  0.32919400  0.78716300  1
  Pb  Pb42  1  0.32351400  0.92188100  0.20562500  1
  Pb  Pb43  1  0.33333333  0.66666667  0.32907567  1
  Pb  Pb44  1  0.58854767  0.93170033  0.12770833  1
  Pb  Pb45  1  0.92188100  0.32351400  0.29437500  1
  Pb  Pb46  1  0.99018067  0.73496633  0.03895833  1
  Pb  Pb47  1  0.33333333  0.66666667  0.00425767  1
  Pb  Pb48  1  0.07811900  0.40163300  0.20562500  1
  Pb  Pb49  1  0.74478567  0.00981933  0.03895833  1
  Pb  Pb50  1  0.06829967  0.65684733  0.12770833  1
  Pb  Pb51  1  0.67648600  0.59836700  0.29437500  1
  Pb  Pb52  1  0.40163300  0.07811900  0.29437500  1
  Pb  Pb53  1  0.66666667  0.33333333  0.17092433  1
  Pb  Pb54  1  0.00000000  0.00000000  0.16240900  1
  Pb  Pb55  1  0.26503367  0.25521433  0.03895833  1
  Pb  Pb56  1  0.34315267  0.41145233  0.12770833  1
  Pb  Pb57  1  0.59836700  0.67648600  0.20562500  1
  Pb  Pb58  1  0.99018067  0.25521433  0.53895833  1
  Pb  Pb59  1  0.00000000  0.00000000  0.66240900  1
  Pb  Pb60  1  0.25521433  0.26503367  0.46104167  1
  Pb  Pb61  1  0.58854767  0.65684733  0.62770833  1
  Pb  Pb62  1  0.65684733  0.06829967  0.37229167  1
  Pb  Pb63  1  0.00000000  0.00000000  0.33759100  1
  Pb  Pb64  1  0.74478567  0.73496633  0.53895833  1
  Pb  Pb65  1  0.41145233  0.34315267  0.37229167  1
  Pb  Pb66  1  0.73496633  0.99018067  0.46104167  1
  Pb  Pb67  1  0.34315267  0.93170033  0.62770833  1
  Pb  Pb68  1  0.06829967  0.41145233  0.62770833  1
  Pb  Pb69  1  0.33333333  0.66666667  0.50425767  1
  Pb  Pb70  1  0.66666667  0.33333333  0.49574233  1
  Pb  Pb71  1  0.93170033  0.58854767  0.37229167  1
  Pb  Pb72  1  0.00981933  0.74478567  0.46104167  1
  Pb  Pb73  1  0.26503367  0.00981933  0.53895833  1
  Pb  Pb74  1  0.65684733  0.58854767  0.87229167  1
  Pb  Pb75  1  0.66666667  0.33333333  0.99574233  1
  Pb  Pb76  1  0.92188100  0.59836700  0.79437500  1
  Pb  Pb77  1  0.25521433  0.99018067  0.96104167  1
  Pb  Pb78  1  0.32351400  0.40163300  0.70562500  1
  Pb  Pb79  1  0.66666667  0.33333333  0.67092433  1
  Pb  Pb80  1  0.41145233  0.06829967  0.87229167  1
  Pb  Pb81  1  0.07811900  0.67648600  0.70562500  1
  Pb  Pb82  1  0.40163300  0.32351400  0.79437500  1
  Pb  Pb83  1  0.00981933  0.26503367  0.96104167  1
  Pb  Pb84  1  0.73496633  0.74478567  0.96104167  1
  Pb  Pb85  1  0.00000000  0.00000000  0.83759100  1
  Pb  Pb86  1  0.33333333  0.66666667  0.82907567  1
  Pb  Pb87  1  0.59836700  0.92188100  0.70562500  1
  Pb  Pb88  1  0.67648600  0.07811900  0.79437500  1
  Pb  Pb89  1  0.93170033  0.34315267  0.87229167  1
  O  O90  1  0.00000000  0.62452600  0.25000000  1
  O  O91  1  0.23383167  0.82470233  0.29016033  1
  O  O92  1  0.37547400  0.37547400  0.25000000  1
  O  O93  1  0.04015700  0.85883700  0.21121500  1
  O  O94  1  0.43283500  0.50863100  0.04317300  1
  O  O95  1  0.26601833  0.91625567  0.14878267  1
  O  O96  1  0.58292233  0.98357067  0.18455067  1
  O  O97  1  0.84196433  0.09950167  0.12349367  1
  O  O98  1  0.76616833  0.59087067  0.20983967  1
  O  O99  1  0.14116300  0.18132000  0.21121500  1
  O  O100  1  0.62452600  0.00000000  0.25000000  1
  O  O101  1  0.68309600  0.75041100  0.01788400  1
  O  O102  1  0.85883700  0.04015700  0.28878500  1
  O  O103  1  0.62650967  0.47449633  0.12211833  1
  O  O104  1  0.29119267  0.95785933  0.08333333  1
  O  O105  1  0.90049833  0.74246267  0.12349367  1
  O  O106  1  0.59935167  0.01642933  0.31544933  1
  O  O107  1  0.08374433  0.34976267  0.14878267  1
  O  O108  1  0.66666667  0.70880733  0.08333333  1
  O  O109  1  0.70682367  0.51465333  0.04454833  1
  O  O110  1  0.52550367  0.15201333  0.12211833  1
  O  O111  1  0.40064833  0.41707767  0.18455067  1
  O  O112  1  0.81868000  0.95984300  0.21121500  1
  O  O113  1  0.18132000  0.14116300  0.28878500  1
  O  O114  1  0.65023733  0.73398167  0.14878267  1
  O  O115  1  0.41707767  0.40064833  0.31544933  1
  O  O116  1  0.40912933  0.17529767  0.20983967  1
  O  O117  1  0.82470233  0.23383167  0.20983967  1
  O  O118  1  0.01642933  0.59935167  0.18455067  1
  O  O119  1  0.49136900  0.92420400  0.04317300  1
  O  O120  1  0.98357067  0.58292233  0.31544933  1
  O  O121  1  0.84798667  0.37349033  0.12211833  1
  O  O122  1  0.17529767  0.40912933  0.29016033  1
  O  O123  1  0.95984300  0.81868000  0.28878500  1
  O  O124  1  0.07579600  0.56716500  0.04317300  1
  O  O125  1  0.06731500  0.31690400  0.01788400  1
  O  O126  1  0.80782967  0.29317633  0.04454833  1
  O  O127  1  0.04214067  0.33333333  0.08333333  1
  O  O128  1  0.59087067  0.76616833  0.29016033  1
  O  O129  1  0.25753733  0.15803567  0.12349367  1
  O  O130  1  0.48534667  0.19217033  0.04454833  1
  O  O131  1  0.24958900  0.93268500  0.01788400  1
  O  O132  1  0.66666667  0.95785933  0.58333333  1
  O  O133  1  0.90049833  0.15803567  0.62349367  1
  O  O134  1  0.04214067  0.70880733  0.58333333  1
  O  O135  1  0.70682367  0.19217033  0.54454833  1
  O  O136  1  0.09950167  0.84196433  0.37650633  1
  O  O137  1  0.93268500  0.24958900  0.48211600  1
  O  O138  1  0.24958900  0.31690400  0.51788400  1
  O  O139  1  0.50863100  0.43283500  0.45682700  1
  O  O140  1  0.43283500  0.92420400  0.54317300  1
  O  O141  1  0.80782967  0.51465333  0.54454833  1
  O  O142  1  0.29119267  0.33333333  0.58333333  1
  O  O143  1  0.34976267  0.08374433  0.35121733  1
  O  O144  1  0.52550367  0.37349033  0.62211833  1
  O  O145  1  0.29317633  0.80782967  0.45545167  1
  O  O146  1  0.95785933  0.29119267  0.41666667  1
  O  O147  1  0.56716500  0.07579600  0.45682700  1
  O  O148  1  0.26601833  0.34976267  0.64878267  1
  O  O149  1  0.75041100  0.68309600  0.48211600  1
  O  O150  1  0.33333333  0.04214067  0.41666667  1
  O  O151  1  0.37349033  0.84798667  0.37788167  1
  O  O152  1  0.19217033  0.48534667  0.45545167  1
  O  O153  1  0.06731500  0.75041100  0.51788400  1
  O  O154  1  0.48534667  0.29317633  0.54454833  1
  O  O155  1  0.84798667  0.47449633  0.62211833  1
  O  O156  1  0.31690400  0.06731500  0.48211600  1
  O  O157  1  0.08374433  0.73398167  0.64878267  1
  O  O158  1  0.07579600  0.50863100  0.54317300  1
  O  O159  1  0.49136900  0.56716500  0.54317300  1
  O  O160  1  0.68309600  0.93268500  0.51788400  1
  O  O161  1  0.15803567  0.25753733  0.37650633  1
  O  O162  1  0.65023733  0.91625567  0.64878267  1
  O  O163  1  0.51465333  0.70682367  0.45545167  1
  O  O164  1  0.84196433  0.74246267  0.62349367  1
  O  O165  1  0.62650967  0.15201333  0.62211833  1
  O  O166  1  0.74246267  0.90049833  0.37650633  1
  O  O167  1  0.73398167  0.65023733  0.35121733  1
  O  O168  1  0.47449633  0.62650967  0.37788167  1
  O  O169  1  0.70880733  0.66666667  0.41666667  1
  O  O170  1  0.25753733  0.09950167  0.62349367  1
  O  O171  1  0.92420400  0.49136900  0.45682700  1
  O  O172  1  0.15201333  0.52550367  0.37788167  1
  O  O173  1  0.91625567  0.26601833  0.35121733  1
  O  O174  1  0.33333333  0.29119267  0.91666667  1
  O  O175  1  0.56716500  0.49136900  0.95682700  1
  O  O176  1  0.70880733  0.04214067  0.91666667  1
  O  O177  1  0.37349033  0.52550367  0.87788167  1
  O  O178  1  0.76616833  0.17529767  0.70983967  1
  O  O179  1  0.59935167  0.58292233  0.81544933  1
  O  O180  1  0.91625567  0.65023733  0.85121733  1
  O  O181  1  0.17529767  0.76616833  0.79016033  1
  O  O182  1  0.09950167  0.25753733  0.87650633  1
  O  O183  1  0.47449633  0.84798667  0.87788167  1
  O  O184  1  0.95785933  0.66666667  0.91666667  1
  O  O185  1  0.01642933  0.41707767  0.68455067  1
  O  O186  1  0.19217033  0.70682367  0.95545167  1
  O  O187  1  0.95984300  0.14116300  0.78878500  1
  O  O188  1  0.62452600  0.62452600  0.75000000  1
  O  O189  1  0.23383167  0.40912933  0.79016033  1
  O  O190  1  0.93268500  0.68309600  0.98211600  1
  O  O191  1  0.41707767  0.01642933  0.81544933  1
  O  O192  1  0.00000000  0.37547400  0.75000000  1
  O  O193  1  0.04015700  0.18132000  0.71121500  1
  O  O194  1  0.85883700  0.81868000  0.78878500  1
  O  O195  1  0.73398167  0.08374433  0.85121733  1
  O  O196  1  0.15201333  0.62650967  0.87788167  1
  O  O197  1  0.51465333  0.80782967  0.95545167  1
  O  O198  1  0.98357067  0.40064833  0.81544933  1
  O  O199  1  0.75041100  0.06731500  0.98211600  1
  O  O200  1  0.74246267  0.84196433  0.87650633  1
  O  O201  1  0.15803567  0.90049833  0.87650633  1
  O  O202  1  0.34976267  0.26601833  0.85121733  1
  O  O203  1  0.82470233  0.59087067  0.70983967  1
  O  O204  1  0.31690400  0.24958900  0.98211600  1
  O  O205  1  0.18132000  0.04015700  0.78878500  1
  O  O206  1  0.50863100  0.07579600  0.95682700  1
  O  O207  1  0.29317633  0.48534667  0.95545167  1
  O  O208  1  0.40912933  0.23383167  0.70983967  1
  O  O209  1  0.40064833  0.98357067  0.68455067  1
  O  O210  1  0.14116300  0.95984300  0.71121500  1
  O  O211  1  0.37547400  0.00000000  0.75000000  1
  O  O212  1  0.92420400  0.43283500  0.95682700  1
  O  O213  1  0.59087067  0.82470233  0.79016033  1
  O  O214  1  0.81868000  0.85883700  0.71121500  1
  O  O215  1  0.58292233  0.59935167  0.68455067  1
