# generated using pymatgen
data_Cs3Bi7Se12
_symmetry_space_group_name_H-M   'P 1'
_cell_length_a   27.78487400
_cell_length_b   4.28419600
_cell_length_c   13.41749668
_cell_angle_alpha   90.00000000
_cell_angle_beta   107.11200033
_cell_angle_gamma   90.00000000
_symmetry_Int_Tables_number   1
_chemical_formula_structural   Cs3Bi7Se12
_chemical_formula_sum   'Cs6 Bi14 Se24'
_cell_volume   1526.45890966
_cell_formula_units_Z   2
loop_
 _symmetry_equiv_pos_site_id
 _symmetry_equiv_pos_as_xyz
  1  'x, y, z'
loop_
 _atom_site_type_symbol
 _atom_site_label
 _atom_site_symmetry_multiplicity
 _atom_site_fract_x
 _atom_site_fract_y
 _atom_site_fract_z
 _atom_site_occupancy
  Cs  Cs0  1  0.13786000  0.50000000  0.87937000  1
  Cs  Cs1  1  0.36545400  0.00000000  0.13217200  1
  Cs  Cs2  1  0.02687900  0.00000000  0.57289900  1
  Cs  Cs3  1  0.63786000  0.00000000  0.87937000  1
  Cs  Cs4  1  0.86545400  0.50000000  0.13217200  1
  Cs  Cs5  1  0.52687900  0.50000000  0.57289900  1
  Bi  Bi6  1  0.31918500  0.00000000  0.47910500  1
  Bi  Bi7  1  0.22278700  0.50000000  0.21512200  1
  Bi  Bi8  1  0.08643200  0.00000000  0.25893900  1
  Bi  Bi9  1  0.27820900  0.00000000  0.78666800  1
  Bi  Bi10  1  0.41192700  0.50000000  0.74184900  1
  Bi  Bi11  1  0.18068600  0.50000000  0.52095200  1
  Bi  Bi12  1  0.00025300  0.50000000  0.00137000  1
  Bi  Bi13  1  0.81918500  0.50000000  0.47910500  1
  Bi  Bi14  1  0.72278700  0.00000000  0.21512200  1
  Bi  Bi15  1  0.58643200  0.50000000  0.25893900  1
  Bi  Bi16  1  0.77820900  0.50000000  0.78666800  1
  Bi  Bi17  1  0.91192700  0.00000000  0.74184900  1
  Bi  Bi18  1  0.68068600  0.00000000  0.52095200  1
  Bi  Bi19  1  0.50025300  0.00000000  0.00137000  1
  Se  Se20  1  0.07658600  0.50000000  0.40866600  1
  Se  Se21  1  0.29860700  0.50000000  0.62099000  1
  Se  Se22  1  0.22998200  0.00000000  0.08317300  1
  Se  Se23  1  0.27031600  0.50000000  0.91732000  1
  Se  Se24  1  0.32778200  0.50000000  0.33308500  1
  Se  Se25  1  0.17004400  0.00000000  0.66652400  1
  Se  Se26  1  0.10609100  0.50000000  0.12444400  1
  Se  Se27  1  0.48244900  0.50000000  0.14201800  1
  Se  Se28  1  0.39205300  0.00000000  0.87609100  1
  Se  Se29  1  0.01809100  0.00000000  0.85789500  1
  Se  Se30  1  0.42357700  0.00000000  0.59281900  1
  Se  Se31  1  0.20140200  0.00000000  0.37953100  1
  Se  Se32  1  0.57658600  0.00000000  0.40866600  1
  Se  Se33  1  0.79860700  0.00000000  0.62099000  1
  Se  Se34  1  0.72998200  0.50000000  0.08317300  1
  Se  Se35  1  0.77031600  0.00000000  0.91732000  1
  Se  Se36  1  0.82778200  0.00000000  0.33308500  1
  Se  Se37  1  0.67004400  0.50000000  0.66652400  1
  Se  Se38  1  0.60609100  0.00000000  0.12444400  1
  Se  Se39  1  0.98244900  0.00000000  0.14201800  1
  Se  Se40  1  0.89205300  0.50000000  0.87609100  1
  Se  Se41  1  0.51809100  0.50000000  0.85789500  1
  Se  Se42  1  0.92357700  0.50000000  0.59281900  1
  Se  Se43  1  0.70140200  0.50000000  0.37953100  1
