# generated using pymatgen
data_Pb2OF2
_symmetry_space_group_name_H-M   'P 1'
_cell_length_a   6.12996100
_cell_length_b   8.16721700
_cell_length_c   8.27352500
_cell_angle_alpha   90.00000000
_cell_angle_beta   90.00000000
_cell_angle_gamma   90.00000000
_symmetry_Int_Tables_number   1
_chemical_formula_structural   Pb2OF2
_chemical_formula_sum   'Pb8 O4 F8'
_cell_volume   414.21172651
_cell_formula_units_Z   4
loop_
 _symmetry_equiv_pos_site_id
 _symmetry_equiv_pos_as_xyz
  1  'x, y, z'
loop_
 _atom_site_type_symbol
 _atom_site_label
 _atom_site_symmetry_multiplicity
 _atom_site_fract_x
 _atom_site_fract_y
 _atom_site_fract_z
 _atom_site_occupancy
  Pb  Pb0  1  0.21436600  0.74006200  0.00000000  1
  Pb  Pb1  1  0.69305700  0.50000000  0.25023100  1
  Pb  Pb2  1  0.69305700  0.50000000  0.74976900  1
  Pb  Pb3  1  0.21436600  0.25993800  0.00000000  1
  Pb  Pb4  1  0.28269600  0.24101300  0.50000000  1
  Pb  Pb5  1  0.28269600  0.75898700  0.50000000  1
  Pb  Pb6  1  0.74920600  0.00000000  0.24857700  1
  Pb  Pb7  1  0.74920600  0.00000000  0.75142300  1
  O  O8  1  0.57171600  0.50000000  0.00000000  1
  O  O9  1  0.16706500  0.00000000  0.00000000  1
  O  O10  1  0.62869200  0.00000000  0.50000000  1
  O  O11  1  0.41235400  0.50000000  0.50000000  1
  F  F12  1  0.47636000  0.22924200  0.77057600  1
  F  F13  1  0.47636000  0.77075800  0.22942400  1
  F  F14  1  0.47636000  0.77075800  0.77057600  1
  F  F15  1  0.98399000  0.25604300  0.71504700  1
  F  F16  1  0.98399000  0.25604300  0.28495300  1
  F  F17  1  0.98399000  0.74395700  0.28495300  1
  F  F18  1  0.98399000  0.74395700  0.71504700  1
  F  F19  1  0.47636000  0.22924200  0.22942400  1
