# generated using pymatgen
data_Ba2CeC3O9F
_symmetry_space_group_name_H-M   'P 1'
_cell_length_a   6.69905000
_cell_length_b   5.16264200
_cell_length_c   13.29881696
_cell_angle_alpha   90.00000000
_cell_angle_beta   102.69745869
_cell_angle_gamma   90.00000000
_symmetry_Int_Tables_number   1
_chemical_formula_structural   Ba2CeC3O9F
_chemical_formula_sum   'Ba4 Ce2 C6 O18 F2'
_cell_volume   448.68880216
_cell_formula_units_Z   2
loop_
 _symmetry_equiv_pos_site_id
 _symmetry_equiv_pos_as_xyz
  1  'x, y, z'
loop_
 _atom_site_type_symbol
 _atom_site_label
 _atom_site_symmetry_multiplicity
 _atom_site_fract_x
 _atom_site_fract_y
 _atom_site_fract_z
 _atom_site_occupancy
  Ba  Ba0  1  0.27339800  0.25000000  0.58347500  1
  Ba  Ba1  1  0.21459000  0.25000000  0.92499400  1
  Ba  Ba2  1  0.72660200  0.75000000  0.41652500  1
  Ba  Ba3  1  0.78541000  0.75000000  0.07500600  1
  Ce  Ce4  1  0.77175800  0.75000000  0.76079400  1
  Ce  Ce5  1  0.22824200  0.25000000  0.23920600  1
  C  C6  1  0.66813800  0.25000000  0.87117800  1
  C  C7  1  0.78543100  0.25000000  0.27296000  1
  C  C8  1  0.21456900  0.75000000  0.72704000  1
  C  C9  1  0.74648500  0.25000000  0.57388200  1
  C  C10  1  0.25351500  0.75000000  0.42611800  1
  C  C11  1  0.33186200  0.75000000  0.12882200  1
  O  O12  1  0.67992500  0.46839000  0.60358600  1
  O  O13  1  0.87901100  0.46594900  0.26282000  1
  O  O14  1  0.86436100  0.25000000  0.50937500  1
  O  O15  1  0.32007500  0.96839000  0.39641400  1
  O  O16  1  0.40122300  0.53055200  0.10444900  1
  O  O17  1  0.87901100  0.03405100  0.26282000  1
  O  O18  1  0.59877700  0.46944800  0.89555100  1
  O  O19  1  0.80757700  0.25000000  0.81596000  1
  O  O20  1  0.32007500  0.53161000  0.39641400  1
  O  O21  1  0.12098900  0.53405100  0.73718000  1
  O  O22  1  0.60890100  0.25000000  0.29741700  1
  O  O23  1  0.59877700  0.03055200  0.89555100  1
  O  O24  1  0.13563900  0.75000000  0.49062500  1
  O  O25  1  0.19242300  0.75000000  0.18404000  1
  O  O26  1  0.12098900  0.96594900  0.73718000  1
  O  O27  1  0.40122300  0.96944800  0.10444900  1
  O  O28  1  0.67992500  0.03161000  0.60358600  1
  O  O29  1  0.39109900  0.75000000  0.70258300  1
  F  F30  1  0.01423500  0.75000000  0.92564800  1
  F  F31  1  0.98576500  0.25000000  0.07435200  1
