# generated using pymatgen
data_Na3P2H4O7
_symmetry_space_group_name_H-M   'P 1'
_cell_length_a   6.07224300
_cell_length_b   6.25316705
_cell_length_c   11.51080515
_cell_angle_alpha   99.35016498
_cell_angle_beta   95.49294530
_cell_angle_gamma   117.59808205
_symmetry_Int_Tables_number   1
_chemical_formula_structural   Na3P2H4O7
_chemical_formula_sum   'Na6 P4 H8 O14'
_cell_volume   374.81888695
_cell_formula_units_Z   2
loop_
 _symmetry_equiv_pos_site_id
 _symmetry_equiv_pos_as_xyz
  1  'x, y, z'
loop_
 _atom_site_type_symbol
 _atom_site_label
 _atom_site_symmetry_multiplicity
 _atom_site_fract_x
 _atom_site_fract_y
 _atom_site_fract_z
 _atom_site_occupancy
  Na  Na0  1  0.92609900  0.82745300  0.12017600  1
  Na  Na1  1  0.07390100  0.17254700  0.87982400  1
  Na  Na2  1  0.72672000  0.69646700  0.41286700  1
  Na  Na3  1  0.27328000  0.30353300  0.58713300  1
  Na  Na4  1  0.32881000  0.49280400  0.14423700  1
  Na  Na5  1  0.67119000  0.50719600  0.85576300  1
  P  P6  1  0.65576000  0.16581400  0.07142800  1
  P  P7  1  0.34424000  0.83418600  0.92857200  1
  P  P8  1  0.59555400  0.07651300  0.24969000  1
  P  P9  1  0.40444600  0.92348700  0.75031000  1
  H  H10  1  0.21606800  0.80656500  0.51255200  1
  H  H11  1  0.78393200  0.19343500  0.48744800  1
  H  H12  1  0.23993200  0.90008100  0.38861500  1
  H  H13  1  0.76006800  0.09991900  0.61138500  1
  H  H14  1  0.26692000  0.24318900  0.32986200  1
  H  H15  1  0.73308000  0.75681100  0.67013800  1
  H  H16  1  0.10104800  0.37630900  0.35775500  1
  H  H17  1  0.89895200  0.62369100  0.64224500  1
  O  O18  1  0.62797900  0.39323100  0.05933100  1
  O  O19  1  0.37202100  0.60676900  0.94066900  1
  O  O20  1  0.66779600  0.87084900  0.24849400  1
  O  O21  1  0.33220400  0.12915100  0.75150600  1
  O  O22  1  0.91339000  0.18418500  0.05717600  1
  O  O23  1  0.08661000  0.81581500  0.94282400  1
  O  O24  1  0.31082600  0.98239800  0.25106200  1
  O  O25  1  0.68917400  0.01760200  0.74893800  1
  O  O26  1  0.77118800  0.31784500  0.34531300  1
  O  O27  1  0.22881200  0.68215500  0.65468700  1
  O  O28  1  0.17384800  0.90310000  0.46410100  1
  O  O29  1  0.82615200  0.09690000  0.53589900  1
  O  O30  1  0.27777800  0.40452200  0.36395600  1
  O  O31  1  0.72222200  0.59547800  0.63604400  1
