# generated using pymatgen
data_Ta2Mn4O9
_symmetry_space_group_name_H-M   'P 1'
_cell_length_a   10.05153800
_cell_length_b   5.39893000
_cell_length_c   13.41835310
_cell_angle_alpha   90.00000000
_cell_angle_beta   92.60525066
_cell_angle_gamma   90.00000000
_symmetry_Int_Tables_number   1
_chemical_formula_structural   Ta2Mn4O9
_chemical_formula_sum   'Ta8 Mn16 O36'
_cell_volume   727.42850642
_cell_formula_units_Z   4
loop_
 _symmetry_equiv_pos_site_id
 _symmetry_equiv_pos_as_xyz
  1  'x, y, z'
loop_
 _atom_site_type_symbol
 _atom_site_label
 _atom_site_symmetry_multiplicity
 _atom_site_fract_x
 _atom_site_fract_y
 _atom_site_fract_z
 _atom_site_occupancy
  Ta  Ta0  1  0.50578300  0.49089700  0.00416800  1
  Ta  Ta1  1  0.67012750  0.99411750  0.82921100  1
  Ta  Ta2  1  0.67012750  0.00588250  0.32921100  1
  Ta  Ta3  1  0.50578300  0.50910300  0.50416800  1
  Ta  Ta4  1  0.00578300  0.99089700  0.00416800  1
  Ta  Ta5  1  0.17012750  0.49411750  0.82921100  1
  Ta  Ta6  1  0.17012750  0.50588250  0.32921100  1
  Ta  Ta7  1  0.00578300  0.00910300  0.50416800  1
  Mn  Mn8  1  0.84494550  0.49933850  0.66340500  1
  Mn  Mn9  1  0.87938000  0.49410500  0.90232200  1
  Mn  Mn10  1  0.71973800  0.00702000  0.57175800  1
  Mn  Mn11  1  0.54984050  0.49934450  0.73814300  1
  Mn  Mn12  1  0.54984050  0.50065550  0.23814300  1
  Mn  Mn13  1  0.84494550  0.50066150  0.16340500  1
  Mn  Mn14  1  0.87938000  0.50589500  0.40232200  1
  Mn  Mn15  1  0.71973800  0.99298000  0.07175800  1
  Mn  Mn16  1  0.34494550  0.99933850  0.66340500  1
  Mn  Mn17  1  0.37938000  0.99410500  0.90232200  1
  Mn  Mn18  1  0.21973800  0.50702000  0.57175800  1
  Mn  Mn19  1  0.04984050  0.99934450  0.73814300  1
  Mn  Mn20  1  0.04984050  0.00065550  0.23814300  1
  Mn  Mn21  1  0.34494550  0.00066150  0.16340500  1
  Mn  Mn22  1  0.37938000  0.00589500  0.40232200  1
  Mn  Mn23  1  0.21973800  0.49298000  0.07175800  1
  O  O24  1  0.99629300  0.37462300  0.76942300  1
  O  O25  1  0.58659700  0.81510000  0.96027400  1
  O  O26  1  0.55325000  0.30595400  0.87931700  1
  O  O27  1  0.75482300  0.69133500  0.79659300  1
  O  O28  1  0.70830500  0.18780900  0.71420700  1
  O  O29  1  0.81788050  0.88122050  0.42172000  1
  O  O30  1  0.81788050  0.11877950  0.92172000  1
  O  O31  1  0.92654600  0.84402200  0.61976100  1
  O  O32  1  0.88110100  0.28593300  0.53265600  1
  O  O33  1  0.58659700  0.18490000  0.46027400  1
  O  O34  1  0.55325000  0.69404600  0.37931700  1
  O  O35  1  0.65019100  0.36783500  0.08584200  1
  O  O36  1  0.65019100  0.63216500  0.58584200  1
  O  O37  1  0.75482300  0.30866500  0.29659300  1
  O  O38  1  0.70830500  0.81219100  0.21420700  1
  O  O39  1  0.92654600  0.15597800  0.11976100  1
  O  O40  1  0.88110100  0.71406700  0.03265600  1
  O  O41  1  0.99629300  0.62537700  0.26942300  1
  O  O42  1  0.49629300  0.87462300  0.76942300  1
  O  O43  1  0.08659700  0.31510000  0.96027400  1
  O  O44  1  0.05325000  0.80595400  0.87931700  1
  O  O45  1  0.25482300  0.19133500  0.79659300  1
  O  O46  1  0.20830500  0.68780900  0.71420700  1
  O  O47  1  0.31788050  0.38122050  0.42172000  1
  O  O48  1  0.31788050  0.61877950  0.92172000  1
  O  O49  1  0.42654600  0.34402200  0.61976100  1
  O  O50  1  0.38110100  0.78593300  0.53265600  1
  O  O51  1  0.08659700  0.68490000  0.46027400  1
  O  O52  1  0.05325000  0.19404600  0.37931700  1
  O  O53  1  0.15019100  0.86783500  0.08584200  1
  O  O54  1  0.15019100  0.13216500  0.58584200  1
  O  O55  1  0.25482300  0.80866500  0.29659300  1
  O  O56  1  0.20830500  0.31219100  0.21420700  1
  O  O57  1  0.42654600  0.65597800  0.11976100  1
  O  O58  1  0.38110100  0.21406700  0.03265600  1
  O  O59  1  0.49629300  0.12537700  0.26942300  1
