# generated using pymatgen
data_AlH12(NO5)3
_symmetry_space_group_name_H-M   'P 1'
_cell_length_a   13.87365800
_cell_length_b   13.87365800
_cell_length_c   13.87365800
_cell_angle_alpha   90.00000000
_cell_angle_beta   90.00000000
_cell_angle_gamma   90.00000000
_symmetry_Int_Tables_number   1
_chemical_formula_structural   AlH12(NO5)3
_chemical_formula_sum   'Al8 H96 N24 O120'
_cell_volume   2670.37930393
_cell_formula_units_Z   8
loop_
 _symmetry_equiv_pos_site_id
 _symmetry_equiv_pos_as_xyz
  1  'x, y, z'
loop_
 _atom_site_type_symbol
 _atom_site_label
 _atom_site_symmetry_multiplicity
 _atom_site_fract_x
 _atom_site_fract_y
 _atom_site_fract_z
 _atom_site_occupancy
  Al  Al0  1  0.25000000  0.75000000  0.25000000  1
  Al  Al1  1  0.75000000  0.25000000  0.25000000  1
  Al  Al2  1  0.25000000  0.25000000  0.75000000  1
  Al  Al3  1  0.25000000  0.25000000  0.25000000  1
  Al  Al4  1  0.75000000  0.25000000  0.75000000  1
  Al  Al5  1  0.25000000  0.75000000  0.75000000  1
  Al  Al6  1  0.75000000  0.75000000  0.25000000  1
  Al  Al7  1  0.75000000  0.75000000  0.75000000  1
  H  H8  1  0.28755950  0.58506850  0.33406550  1
  H  H9  1  0.71244050  0.08506850  0.16593450  1
  H  H10  1  0.21244050  0.41493150  0.83406550  1
  H  H11  1  0.28755950  0.41493150  0.16593450  1
  H  H12  1  0.33406550  0.28755950  0.58506850  1
  H  H13  1  0.16593450  0.71244050  0.08506850  1
  H  H14  1  0.83406550  0.21244050  0.41493150  1
  H  H15  1  0.16593450  0.28755950  0.41493150  1
  H  H16  1  0.58506850  0.33406550  0.28755950  1
  H  H17  1  0.08506850  0.16593450  0.71244050  1
  H  H18  1  0.41493150  0.83406550  0.21244050  1
  H  H19  1  0.41493150  0.16593450  0.28755950  1
  H  H20  1  0.21244050  0.91493150  0.16593450  1
  H  H21  1  0.78755950  0.41493150  0.33406550  1
  H  H22  1  0.28755950  0.08506850  0.66593450  1
  H  H23  1  0.21244050  0.08506850  0.33406550  1
  H  H24  1  0.16593450  0.21244050  0.91493150  1
  H  H25  1  0.33406550  0.78755950  0.41493150  1
  H  H26  1  0.66593450  0.28755950  0.08506850  1
  H  H27  1  0.33406550  0.21244050  0.08506850  1
  H  H28  1  0.91493150  0.16593450  0.21244050  1
  H  H29  1  0.41493150  0.33406550  0.78755950  1
  H  H30  1  0.08506850  0.66593450  0.28755950  1
  H  H31  1  0.08506850  0.33406550  0.21244050  1
  H  H32  1  0.37936050  0.61478450  0.26828050  1
  H  H33  1  0.62063950  0.11478450  0.23171950  1
  H  H34  1  0.62063950  0.88521550  0.26828050  1
  H  H35  1  0.37936050  0.38521550  0.23171950  1
  H  H36  1  0.26828050  0.37936050  0.61478450  1
  H  H37  1  0.23171950  0.62063950  0.11478450  1
  H  H38  1  0.26828050  0.62063950  0.88521550  1
  H  H39  1  0.23171950  0.37936050  0.38521550  1
  H  H40  1  0.61478450  0.26828050  0.37936050  1
  H  H41  1  0.11478450  0.23171950  0.62063950  1
  H  H42  1  0.88521550  0.26828050  0.62063950  1
  H  H43  1  0.38521550  0.23171950  0.37936050  1
  H  H44  1  0.12063950  0.88521550  0.23171950  1
  H  H45  1  0.87936050  0.38521550  0.26828050  1
  H  H46  1  0.87936050  0.61478450  0.23171950  1
  H  H47  1  0.12063950  0.11478450  0.26828050  1
  H  H48  1  0.23171950  0.12063950  0.88521550  1
  H  H49  1  0.26828050  0.87936050  0.38521550  1
  H  H50  1  0.23171950  0.87936050  0.61478450  1
  H  H51  1  0.26828050  0.12063950  0.11478450  1
  H  H52  1  0.88521550  0.23171950  0.12063950  1
  H  H53  1  0.38521550  0.26828050  0.87936050  1
  H  H54  1  0.61478450  0.23171950  0.87936050  1
  H  H55  1  0.11478450  0.26828050  0.12063950  1
  H  H56  1  0.78755950  0.08506850  0.83406550  1
  H  H57  1  0.21244050  0.58506850  0.66593450  1
  H  H58  1  0.71244050  0.91493150  0.33406550  1
  H  H59  1  0.78755950  0.91493150  0.66593450  1
  H  H60  1  0.83406550  0.78755950  0.08506850  1
  H  H61  1  0.66593450  0.21244050  0.58506850  1
  H  H62  1  0.33406550  0.71244050  0.91493150  1
  H  H63  1  0.66593450  0.78755950  0.91493150  1
  H  H64  1  0.08506850  0.83406550  0.78755950  1
  H  H65  1  0.58506850  0.66593450  0.21244050  1
  H  H66  1  0.91493150  0.33406550  0.71244050  1
  H  H67  1  0.91493150  0.66593450  0.78755950  1
  H  H68  1  0.71244050  0.41493150  0.66593450  1
  H  H69  1  0.28755950  0.91493150  0.83406550  1
  H  H70  1  0.78755950  0.58506850  0.16593450  1
  H  H71  1  0.71244050  0.58506850  0.83406550  1
  H  H72  1  0.66593450  0.71244050  0.41493150  1
  H  H73  1  0.83406550  0.28755950  0.91493150  1
  H  H74  1  0.16593450  0.78755950  0.58506850  1
  H  H75  1  0.83406550  0.71244050  0.58506850  1
  H  H76  1  0.41493150  0.66593450  0.71244050  1
  H  H77  1  0.91493150  0.83406550  0.28755950  1
  H  H78  1  0.58506850  0.16593450  0.78755950  1
  H  H79  1  0.58506850  0.83406550  0.71244050  1
  H  H80  1  0.87936050  0.11478450  0.76828050  1
  H  H81  1  0.12063950  0.61478450  0.73171950  1
  H  H82  1  0.12063950  0.38521550  0.76828050  1
  H  H83  1  0.87936050  0.88521550  0.73171950  1
  H  H84  1  0.76828050  0.87936050  0.11478450  1
  H  H85  1  0.73171950  0.12063950  0.61478450  1
  H  H86  1  0.76828050  0.12063950  0.38521550  1
  H  H87  1  0.73171950  0.87936050  0.88521550  1
  H  H88  1  0.11478450  0.76828050  0.87936050  1
  H  H89  1  0.61478450  0.73171950  0.12063950  1
  H  H90  1  0.38521550  0.76828050  0.12063950  1
  H  H91  1  0.88521550  0.73171950  0.87936050  1
  H  H92  1  0.62063950  0.38521550  0.73171950  1
  H  H93  1  0.37936050  0.88521550  0.76828050  1
  H  H94  1  0.37936050  0.11478450  0.73171950  1
  H  H95  1  0.62063950  0.61478450  0.76828050  1
  H  H96  1  0.73171950  0.62063950  0.38521550  1
  H  H97  1  0.76828050  0.37936050  0.88521550  1
  H  H98  1  0.73171950  0.37936050  0.11478450  1
  H  H99  1  0.76828050  0.62063950  0.61478450  1
  H  H100  1  0.38521550  0.73171950  0.62063950  1
  H  H101  1  0.88521550  0.76828050  0.37936050  1
  H  H102  1  0.11478450  0.73171950  0.37936050  1
  H  H103  1  0.61478450  0.76828050  0.62063950  1
  N  N104  1  0.50000000  0.75000000  0.46533500  1
  N  N105  1  0.50000000  0.25000000  0.03466500  1
  N  N106  1  0.46533500  0.50000000  0.75000000  1
  N  N107  1  0.03466500  0.50000000  0.25000000  1
  N  N108  1  0.75000000  0.46533500  0.50000000  1
  N  N109  1  0.25000000  0.03466500  0.50000000  1
  N  N110  1  0.00000000  0.75000000  0.03466500  1
  N  N111  1  0.00000000  0.25000000  0.46533500  1
  N  N112  1  0.03466500  0.00000000  0.75000000  1
  N  N113  1  0.46533500  0.00000000  0.25000000  1
  N  N114  1  0.75000000  0.03466500  0.00000000  1
  N  N115  1  0.25000000  0.46533500  0.00000000  1
  N  N116  1  0.00000000  0.25000000  0.96533500  1
  N  N117  1  0.00000000  0.75000000  0.53466500  1
  N  N118  1  0.96533500  0.00000000  0.25000000  1
  N  N119  1  0.53466500  0.00000000  0.75000000  1
  N  N120  1  0.25000000  0.96533500  0.00000000  1
  N  N121  1  0.75000000  0.53466500  0.00000000  1
  N  N122  1  0.50000000  0.25000000  0.53466500  1
  N  N123  1  0.50000000  0.75000000  0.96533500  1
  N  N124  1  0.53466500  0.50000000  0.25000000  1
  N  N125  1  0.96533500  0.50000000  0.75000000  1
  N  N126  1  0.25000000  0.53466500  0.50000000  1
  N  N127  1  0.75000000  0.96533500  0.50000000  1
  O  O128  1  0.31183150  0.63280250  0.28655450  1
  O  O129  1  0.68816850  0.13280250  0.21344550  1
  O  O130  1  0.68816850  0.86719750  0.28655450  1
  O  O131  1  0.31183150  0.36719750  0.21344550  1
  O  O132  1  0.28655450  0.31183150  0.63280250  1
  O  O133  1  0.21344550  0.68816850  0.13280250  1
  O  O134  1  0.28655450  0.68816850  0.86719750  1
  O  O135  1  0.21344550  0.31183150  0.36719750  1
  O  O136  1  0.63280250  0.28655450  0.31183150  1
  O  O137  1  0.13280250  0.21344550  0.68816850  1
  O  O138  1  0.86719750  0.28655450  0.68816850  1
  O  O139  1  0.36719750  0.21344550  0.31183150  1
  O  O140  1  0.18816850  0.86719750  0.21344550  1
  O  O141  1  0.81183150  0.36719750  0.28655450  1
  O  O142  1  0.81183150  0.63280250  0.21344550  1
  O  O143  1  0.18816850  0.13280250  0.28655450  1
  O  O144  1  0.21344550  0.18816850  0.86719750  1
  O  O145  1  0.28655450  0.81183150  0.36719750  1
  O  O146  1  0.21344550  0.81183150  0.63280250  1
  O  O147  1  0.28655450  0.18816850  0.13280250  1
  O  O148  1  0.86719750  0.21344550  0.18816850  1
  O  O149  1  0.36719750  0.28655450  0.81183150  1
  O  O150  1  0.63280250  0.21344550  0.81183150  1
  O  O151  1  0.13280250  0.28655450  0.18816850  1
  O  O152  1  0.42183000  0.76839100  0.51138200  1
  O  O153  1  0.57817000  0.26839100  0.98861800  1
  O  O154  1  0.07817000  0.23160900  0.01138200  1
  O  O155  1  0.42183000  0.23160900  0.98861800  1
  O  O156  1  0.51138200  0.42183000  0.76839100  1
  O  O157  1  0.98861800  0.57817000  0.26839100  1
  O  O158  1  0.01138200  0.07817000  0.23160900  1
  O  O159  1  0.98861800  0.42183000  0.23160900  1
  O  O160  1  0.76839100  0.51138200  0.42183000  1
  O  O161  1  0.26839100  0.98861800  0.57817000  1
  O  O162  1  0.23160900  0.01138200  0.07817000  1
  O  O163  1  0.23160900  0.98861800  0.42183000  1
  O  O164  1  0.07817000  0.73160900  0.98861800  1
  O  O165  1  0.92183000  0.23160900  0.51138200  1
  O  O166  1  0.42183000  0.26839100  0.48861800  1
  O  O167  1  0.07817000  0.26839100  0.51138200  1
  O  O168  1  0.98861800  0.07817000  0.73160900  1
  O  O169  1  0.51138200  0.92183000  0.23160900  1
  O  O170  1  0.48861800  0.42183000  0.26839100  1
  O  O171  1  0.51138200  0.07817000  0.26839100  1
  O  O172  1  0.73160900  0.98861800  0.07817000  1
  O  O173  1  0.23160900  0.51138200  0.92183000  1
  O  O174  1  0.26839100  0.48861800  0.42183000  1
  O  O175  1  0.26839100  0.51138200  0.07817000  1
  O  O176  1  0.50000000  0.75000000  0.37598600  1
  O  O177  1  0.50000000  0.25000000  0.12401400  1
  O  O178  1  0.37598600  0.50000000  0.75000000  1
  O  O179  1  0.12401400  0.50000000  0.25000000  1
  O  O180  1  0.75000000  0.37598600  0.50000000  1
  O  O181  1  0.25000000  0.12401400  0.50000000  1
  O  O182  1  0.00000000  0.75000000  0.12401400  1
  O  O183  1  0.00000000  0.25000000  0.37598600  1
  O  O184  1  0.12401400  0.00000000  0.75000000  1
  O  O185  1  0.37598600  0.00000000  0.25000000  1
  O  O186  1  0.75000000  0.12401400  0.00000000  1
  O  O187  1  0.25000000  0.37598600  0.00000000  1
  O  O188  1  0.81183150  0.13280250  0.78655450  1
  O  O189  1  0.18816850  0.63280250  0.71344550  1
  O  O190  1  0.18816850  0.36719750  0.78655450  1
  O  O191  1  0.81183150  0.86719750  0.71344550  1
  O  O192  1  0.78655450  0.81183150  0.13280250  1
  O  O193  1  0.71344550  0.18816850  0.63280250  1
  O  O194  1  0.78655450  0.18816850  0.36719750  1
  O  O195  1  0.71344550  0.81183150  0.86719750  1
  O  O196  1  0.13280250  0.78655450  0.81183150  1
  O  O197  1  0.63280250  0.71344550  0.18816850  1
  O  O198  1  0.36719750  0.78655450  0.18816850  1
  O  O199  1  0.86719750  0.71344550  0.81183150  1
  O  O200  1  0.68816850  0.36719750  0.71344550  1
  O  O201  1  0.31183150  0.86719750  0.78655450  1
  O  O202  1  0.31183150  0.13280250  0.71344550  1
  O  O203  1  0.68816850  0.63280250  0.78655450  1
  O  O204  1  0.71344550  0.68816850  0.36719750  1
  O  O205  1  0.78655450  0.31183150  0.86719750  1
  O  O206  1  0.71344550  0.31183150  0.13280250  1
  O  O207  1  0.78655450  0.68816850  0.63280250  1
  O  O208  1  0.36719750  0.71344550  0.68816850  1
  O  O209  1  0.86719750  0.78655450  0.31183150  1
  O  O210  1  0.13280250  0.71344550  0.31183150  1
  O  O211  1  0.63280250  0.78655450  0.68816850  1
  O  O212  1  0.92183000  0.26839100  0.01138200  1
  O  O213  1  0.07817000  0.76839100  0.48861800  1
  O  O214  1  0.57817000  0.73160900  0.51138200  1
  O  O215  1  0.92183000  0.73160900  0.48861800  1
  O  O216  1  0.01138200  0.92183000  0.26839100  1
  O  O217  1  0.48861800  0.07817000  0.76839100  1
  O  O218  1  0.51138200  0.57817000  0.73160900  1
  O  O219  1  0.48861800  0.92183000  0.73160900  1
  O  O220  1  0.26839100  0.01138200  0.92183000  1
  O  O221  1  0.76839100  0.48861800  0.07817000  1
  O  O222  1  0.73160900  0.51138200  0.57817000  1
  O  O223  1  0.73160900  0.48861800  0.92183000  1
  O  O224  1  0.57817000  0.23160900  0.48861800  1
  O  O225  1  0.42183000  0.73160900  0.01138200  1
  O  O226  1  0.92183000  0.76839100  0.98861800  1
  O  O227  1  0.57817000  0.76839100  0.01138200  1
  O  O228  1  0.48861800  0.57817000  0.23160900  1
  O  O229  1  0.01138200  0.42183000  0.73160900  1
  O  O230  1  0.98861800  0.92183000  0.76839100  1
  O  O231  1  0.01138200  0.57817000  0.76839100  1
  O  O232  1  0.23160900  0.48861800  0.57817000  1
  O  O233  1  0.73160900  0.01138200  0.42183000  1
  O  O234  1  0.76839100  0.98861800  0.92183000  1
  O  O235  1  0.76839100  0.01138200  0.57817000  1
  O  O236  1  0.00000000  0.25000000  0.87598600  1
  O  O237  1  0.00000000  0.75000000  0.62401400  1
  O  O238  1  0.87598600  0.00000000  0.25000000  1
  O  O239  1  0.62401400  0.00000000  0.75000000  1
  O  O240  1  0.25000000  0.87598600  0.00000000  1
  O  O241  1  0.75000000  0.62401400  0.00000000  1
  O  O242  1  0.50000000  0.25000000  0.62401400  1
  O  O243  1  0.50000000  0.75000000  0.87598600  1
  O  O244  1  0.62401400  0.50000000  0.25000000  1
  O  O245  1  0.87598600  0.50000000  0.75000000  1
  O  O246  1  0.25000000  0.62401400  0.50000000  1
  O  O247  1  0.75000000  0.87598600  0.50000000  1
