# generated using pymatgen
data_Na3Sr7Ti7Nb3O30
_symmetry_space_group_name_H-M   'P 1'
_cell_length_a   6.86301300
_cell_length_b   6.87397134
_cell_length_c   28.36077872
_cell_angle_alpha   94.59800049
_cell_angle_beta   94.65989994
_cell_angle_gamma   109.46387604
_symmetry_Int_Tables_number   1
_chemical_formula_structural   Na3Sr7Ti7Nb3O30
_chemical_formula_sum   'Na6 Sr14 Ti14 Nb6 O60'
_cell_volume   1249.10809458
_cell_formula_units_Z   2
loop_
 _symmetry_equiv_pos_site_id
 _symmetry_equiv_pos_as_xyz
  1  'x, y, z'
loop_
 _atom_site_type_symbol
 _atom_site_label
 _atom_site_symmetry_multiplicity
 _atom_site_fract_x
 _atom_site_fract_y
 _atom_site_fract_z
 _atom_site_occupancy
  Na  Na0  1  0.10149000  0.10187400  0.20122800  1
  Na  Na1  1  0.59927300  0.59963600  0.20101700  1
  Na  Na2  1  0.70004700  0.70007500  0.39982200  1
  Na  Na3  1  0.29990300  0.29990500  0.59984000  1
  Na  Na4  1  0.89973700  0.89972800  0.79972200  1
  Na  Na5  1  0.00093800  0.00057100  0.99945100  1
  Sr  Sr6  1  0.30091900  0.80169200  0.10072000  1
  Sr  Sr7  1  0.89922600  0.40022100  0.29994200  1
  Sr  Sr8  1  0.80024900  0.29962700  0.10074500  1
  Sr  Sr9  1  0.49980700  0.99984600  0.49980500  1
  Sr  Sr10  1  0.40071700  0.89964200  0.29994200  1
  Sr  Sr11  1  0.19947000  0.19951700  0.39954300  1
  Sr  Sr12  1  0.09980400  0.59982500  0.69983400  1
  Sr  Sr13  1  0.00000400  0.49995000  0.49980700  1
  Sr  Sr14  1  0.79992200  0.79992000  0.59984700  1
  Sr  Sr15  1  0.60000400  0.09999500  0.69983200  1
  Sr  Sr16  1  0.40033500  0.40026600  0.80005900  1
  Sr  Sr17  1  0.70060100  0.19855400  0.89966100  1
  Sr  Sr18  1  0.49857900  0.49780900  0.99883200  1
  Sr  Sr19  1  0.19898800  0.70110600  0.89966700  1
  Ti  Ti20  1  0.40221200  0.40177100  0.30034400  1
  Ti  Ti21  1  0.89777200  0.89751500  0.29861000  1
  Ti  Ti22  1  0.29928100  0.30299500  0.10238300  1
  Ti  Ti23  1  0.10478000  0.59759400  0.20274200  1
  Ti  Ti24  1  0.99900500  0.00054900  0.49949700  1
  Ti  Ti25  1  0.50042300  0.49887900  0.49942700  1
  Ti  Ti26  1  0.70027500  0.19885400  0.39919000  1
  Ti  Ti27  1  0.59894200  0.60038500  0.69946600  1
  Ti  Ti28  1  0.29963500  0.79959100  0.59918000  1
  Ti  Ti29  1  0.10056000  0.09903500  0.69952600  1
  Ti  Ti30  1  0.19500300  0.19621100  0.89850200  1
  Ti  Ti31  1  0.70351400  0.70336000  0.90014600  1
  Ti  Ti32  1  0.89898300  0.40028200  0.79921100  1
  Ti  Ti33  1  0.49391500  0.00421300  0.99929700  1
  Nb  Nb34  1  0.80336300  0.80245400  0.10124800  1
  Nb  Nb35  1  0.59674300  0.10441300  0.20147600  1
  Nb  Nb36  1  0.19926300  0.70043600  0.39979400  1
  Nb  Nb37  1  0.79996900  0.29994600  0.59988100  1
  Nb  Nb38  1  0.40046100  0.89935700  0.79976900  1
  Nb  Nb39  1  0.00274600  0.49554500  0.99923500  1
  O  O40  1  0.40417700  0.15053200  0.04995000  1
  O  O41  1  0.89900000  0.64660200  0.05012000  1
  O  O42  1  0.95321700  0.69502500  0.14896900  1
  O  O43  1  0.54748600  0.54673500  0.09857900  1
  O  O44  1  0.15258900  0.40325100  0.05072500  1
  O  O45  1  0.34777200  0.84893500  0.19964900  1
  O  O46  1  0.25372700  0.74818700  0.99986000  1
  O  O47  1  0.45150500  0.19685300  0.14835300  1
  O  O48  1  0.50164000  0.25104500  0.25148600  1
  O  O49  1  0.64559100  0.89911000  0.05036100  1
  O  O50  1  0.05195000  0.05236800  0.09977400  1
  O  O51  1  0.15100900  0.15054400  0.30095200  1
  O  O52  1  0.54823900  0.29489600  0.34950300  1
  O  O53  1  0.69520700  0.95259400  0.14930200  1
  O  O54  1  0.74827500  0.00264000  0.25138100  1
  O  O55  1  0.95071600  0.44657000  0.40029400  1
  O  O56  1  0.05316800  0.80164700  0.34911700  1
  O  O57  1  0.85156000  0.35036600  0.19941700  1
  O  O58  1  0.10413400  0.85319400  0.45070300  1
  O  O59  1  0.24793000  0.50360100  0.25106200  1
  O  O60  1  0.64938200  0.65007000  0.30012000  1
  O  O61  1  0.19841400  0.45108400  0.14835300  1
  O  O62  1  0.75097000  0.75036800  0.50118100  1
  O  O63  1  0.14838100  0.89480800  0.54964200  1
  O  O64  1  0.29602700  0.54665900  0.34931800  1
  O  O65  1  0.34664400  0.59863000  0.45087300  1
  O  O66  1  0.55086500  0.04669500  0.60030900  1
  O  O67  1  0.44950000  0.95366800  0.40005500  1
  O  O68  1  0.65297600  0.40186900  0.54924400  1
  O  O69  1  0.70414400  0.45319400  0.65073600  1
  O  O70  1  0.85227500  0.10492400  0.45083400  1
  O  O71  1  0.24921500  0.24981100  0.49917600  1
  O  O72  1  0.80201600  0.05514000  0.34979300  1
  O  O73  1  0.00254600  0.74664500  0.25083600  1
  O  O74  1  0.59655400  0.84850900  0.94943600  1
  O  O75  1  0.74836600  0.49476500  0.74963600  1
  O  O76  1  0.35096500  0.35037500  0.70118400  1
  O  O77  1  0.89636800  0.14648400  0.54946500  1
  O  O78  1  0.94667800  0.19867300  0.65095700  1
  O  O79  1  0.15088000  0.64674200  0.80031800  1
  O  O80  1  0.04931800  0.55350200  0.60006700  1
  O  O81  1  0.25304000  0.00192500  0.74928600  1
  O  O82  1  0.30421400  0.05312600  0.85068000  1
  O  O83  1  0.45235100  0.70487000  0.65090000  1
  O  O84  1  0.84922300  0.84982200  0.69916600  1
  O  O85  1  0.40227100  0.65494500  0.54985400  1
  O  O86  1  0.59747200  0.34592400  0.45061100  1
  O  O87  1  0.35396900  0.10078700  0.94932700  1
  O  O88  1  0.95088400  0.95015900  0.89992100  1
  O  O89  1  0.49631400  0.74643600  0.74945200  1
  O  O90  1  0.54650900  0.79864200  0.85084900  1
  O  O91  1  0.74652600  0.25159200  0.00010200  1
  O  O92  1  0.64928000  0.15339600  0.80007900  1
  O  O93  1  0.84827400  0.59601400  0.94919700  1
  O  O94  1  0.44929100  0.44974600  0.90013800  1
  O  O95  1  0.05239600  0.30474700  0.85087900  1
  O  O96  1  0.19749800  0.94596400  0.65069800  1
  O  O97  1  0.00235200  0.25494500  0.74987800  1
  O  O98  1  0.10219600  0.35088600  0.94907900  1
  O  O99  1  0.79770400  0.54561900  0.85057500  1
