# generated using pymatgen
data_K2Pt(NO2)4
_symmetry_space_group_name_H-M   'P 1'
_cell_length_a   7.87002600
_cell_length_b   12.99121100
_cell_length_c   9.68877438
_cell_angle_alpha   90.00000000
_cell_angle_beta   96.85361855
_cell_angle_gamma   90.00000000
_symmetry_Int_Tables_number   1
_chemical_formula_structural   K2Pt(NO2)4
_chemical_formula_sum   'K8 Pt4 N16 O32'
_cell_volume   983.51311075
_cell_formula_units_Z   4
loop_
 _symmetry_equiv_pos_site_id
 _symmetry_equiv_pos_as_xyz
  1  'x, y, z'
loop_
 _atom_site_type_symbol
 _atom_site_label
 _atom_site_symmetry_multiplicity
 _atom_site_fract_x
 _atom_site_fract_y
 _atom_site_fract_z
 _atom_site_occupancy
  K  K0  1  0.41650600  0.15532300  0.19549600  1
  K  K1  1  0.08349400  0.65532300  0.80450400  1
  K  K2  1  0.58349400  0.84467700  0.80450400  1
  K  K3  1  0.91650600  0.34467700  0.19549600  1
  K  K4  1  0.65275600  0.18150900  0.66105900  1
  K  K5  1  0.84724400  0.68150900  0.33894100  1
  K  K6  1  0.34724400  0.81849100  0.33894100  1
  K  K7  1  0.15275600  0.31849100  0.66105900  1
  Pt  Pt8  1  0.00000000  0.00000000  0.00000000  1
  Pt  Pt9  1  0.50000000  0.50000000  0.00000000  1
  Pt  Pt10  1  0.00000000  0.00000000  0.50000000  1
  Pt  Pt11  1  0.50000000  0.50000000  0.50000000  1
  N  N12  1  0.24816800  0.52185600  0.42033500  1
  N  N13  1  0.50928800  0.36110500  0.40312500  1
  N  N14  1  0.99071200  0.86110500  0.59687500  1
  N  N15  1  0.49071200  0.63889500  0.59687500  1
  N  N16  1  0.00928800  0.13889500  0.40312500  1
  N  N17  1  0.25183200  0.02185600  0.57966500  1
  N  N18  1  0.75183200  0.47814400  0.57966500  1
  N  N19  1  0.74816800  0.97814400  0.42033500  1
  N  N20  1  0.73515300  0.56578900  0.99336400  1
  N  N21  1  0.76484700  0.06578900  0.00663600  1
  N  N22  1  0.26484700  0.43421100  0.00663600  1
  N  N23  1  0.23515300  0.93421100  0.99336400  1
  N  N24  1  0.07288000  0.12790400  0.89884900  1
  N  N25  1  0.42712000  0.62790400  0.10115100  1
  N  N26  1  0.92712000  0.87209600  0.10115100  1
  N  N27  1  0.57288000  0.37209600  0.89884900  1
  O  O28  1  0.70064100  0.89155300  0.37430400  1
  O  O29  1  0.79935900  0.39155300  0.62569600  1
  O  O30  1  0.29935900  0.10844700  0.62569600  1
  O  O31  1  0.20064100  0.60844700  0.37430400  1
  O  O32  1  0.92523800  0.21331300  0.44236400  1
  O  O33  1  0.57476200  0.71331300  0.55763600  1
  O  O34  1  0.07476200  0.78668700  0.55763600  1
  O  O35  1  0.59999200  0.34932200  0.30689600  1
  O  O36  1  0.42523800  0.28668700  0.44236400  1
  O  O37  1  0.09999200  0.15067800  0.30689600  1
  O  O38  1  0.40000800  0.65067800  0.69310400  1
  O  O39  1  0.90000800  0.84932200  0.69310400  1
  O  O40  1  0.21160500  0.17160300  0.93840300  1
  O  O41  1  0.28839500  0.67160300  0.06159700  1
  O  O42  1  0.78839500  0.82839700  0.06159700  1
  O  O43  1  0.71160500  0.32839700  0.93840300  1
  O  O44  1  0.97786500  0.16251300  0.79624200  1
  O  O45  1  0.52213500  0.66251300  0.20375800  1
  O  O46  1  0.02213500  0.83748700  0.20375800  1
  O  O47  1  0.47786500  0.33748700  0.79624200  1
  O  O48  1  0.35238500  0.95013000  0.09029600  1
  O  O49  1  0.14761500  0.45013000  0.90970400  1
  O  O50  1  0.64761500  0.04987000  0.90970400  1
  O  O51  1  0.85238500  0.54987000  0.09029600  1
  O  O52  1  0.26047200  0.87774400  0.89336400  1
  O  O53  1  0.23952800  0.37774400  0.10663600  1
  O  O54  1  0.73952800  0.12225600  0.10663600  1
  O  O55  1  0.76047200  0.62225600  0.89336400  1
  O  O56  1  0.64303300  0.05061000  0.41889100  1
  O  O57  1  0.85696700  0.55061000  0.58110900  1
  O  O58  1  0.35696700  0.94939000  0.58110900  1
  O  O59  1  0.14303300  0.44939000  0.41889100  1
