# generated using pymatgen
data_Li3Bi2(PO4)3
_symmetry_space_group_name_H-M   'P 1'
_cell_length_a   15.10815000
_cell_length_b   9.31750000
_cell_length_c   9.25401976
_cell_angle_alpha   90.00000000
_cell_angle_beta   121.44217244
_cell_angle_gamma   90.00000000
_symmetry_Int_Tables_number   1
_chemical_formula_structural   Li3Bi2(PO4)3
_chemical_formula_sum   'Li12 Bi8 P12 O48'
_cell_volume   1111.41230459
_cell_formula_units_Z   4
loop_
 _symmetry_equiv_pos_site_id
 _symmetry_equiv_pos_as_xyz
  1  'x, y, z'
loop_
 _atom_site_type_symbol
 _atom_site_label
 _atom_site_symmetry_multiplicity
 _atom_site_fract_x
 _atom_site_fract_y
 _atom_site_fract_z
 _atom_site_occupancy
  Li  Li0  1  0.00000000  0.89182100  0.75000000  1
  Li  Li1  1  0.18055450  0.64139750  0.78971100  1
  Li  Li2  1  0.18055450  0.35860250  0.28971100  1
  Li  Li3  1  0.81944550  0.35860250  0.21028900  1
  Li  Li4  1  0.81944550  0.64139750  0.71028900  1
  Li  Li5  1  0.00000000  0.10817900  0.25000000  1
  Li  Li6  1  0.50000000  0.39182100  0.75000000  1
  Li  Li7  1  0.68055450  0.14139750  0.78971100  1
  Li  Li8  1  0.68055450  0.85860250  0.28971100  1
  Li  Li9  1  0.31944550  0.85860250  0.21028900  1
  Li  Li10  1  0.31944550  0.14139750  0.71028900  1
  Li  Li11  1  0.50000000  0.60817900  0.25000000  1
  Bi  Bi12  1  0.09249250  0.24501850  0.64308200  1
  Bi  Bi13  1  0.90750750  0.75498150  0.35691800  1
  Bi  Bi14  1  0.09249250  0.75498150  0.14308200  1
  Bi  Bi15  1  0.90750750  0.24501850  0.85691800  1
  Bi  Bi16  1  0.59249250  0.74501850  0.64308200  1
  Bi  Bi17  1  0.40750750  0.25498150  0.35691800  1
  Bi  Bi18  1  0.59249250  0.25498150  0.14308200  1
  Bi  Bi19  1  0.40750750  0.74501850  0.85691800  1
  P  P20  1  0.35500100  0.60174500  0.42444600  1
  P  P21  1  0.64499900  0.39825500  0.57555400  1
  P  P22  1  0.00000000  0.41748600  0.25000000  1
  P  P23  1  0.35500100  0.39825500  0.92444600  1
  P  P24  1  0.64499900  0.60174500  0.07555400  1
  P  P25  1  0.00000000  0.58251400  0.75000000  1
  P  P26  1  0.85500100  0.10174500  0.42444600  1
  P  P27  1  0.14499900  0.89825500  0.57555400  1
  P  P28  1  0.50000000  0.91748600  0.25000000  1
  P  P29  1  0.85500100  0.89825500  0.92444600  1
  P  P30  1  0.14499900  0.10174500  0.07555400  1
  P  P31  1  0.50000000  0.08251400  0.75000000  1
  O  O32  1  0.05286400  0.12603000  0.10201800  1
  O  O33  1  0.91367100  0.68134800  0.60764500  1
  O  O34  1  0.08632900  0.68134800  0.89235500  1
  O  O35  1  0.08632900  0.31865200  0.39235500  1
  O  O36  1  0.89365800  0.86656100  0.11179200  1
  O  O37  1  0.94713600  0.12603000  0.39798200  1
  O  O38  1  0.89365800  0.13343900  0.61179200  1
  O  O39  1  0.10634200  0.86656100  0.38820800  1
  O  O40  1  0.68434600  0.44340900  0.11799700  1
  O  O41  1  0.10634200  0.13343900  0.88820800  1
  O  O42  1  0.94032150  0.49486050  0.81422600  1
  O  O43  1  0.05286400  0.87397000  0.60201800  1
  O  O44  1  0.26724300  0.70549200  0.29942400  1
  O  O45  1  0.73275700  0.29450800  0.70057600  1
  O  O46  1  0.73275700  0.70549200  0.20057600  1
  O  O47  1  0.05967850  0.50513950  0.18577400  1
  O  O48  1  0.68434600  0.55659100  0.61799700  1
  O  O49  1  0.26724300  0.29450800  0.79942400  1
  O  O50  1  0.31565400  0.44340900  0.38200300  1
  O  O51  1  0.91367100  0.31865200  0.10764500  1
  O  O52  1  0.05967850  0.49486050  0.68577400  1
  O  O53  1  0.94032150  0.50513950  0.31422600  1
  O  O54  1  0.31565400  0.55659100  0.88200300  1
  O  O55  1  0.94713600  0.87397000  0.89798200  1
  O  O56  1  0.55286400  0.62603000  0.10201800  1
  O  O57  1  0.41367100  0.18134800  0.60764500  1
  O  O58  1  0.58632900  0.18134800  0.89235500  1
  O  O59  1  0.58632900  0.81865200  0.39235500  1
  O  O60  1  0.39365800  0.36656100  0.11179200  1
  O  O61  1  0.44713600  0.62603000  0.39798200  1
  O  O62  1  0.39365800  0.63343900  0.61179200  1
  O  O63  1  0.60634200  0.36656100  0.38820800  1
  O  O64  1  0.18434600  0.94340900  0.11799700  1
  O  O65  1  0.60634200  0.63343900  0.88820800  1
  O  O66  1  0.44032150  0.99486050  0.81422600  1
  O  O67  1  0.55286400  0.37397000  0.60201800  1
  O  O68  1  0.76724300  0.20549200  0.29942400  1
  O  O69  1  0.23275700  0.79450800  0.70057600  1
  O  O70  1  0.23275700  0.20549200  0.20057600  1
  O  O71  1  0.55967850  0.00513950  0.18577400  1
  O  O72  1  0.18434600  0.05659100  0.61799700  1
  O  O73  1  0.76724300  0.79450800  0.79942400  1
  O  O74  1  0.81565400  0.94340900  0.38200300  1
  O  O75  1  0.41367100  0.81865200  0.10764500  1
  O  O76  1  0.55967850  0.99486050  0.68577400  1
  O  O77  1  0.44032150  0.00513950  0.31422600  1
  O  O78  1  0.81565400  0.05659100  0.88200300  1
  O  O79  1  0.44713600  0.37397000  0.89798200  1
