# generated using pymatgen
data_BaDy2ZnO5
_symmetry_space_group_name_H-M   'P 1'
_cell_length_a   5.76047000
_cell_length_b   7.14998800
_cell_length_c   12.44543800
_cell_angle_alpha   90.00000000
_cell_angle_beta   90.00000000
_cell_angle_gamma   90.00000000
_symmetry_Int_Tables_number   1
_chemical_formula_structural   BaDy2ZnO5
_chemical_formula_sum   'Ba4 Dy8 Zn4 O20'
_cell_volume   512.59388119
_cell_formula_units_Z   4
loop_
 _symmetry_equiv_pos_site_id
 _symmetry_equiv_pos_as_xyz
  1  'x, y, z'
loop_
 _atom_site_type_symbol
 _atom_site_label
 _atom_site_symmetry_multiplicity
 _atom_site_fract_x
 _atom_site_fract_y
 _atom_site_fract_z
 _atom_site_occupancy
  Ba  Ba0  1  0.75000000  0.07711700  0.10154700  1
  Ba  Ba1  1  0.75000000  0.42288300  0.60154700  1
  Ba  Ba2  1  0.25000000  0.57711700  0.39845300  1
  Ba  Ba3  1  0.25000000  0.92288300  0.89845300  1
  Dy  Dy4  1  0.25000000  0.39968700  0.07443600  1
  Dy  Dy5  1  0.75000000  0.61832300  0.20804200  1
  Dy  Dy6  1  0.75000000  0.88167700  0.70804200  1
  Dy  Dy7  1  0.25000000  0.11832300  0.29195800  1
  Dy  Dy8  1  0.75000000  0.60031300  0.92556400  1
  Dy  Dy9  1  0.75000000  0.89968700  0.42556400  1
  Dy  Dy10  1  0.25000000  0.10031300  0.57443600  1
  Dy  Dy11  1  0.25000000  0.38167700  0.79195800  1
  Zn  Zn12  1  0.25000000  0.80842700  0.14987600  1
  Zn  Zn13  1  0.75000000  0.19157300  0.85012400  1
  Zn  Zn14  1  0.75000000  0.30842700  0.35012400  1
  Zn  Zn15  1  0.25000000  0.69157300  0.64987600  1
  O  O16  1  0.25000000  0.42493000  0.60031300  1
  O  O17  1  0.75000000  0.57507000  0.39968700  1
  O  O18  1  0.75000000  0.92493000  0.89968700  1
  O  O19  1  0.25000000  0.07507000  0.10031300  1
  O  O20  1  0.00042200  0.85801700  0.27532900  1
  O  O21  1  0.50042200  0.14198300  0.72467100  1
  O  O22  1  0.99957800  0.35801700  0.22467100  1
  O  O23  1  0.49957800  0.64198300  0.77532900  1
  O  O24  1  0.99957800  0.14198300  0.72467100  1
  O  O25  1  0.49957800  0.85801700  0.27532900  1
  O  O26  1  0.00042200  0.64198300  0.77532900  1
  O  O27  1  0.50042200  0.35801700  0.22467100  1
  O  O28  1  0.49842000  0.66294400  0.06614800  1
  O  O29  1  0.99842000  0.33705600  0.93385200  1
  O  O30  1  0.50158000  0.16294400  0.43385200  1
  O  O31  1  0.00158000  0.83705600  0.56614800  1
  O  O32  1  0.99842000  0.16294400  0.43385200  1
  O  O33  1  0.49842000  0.83705600  0.56614800  1
  O  O34  1  0.00158000  0.66294400  0.06614800  1
  O  O35  1  0.50158000  0.33705600  0.93385200  1
