# generated using pymatgen
data_KBe2BO3F2
_symmetry_space_group_name_H-M   'P 1'
_cell_length_a   4.45574576
_cell_length_b   4.45574576
_cell_length_c   19.45120149
_cell_angle_alpha   90.00000000
_cell_angle_beta   90.00000000
_cell_angle_gamma   120.00000000
_symmetry_Int_Tables_number   1
_chemical_formula_structural   KBe2BO3F2
_chemical_formula_sum   'K3 Be6 B3 O9 F6'
_cell_volume   334.43973453
_cell_formula_units_Z   3
loop_
 _symmetry_equiv_pos_site_id
 _symmetry_equiv_pos_as_xyz
  1  'x, y, z'
loop_
 _atom_site_type_symbol
 _atom_site_label
 _atom_site_symmetry_multiplicity
 _atom_site_fract_x
 _atom_site_fract_y
 _atom_site_fract_z
 _atom_site_occupancy
  K  K0  1  0.00000000  0.00000000  0.00000000  1
  K  K1  1  0.66666667  0.33333333  0.33333333  1
  K  K2  1  0.33333333  0.66666667  0.66666667  1
  Be  Be3  1  0.00000000  0.00000000  0.19631900  1
  Be  Be4  1  0.66666667  0.33333333  0.13701433  1
  Be  Be5  1  0.66666667  0.33333333  0.52965233  1
  Be  Be6  1  0.33333333  0.66666667  0.47034767  1
  Be  Be7  1  0.33333333  0.66666667  0.86298567  1
  Be  Be8  1  0.00000000  0.00000000  0.80368100  1
  B  B9  1  0.33333333  0.66666667  0.16666667  1
  B  B10  1  0.00000000  0.00000000  0.50000000  1
  B  B11  1  0.66666667  0.33333333  0.83333333  1
  O  O12  1  0.02389233  0.35722567  0.16666667  1
  O  O13  1  0.33333333  0.97610767  0.16666667  1
  O  O14  1  0.64277433  0.66666667  0.16666667  1
  O  O15  1  0.69055900  0.69055900  0.50000000  1
  O  O16  1  0.00000000  0.30944100  0.50000000  1
  O  O17  1  0.30944100  0.00000000  0.50000000  1
  O  O18  1  0.35722567  0.02389233  0.83333333  1
  O  O19  1  0.66666667  0.64277433  0.83333333  1
  O  O20  1  0.97610767  0.33333333  0.83333333  1
  F  F21  1  0.00000000  0.00000000  0.27567200  1
  F  F22  1  0.66666667  0.33333333  0.05766133  1
  F  F23  1  0.66666667  0.33333333  0.60900533  1
  F  F24  1  0.33333333  0.66666667  0.39099467  1
  F  F25  1  0.33333333  0.66666667  0.94233867  1
  F  F26  1  0.00000000  0.00000000  0.72432800  1
