# generated using pymatgen
data_SiH12C2(NF)6
_symmetry_space_group_name_H-M   'P 1'
_cell_length_a   12.73348400
_cell_length_b   7.31700600
_cell_length_c   6.25315057
_cell_angle_alpha   90.00000000
_cell_angle_beta   114.21002127
_cell_angle_gamma   90.00000000
_symmetry_Int_Tables_number   1
_chemical_formula_structural   SiH12C2(NF)6
_chemical_formula_sum   'Si2 H24 C4 N12 F12'
_cell_volume   531.37049035
_cell_formula_units_Z   2
loop_
 _symmetry_equiv_pos_site_id
 _symmetry_equiv_pos_as_xyz
  1  'x, y, z'
loop_
 _atom_site_type_symbol
 _atom_site_label
 _atom_site_symmetry_multiplicity
 _atom_site_fract_x
 _atom_site_fract_y
 _atom_site_fract_z
 _atom_site_occupancy
  Si  Si0  1  0.00000000  0.00000000  0.00000000  1
  Si  Si1  1  0.50000000  0.50000000  0.00000000  1
  H  H2  1  0.26711600  0.27863300  0.74902000  1
  H  H3  1  0.26711600  0.72136700  0.74902000  1
  H  H4  1  0.23288400  0.22136700  0.25098000  1
  H  H5  1  0.23288400  0.77863300  0.25098000  1
  H  H6  1  0.14636250  0.15881150  0.74229200  1
  H  H7  1  0.14636250  0.84118850  0.74229200  1
  H  H8  1  0.35363750  0.34118850  0.25770800  1
  H  H9  1  0.35363750  0.65881150  0.25770800  1
  H  H10  1  0.42537300  0.88042400  0.74907500  1
  H  H11  1  0.42537300  0.11957600  0.74907500  1
  H  H12  1  0.07462700  0.61957600  0.25092500  1
  H  H13  1  0.07462700  0.38042400  0.25092500  1
  H  H14  1  0.76711600  0.77863300  0.74902000  1
  H  H15  1  0.76711600  0.22136700  0.74902000  1
  H  H16  1  0.73288400  0.72136700  0.25098000  1
  H  H17  1  0.73288400  0.27863300  0.25098000  1
  H  H18  1  0.64636250  0.65881150  0.74229200  1
  H  H19  1  0.64636250  0.34118850  0.74229200  1
  H  H20  1  0.85363750  0.84118850  0.25770800  1
  H  H21  1  0.85363750  0.15881150  0.25770800  1
  H  H22  1  0.92537300  0.38042400  0.74907500  1
  H  H23  1  0.92537300  0.61957600  0.74907500  1
  H  H24  1  0.57462700  0.11957600  0.25092500  1
  H  H25  1  0.57462700  0.88042400  0.25092500  1
  C  C26  1  0.27580500  0.00000000  0.72807500  1
  C  C27  1  0.22419500  0.50000000  0.27192500  1
  C  C28  1  0.77580500  0.50000000  0.72807500  1
  C  C29  1  0.72419500  0.00000000  0.27192500  1
  N  N30  1  0.38046500  0.00000000  0.72451800  1
  N  N31  1  0.11953500  0.50000000  0.27548200  1
  N  N32  1  0.22293500  0.15851000  0.72594300  1
  N  N33  1  0.22293500  0.84149000  0.72594300  1
  N  N34  1  0.27706500  0.34149000  0.27405700  1
  N  N35  1  0.27706500  0.65851000  0.27405700  1
  N  N36  1  0.88046500  0.50000000  0.72451800  1
  N  N37  1  0.61953500  0.00000000  0.27548200  1
  N  N38  1  0.72293500  0.65851000  0.72594300  1
  N  N39  1  0.72293500  0.34149000  0.72594300  1
  N  N40  1  0.77706500  0.84149000  0.27405700  1
  N  N41  1  0.77706500  0.15851000  0.27405700  1
  F  F42  1  0.01631950  0.16654450  0.82080900  1
  F  F43  1  0.01631950  0.83345550  0.82080900  1
  F  F44  1  0.48368050  0.33345550  0.17919100  1
  F  F45  1  0.48368050  0.66654450  0.17919100  1
  F  F46  1  0.35342900  0.50000000  0.83575400  1
  F  F47  1  0.14657100  0.00000000  0.16424600  1
  F  F48  1  0.51631950  0.66654450  0.82080900  1
  F  F49  1  0.51631950  0.33345550  0.82080900  1
  F  F50  1  0.98368050  0.83345550  0.17919100  1
  F  F51  1  0.98368050  0.16654450  0.17919100  1
  F  F52  1  0.85342900  0.00000000  0.83575400  1
  F  F53  1  0.64657100  0.50000000  0.16424600  1
