# generated using pymatgen
data_NaInH8(NF3)2
_symmetry_space_group_name_H-M   'P 1'
_cell_length_a   8.76739200
_cell_length_b   8.76739200
_cell_length_c   8.76739200
_cell_angle_alpha   90.00000000
_cell_angle_beta   90.00000000
_cell_angle_gamma   90.00000000
_symmetry_Int_Tables_number   1
_chemical_formula_structural   NaInH8(NF3)2
_chemical_formula_sum   'Na4 In4 H32 N8 F24'
_cell_volume   673.92454540
_cell_formula_units_Z   4
loop_
 _symmetry_equiv_pos_site_id
 _symmetry_equiv_pos_as_xyz
  1  'x, y, z'
loop_
 _atom_site_type_symbol
 _atom_site_label
 _atom_site_symmetry_multiplicity
 _atom_site_fract_x
 _atom_site_fract_y
 _atom_site_fract_z
 _atom_site_occupancy
  Na  Na0  1  0.00000000  0.00000000  0.00000000  1
  Na  Na1  1  0.00000000  0.50000000  0.50000000  1
  Na  Na2  1  0.50000000  0.00000000  0.50000000  1
  Na  Na3  1  0.50000000  0.50000000  0.00000000  1
  In  In4  1  0.50000000  0.00000000  0.00000000  1
  In  In5  1  0.50000000  0.50000000  0.50000000  1
  In  In6  1  0.00000000  0.00000000  0.50000000  1
  In  In7  1  0.00000000  0.50000000  0.00000000  1
  H  H8  1  0.31779100  0.81779100  0.68220900  1
  H  H9  1  0.31779100  0.68220900  0.81779100  1
  H  H10  1  0.18220900  0.81779100  0.81779100  1
  H  H11  1  0.18220900  0.68220900  0.68220900  1
  H  H12  1  0.18220900  0.18220900  0.81779100  1
  H  H13  1  0.18220900  0.31779100  0.68220900  1
  H  H14  1  0.31779100  0.18220900  0.68220900  1
  H  H15  1  0.31779100  0.31779100  0.81779100  1
  H  H16  1  0.31779100  0.31779100  0.18220900  1
  H  H17  1  0.31779100  0.18220900  0.31779100  1
  H  H18  1  0.18220900  0.31779100  0.31779100  1
  H  H19  1  0.18220900  0.18220900  0.18220900  1
  H  H20  1  0.18220900  0.68220900  0.31779100  1
  H  H21  1  0.18220900  0.81779100  0.18220900  1
  H  H22  1  0.31779100  0.68220900  0.18220900  1
  H  H23  1  0.31779100  0.81779100  0.31779100  1
  H  H24  1  0.81779100  0.81779100  0.18220900  1
  H  H25  1  0.81779100  0.68220900  0.31779100  1
  H  H26  1  0.68220900  0.81779100  0.31779100  1
  H  H27  1  0.68220900  0.68220900  0.18220900  1
  H  H28  1  0.68220900  0.18220900  0.31779100  1
  H  H29  1  0.68220900  0.31779100  0.18220900  1
  H  H30  1  0.81779100  0.18220900  0.18220900  1
  H  H31  1  0.81779100  0.31779100  0.31779100  1
  H  H32  1  0.81779100  0.31779100  0.68220900  1
  H  H33  1  0.81779100  0.18220900  0.81779100  1
  H  H34  1  0.68220900  0.31779100  0.81779100  1
  H  H35  1  0.68220900  0.18220900  0.68220900  1
  H  H36  1  0.68220900  0.68220900  0.81779100  1
  H  H37  1  0.68220900  0.81779100  0.68220900  1
  H  H38  1  0.81779100  0.68220900  0.68220900  1
  H  H39  1  0.81779100  0.81779100  0.81779100  1
  N  N40  1  0.25000000  0.75000000  0.75000000  1
  N  N41  1  0.25000000  0.25000000  0.75000000  1
  N  N42  1  0.25000000  0.25000000  0.25000000  1
  N  N43  1  0.25000000  0.75000000  0.25000000  1
  N  N44  1  0.75000000  0.75000000  0.25000000  1
  N  N45  1  0.75000000  0.25000000  0.25000000  1
  N  N46  1  0.75000000  0.25000000  0.75000000  1
  N  N47  1  0.75000000  0.75000000  0.75000000  1
  F  F48  1  0.50000000  0.00000000  0.75825700  1
  F  F49  1  0.50000000  0.24174300  0.00000000  1
  F  F50  1  0.74174300  0.00000000  0.00000000  1
  F  F51  1  0.00000000  0.00000000  0.74174300  1
  F  F52  1  0.50000000  0.75825700  0.00000000  1
  F  F53  1  0.25825700  0.00000000  0.00000000  1
  F  F54  1  0.50000000  0.50000000  0.25825700  1
  F  F55  1  0.50000000  0.74174300  0.50000000  1
  F  F56  1  0.74174300  0.50000000  0.50000000  1
  F  F57  1  0.00000000  0.50000000  0.24174300  1
  F  F58  1  0.50000000  0.25825700  0.50000000  1
  F  F59  1  0.25825700  0.50000000  0.50000000  1
  F  F60  1  0.00000000  0.00000000  0.25825700  1
  F  F61  1  0.00000000  0.24174300  0.50000000  1
  F  F62  1  0.24174300  0.00000000  0.50000000  1
  F  F63  1  0.50000000  0.00000000  0.24174300  1
  F  F64  1  0.00000000  0.75825700  0.50000000  1
  F  F65  1  0.75825700  0.00000000  0.50000000  1
  F  F66  1  0.00000000  0.50000000  0.75825700  1
  F  F67  1  0.00000000  0.74174300  0.00000000  1
  F  F68  1  0.24174300  0.50000000  0.00000000  1
  F  F69  1  0.50000000  0.50000000  0.74174300  1
  F  F70  1  0.00000000  0.25825700  0.00000000  1
  F  F71  1  0.75825700  0.50000000  0.00000000  1
