# generated using pymatgen
data_Ba4NaCu(CO5)2
_symmetry_space_group_name_H-M   'P 1'
_cell_length_a   5.91012000
_cell_length_b   5.91012000
_cell_length_c   15.66804400
_cell_angle_alpha   90.00000000
_cell_angle_beta   90.00000000
_cell_angle_gamma   90.00000000
_symmetry_Int_Tables_number   1
_chemical_formula_structural   Ba4NaCu(CO5)2
_chemical_formula_sum   'Ba8 Na2 Cu2 C4 O20'
_cell_volume   547.27723142
_cell_formula_units_Z   2
loop_
 _symmetry_equiv_pos_site_id
 _symmetry_equiv_pos_as_xyz
  1  'x, y, z'
loop_
 _atom_site_type_symbol
 _atom_site_label
 _atom_site_symmetry_multiplicity
 _atom_site_fract_x
 _atom_site_fract_y
 _atom_site_fract_z
 _atom_site_occupancy
  Ba  Ba0  1  0.50000000  0.00000000  0.11694400  1
  Ba  Ba1  1  0.50000000  0.00000000  0.38305600  1
  Ba  Ba2  1  0.00000000  0.50000000  0.38305600  1
  Ba  Ba3  1  0.00000000  0.50000000  0.11694400  1
  Ba  Ba4  1  0.00000000  0.50000000  0.61694400  1
  Ba  Ba5  1  0.00000000  0.50000000  0.88305600  1
  Ba  Ba6  1  0.50000000  0.00000000  0.88305600  1
  Ba  Ba7  1  0.50000000  0.00000000  0.61694400  1
  Na  Na8  1  0.00000000  0.00000000  0.00000000  1
  Na  Na9  1  0.50000000  0.50000000  0.50000000  1
  Cu  Cu10  1  0.50000000  0.50000000  0.00000000  1
  Cu  Cu11  1  0.00000000  0.00000000  0.50000000  1
  C  C12  1  0.00000000  0.00000000  0.23352500  1
  C  C13  1  0.50000000  0.50000000  0.26647500  1
  C  C14  1  0.50000000  0.50000000  0.73352500  1
  C  C15  1  0.00000000  0.00000000  0.76647500  1
  O  O16  1  0.36396050  0.36396050  0.22663150  1
  O  O17  1  0.13603950  0.86396050  0.27336850  1
  O  O18  1  0.50000000  0.50000000  0.35037000  1
  O  O19  1  0.00000000  0.00000000  0.14963000  1
  O  O20  1  0.86396050  0.13603950  0.27336850  1
  O  O21  1  0.63603950  0.63603950  0.22663150  1
  O  O22  1  0.22334000  0.22334000  0.49721300  1
  O  O23  1  0.72334000  0.27666000  0.00278700  1
  O  O24  1  0.27666000  0.72334000  0.00278700  1
  O  O25  1  0.77666000  0.77666000  0.49721300  1
  O  O26  1  0.86396050  0.86396050  0.72663150  1
  O  O27  1  0.63603950  0.36396050  0.77336850  1
  O  O28  1  0.00000000  0.00000000  0.85037000  1
  O  O29  1  0.50000000  0.50000000  0.64963000  1
  O  O30  1  0.36396050  0.63603950  0.77336850  1
  O  O31  1  0.13603950  0.13603950  0.72663150  1
  O  O32  1  0.72334000  0.72334000  0.99721300  1
  O  O33  1  0.22334000  0.77666000  0.50278700  1
  O  O34  1  0.77666000  0.22334000  0.50278700  1
  O  O35  1  0.27666000  0.27666000  0.99721300  1
