# generated using pymatgen
data_Te(HO)6
_symmetry_space_group_name_H-M   'P 1'
_cell_length_a   7.40294800
_cell_length_b   7.78673800
_cell_length_c   8.90667600
_cell_angle_alpha   90.00000000
_cell_angle_beta   90.00000000
_cell_angle_gamma   90.00000000
_symmetry_Int_Tables_number   1
_chemical_formula_structural   Te(HO)6
_chemical_formula_sum   'Te4 H24 O24'
_cell_volume   513.42370368
_cell_formula_units_Z   4
loop_
 _symmetry_equiv_pos_site_id
 _symmetry_equiv_pos_as_xyz
  1  'x, y, z'
loop_
 _atom_site_type_symbol
 _atom_site_label
 _atom_site_symmetry_multiplicity
 _atom_site_fract_x
 _atom_site_fract_y
 _atom_site_fract_z
 _atom_site_occupancy
  Te  Te0  1  0.97589400  0.00000000  0.00000000  1
  Te  Te1  1  0.47589400  0.00000000  0.50000000  1
  Te  Te2  1  0.47589400  0.50000000  0.00000000  1
  Te  Te3  1  0.97589400  0.50000000  0.50000000  1
  H  H4  1  0.11544350  0.00000000  0.25678650  1
  H  H5  1  0.60370250  0.81649150  0.00000000  1
  H  H6  1  0.34223550  0.89074150  0.00000000  1
  H  H7  1  0.34223550  0.10925850  0.00000000  1
  H  H8  1  0.61544350  0.00000000  0.24321350  1
  H  H9  1  0.60370250  0.18350850  0.00000000  1
  H  H10  1  0.61544350  0.00000000  0.75678650  1
  H  H11  1  0.10370250  0.81649150  0.50000000  1
  H  H12  1  0.84223550  0.89074150  0.50000000  1
  H  H13  1  0.84223550  0.10925850  0.50000000  1
  H  H14  1  0.11544350  0.00000000  0.74321350  1
  H  H15  1  0.10370250  0.18350850  0.50000000  1
  H  H16  1  0.61544350  0.50000000  0.25678650  1
  H  H17  1  0.10370250  0.31649150  0.00000000  1
  H  H18  1  0.84223550  0.39074150  0.00000000  1
  H  H19  1  0.84223550  0.60925850  0.00000000  1
  H  H20  1  0.11544350  0.50000000  0.24321350  1
  H  H21  1  0.10370250  0.68350850  0.00000000  1
  H  H22  1  0.11544350  0.50000000  0.75678650  1
  H  H23  1  0.60370250  0.31649150  0.50000000  1
  H  H24  1  0.34223550  0.39074150  0.50000000  1
  H  H25  1  0.34223550  0.60925850  0.50000000  1
  H  H26  1  0.61544350  0.50000000  0.74321350  1
  H  H27  1  0.60370250  0.68350850  0.50000000  1
  O  O28  1  0.72690400  0.00000000  0.00000000  1
  O  O29  1  0.99108750  0.00000000  0.21735250  1
  O  O30  1  0.48613750  0.75211350  0.00000000  1
  O  O31  1  0.26183300  0.00000000  0.00000000  1
  O  O32  1  0.49108750  0.00000000  0.28264750  1
  O  O33  1  0.48613750  0.24788650  0.00000000  1
  O  O34  1  0.22690400  0.00000000  0.50000000  1
  O  O35  1  0.49108750  0.00000000  0.71735250  1
  O  O36  1  0.98613750  0.75211350  0.50000000  1
  O  O37  1  0.76183300  0.00000000  0.50000000  1
  O  O38  1  0.99108750  0.00000000  0.78264750  1
  O  O39  1  0.98613750  0.24788650  0.50000000  1
  O  O40  1  0.22690400  0.50000000  0.00000000  1
  O  O41  1  0.49108750  0.50000000  0.21735250  1
  O  O42  1  0.98613750  0.25211350  0.00000000  1
  O  O43  1  0.76183300  0.50000000  0.00000000  1
  O  O44  1  0.99108750  0.50000000  0.28264750  1
  O  O45  1  0.98613750  0.74788650  0.00000000  1
  O  O46  1  0.72690400  0.50000000  0.50000000  1
  O  O47  1  0.99108750  0.50000000  0.71735250  1
  O  O48  1  0.48613750  0.25211350  0.50000000  1
  O  O49  1  0.26183300  0.50000000  0.50000000  1
  O  O50  1  0.49108750  0.50000000  0.78264750  1
  O  O51  1  0.48613750  0.74788650  0.50000000  1
