# generated using pymatgen
data_Na2UF6
_symmetry_space_group_name_H-M   'P 1'
_cell_length_a   6.72665600
_cell_length_b   11.78111600
_cell_length_c   6.95055090
_cell_angle_alpha   90.00000000
_cell_angle_beta   109.04499242
_cell_angle_gamma   90.00000000
_symmetry_Int_Tables_number   1
_chemical_formula_structural   Na2UF6
_chemical_formula_sum   'Na8 U4 F24'
_cell_volume   520.66377887
_cell_formula_units_Z   4
loop_
 _symmetry_equiv_pos_site_id
 _symmetry_equiv_pos_as_xyz
  1  'x, y, z'
loop_
 _atom_site_type_symbol
 _atom_site_label
 _atom_site_symmetry_multiplicity
 _atom_site_fract_x
 _atom_site_fract_y
 _atom_site_fract_z
 _atom_site_occupancy
  Na  Na0  1  0.50000000  0.58323900  0.25000000  1
  Na  Na1  1  0.00000000  0.75470300  0.25000000  1
  Na  Na2  1  0.00000000  0.91676100  0.75000000  1
  Na  Na3  1  0.50000000  0.74529700  0.75000000  1
  Na  Na4  1  0.00000000  0.08323900  0.25000000  1
  Na  Na5  1  0.50000000  0.25470300  0.25000000  1
  Na  Na6  1  0.50000000  0.41676100  0.75000000  1
  Na  Na7  1  0.00000000  0.24529700  0.75000000  1
  U  U8  1  0.50000000  0.91010500  0.25000000  1
  U  U9  1  0.00000000  0.58989500  0.75000000  1
  U  U10  1  0.00000000  0.41010500  0.25000000  1
  U  U11  1  0.50000000  0.08989500  0.75000000  1
  F  F12  1  0.84814150  0.91827450  0.37119000  1
  F  F13  1  0.38790650  0.75816850  0.37546300  1
  F  F14  1  0.60683850  0.92380750  0.61570200  1
  F  F15  1  0.39316150  0.92380750  0.88429800  1
  F  F16  1  0.89316150  0.57619250  0.38429800  1
  F  F17  1  0.88790650  0.74183150  0.87546300  1
  F  F18  1  0.11209350  0.74183150  0.62453700  1
  F  F19  1  0.15185850  0.91827450  0.12881000  1
  F  F20  1  0.65185850  0.58172550  0.62881000  1
  F  F21  1  0.34814150  0.58172550  0.87119000  1
  F  F22  1  0.61209350  0.75816850  0.12453700  1
  F  F23  1  0.10683850  0.57619250  0.11570200  1
  F  F24  1  0.34814150  0.41827450  0.37119000  1
  F  F25  1  0.88790650  0.25816850  0.37546300  1
  F  F26  1  0.10683850  0.42380750  0.61570200  1
  F  F27  1  0.89316150  0.42380750  0.88429800  1
  F  F28  1  0.39316150  0.07619250  0.38429800  1
  F  F29  1  0.38790650  0.24183150  0.87546300  1
  F  F30  1  0.61209350  0.24183150  0.62453700  1
  F  F31  1  0.65185850  0.41827450  0.12881000  1
  F  F32  1  0.15185850  0.08172550  0.62881000  1
  F  F33  1  0.84814150  0.08172550  0.87119000  1
  F  F34  1  0.11209350  0.25816850  0.12453700  1
  F  F35  1  0.60683850  0.07619250  0.11570200  1
