# generated using pymatgen
data_TiH12C2(NF)6
_symmetry_space_group_name_H-M   'P 1'
_cell_length_a   12.97303800
_cell_length_b   7.44648200
_cell_length_c   6.31030373
_cell_angle_alpha   90.00000000
_cell_angle_beta   114.25557975
_cell_angle_gamma   90.00000000
_symmetry_Int_Tables_number   1
_chemical_formula_structural   TiH12C2(NF)6
_chemical_formula_sum   'Ti2 H24 C4 N12 F12'
_cell_volume   555.78337536
_cell_formula_units_Z   2
loop_
 _symmetry_equiv_pos_site_id
 _symmetry_equiv_pos_as_xyz
  1  'x, y, z'
loop_
 _atom_site_type_symbol
 _atom_site_label
 _atom_site_symmetry_multiplicity
 _atom_site_fract_x
 _atom_site_fract_y
 _atom_site_fract_z
 _atom_site_occupancy
  Ti  Ti0  1  0.06640100  0.00000000  0.58145900  1
  Ti  Ti1  1  0.56640100  0.50000000  0.58145900  1
  H  H2  1  0.21205000  0.83864800  0.30753600  1
  H  H3  1  0.21205000  0.16135200  0.30753600  1
  H  H4  1  0.33312600  0.72617400  0.32340100  1
  H  H5  1  0.33312600  0.27382600  0.32340100  1
  H  H6  1  0.48845450  0.88223650  0.33065800  1
  H  H7  1  0.48845450  0.11776350  0.33065800  1
  H  H8  1  0.14943300  0.61704900  0.86288600  1
  H  H9  1  0.14943300  0.38295100  0.86288600  1
  H  H10  1  0.30666200  0.77537100  0.85625600  1
  H  H11  1  0.30666200  0.22462900  0.85625600  1
  H  H12  1  0.42102350  0.65513450  0.84959500  1
  H  H13  1  0.42102350  0.34486550  0.84959500  1
  H  H14  1  0.71205000  0.33864800  0.30753600  1
  H  H15  1  0.71205000  0.66135200  0.30753600  1
  H  H16  1  0.83312600  0.22617400  0.32340100  1
  H  H17  1  0.83312600  0.77382600  0.32340100  1
  H  H18  1  0.98845450  0.38223650  0.33065800  1
  H  H19  1  0.98845450  0.61776350  0.33065800  1
  H  H20  1  0.64943300  0.11704900  0.86288600  1
  H  H21  1  0.64943300  0.88295100  0.86288600  1
  H  H22  1  0.80666200  0.27537100  0.85625600  1
  H  H23  1  0.80666200  0.72462900  0.85625600  1
  H  H24  1  0.92102350  0.15513450  0.84959500  1
  H  H25  1  0.92102350  0.84486550  0.84959500  1
  C  C26  1  0.29343000  0.50000000  0.86438900  1
  C  C27  1  0.34051400  0.00000000  0.30472000  1
  C  C28  1  0.79343000  0.00000000  0.86438900  1
  C  C29  1  0.84051400  0.50000000  0.30472000  1
  N  N30  1  0.28842400  0.84349000  0.29760200  1
  N  N31  1  0.28842400  0.15651000  0.29760200  1
  N  N32  1  0.44497100  0.00000000  0.31022400  1
  N  N33  1  0.19275200  0.50000000  0.87704200  1
  N  N34  1  0.34483850  0.65518050  0.86174500  1
  N  N35  1  0.34483850  0.34481950  0.86174500  1
  N  N36  1  0.78842400  0.34349000  0.29760200  1
  N  N37  1  0.78842400  0.65651000  0.29760200  1
  N  N38  1  0.94497100  0.50000000  0.31022400  1
  N  N39  1  0.69275200  0.00000000  0.87704200  1
  N  N40  1  0.84483850  0.15518050  0.86174500  1
  N  N41  1  0.84483850  0.84481950  0.86174500  1
  F  F42  1  0.22485300  0.00000000  0.75607800  1
  F  F43  1  0.40760000  0.50000000  0.40294000  1
  F  F44  1  0.08105450  0.18065250  0.38345900  1
  F  F45  1  0.08105450  0.81934750  0.38345900  1
  F  F46  1  0.04967400  0.17855900  0.77958600  1
  F  F47  1  0.04967400  0.82144100  0.77958600  1
  F  F48  1  0.72485300  0.50000000  0.75607800  1
  F  F49  1  0.90760000  0.00000000  0.40294000  1
  F  F50  1  0.58105450  0.68065250  0.38345900  1
  F  F51  1  0.58105450  0.31934750  0.38345900  1
  F  F52  1  0.54967400  0.67855900  0.77958600  1
  F  F53  1  0.54967400  0.32144100  0.77958600  1
