# generated using pymatgen
data_SiO2
_symmetry_space_group_name_H-M   'P 1'
_cell_length_a   7.58260700
_cell_length_b   9.39617300
_cell_length_c   10.03771200
_cell_angle_alpha   90.00000000
_cell_angle_beta   90.00000000
_cell_angle_gamma   90.00000000
_symmetry_Int_Tables_number   1
_chemical_formula_structural   SiO2
_chemical_formula_sum   'Si12 O24'
_cell_volume   715.16175687
_cell_formula_units_Z   12
loop_
 _symmetry_equiv_pos_site_id
 _symmetry_equiv_pos_as_xyz
  1  'x, y, z'
loop_
 _atom_site_type_symbol
 _atom_site_label
 _atom_site_symmetry_multiplicity
 _atom_site_fract_x
 _atom_site_fract_y
 _atom_site_fract_z
 _atom_site_occupancy
  Si  Si0  1  0.20560800  0.37074300  0.09526800  1
  Si  Si1  1  0.79439200  0.62925700  0.59526800  1
  Si  Si2  1  0.20560800  0.62925700  0.90473200  1
  Si  Si3  1  0.79439200  0.37074300  0.40473200  1
  Si  Si4  1  0.79439200  0.62925700  0.90473200  1
  Si  Si5  1  0.20560800  0.37074300  0.40473200  1
  Si  Si6  1  0.79439200  0.37074300  0.09526800  1
  Si  Si7  1  0.20560800  0.62925700  0.59526800  1
  Si  Si8  1  0.50000000  0.13755600  0.09512300  1
  Si  Si9  1  0.50000000  0.86244400  0.59512300  1
  Si  Si10  1  0.50000000  0.86244400  0.90487700  1
  Si  Si11  1  0.50000000  0.13755600  0.40487700  1
  O  O12  1  0.32346200  0.23060900  0.06446400  1
  O  O13  1  0.67653800  0.76939100  0.56446400  1
  O  O14  1  0.32346200  0.76939100  0.93553600  1
  O  O15  1  0.67653800  0.23060900  0.43553600  1
  O  O16  1  0.67653800  0.76939100  0.93553600  1
  O  O17  1  0.32346200  0.23060900  0.43553600  1
  O  O18  1  0.67653800  0.23060900  0.06446400  1
  O  O19  1  0.32346200  0.76939100  0.56446400  1
  O  O20  1  0.23016700  0.42055300  0.25000000  1
  O  O21  1  0.76983300  0.57944700  0.75000000  1
  O  O22  1  0.23016700  0.57944700  0.75000000  1
  O  O23  1  0.76983300  0.42055300  0.25000000  1
  O  O24  1  0.00000000  0.33221500  0.06473900  1
  O  O25  1  0.00000000  0.66778500  0.56473900  1
  O  O26  1  0.00000000  0.66778500  0.93526100  1
  O  O27  1  0.00000000  0.33221500  0.43526100  1
  O  O28  1  0.27081100  0.50000000  0.00000000  1
  O  O29  1  0.72918900  0.50000000  0.50000000  1
  O  O30  1  0.72918900  0.50000000  0.00000000  1
  O  O31  1  0.27081100  0.50000000  0.50000000  1
  O  O32  1  0.50000000  0.00000000  0.00000000  1
  O  O33  1  0.50000000  0.00000000  0.50000000  1
  O  O34  1  0.50000000  0.08546500  0.25000000  1
  O  O35  1  0.50000000  0.91453500  0.75000000  1
