# generated using pymatgen
data_Ca5B3O9F
_symmetry_space_group_name_H-M   'P 1'
_cell_length_a   8.19807000
_cell_length_b   16.23256400
_cell_length_c   3.57233613
_cell_angle_alpha   90.00000000
_cell_angle_beta   100.74174683
_cell_angle_gamma   90.00000000
_symmetry_Int_Tables_number   1
_chemical_formula_structural   Ca5B3O9F
_chemical_formula_sum   'Ca10 B6 O18 F2'
_cell_volume   467.06096003
_cell_formula_units_Z   2
loop_
 _symmetry_equiv_pos_site_id
 _symmetry_equiv_pos_as_xyz
  1  'x, y, z'
loop_
 _atom_site_type_symbol
 _atom_site_label
 _atom_site_symmetry_multiplicity
 _atom_site_fract_x
 _atom_site_fract_y
 _atom_site_fract_z
 _atom_site_occupancy
  Ca  Ca0  1  0.56016850  0.82214750  0.00395400  1
  Ca  Ca1  1  0.68332450  0.61816750  0.34785200  1
  Ca  Ca2  1  0.18332450  0.88183250  0.34785200  1
  Ca  Ca3  1  0.06016850  0.67785250  0.00395400  1
  Ca  Ca4  1  0.79305700  0.00000000  0.63674500  1
  Ca  Ca5  1  0.06016850  0.32214750  0.00395400  1
  Ca  Ca6  1  0.18332450  0.11816750  0.34785200  1
  Ca  Ca7  1  0.68332450  0.38183250  0.34785200  1
  Ca  Ca8  1  0.56016850  0.17785250  0.00395400  1
  Ca  Ca9  1  0.29305700  0.50000000  0.63674500  1
  B  B10  1  0.37680600  0.69641700  0.59319000  1
  B  B11  1  0.44052100  0.00000000  0.96432400  1
  B  B12  1  0.87680600  0.80358300  0.59319000  1
  B  B13  1  0.87680600  0.19641700  0.59319000  1
  B  B14  1  0.94052100  0.50000000  0.96432400  1
  B  B15  1  0.37680600  0.30358300  0.59319000  1
  O  O16  1  0.61246900  0.00000000  0.05113600  1
  O  O17  1  0.23934650  0.64570350  0.57877400  1
  O  O18  1  0.85410900  0.57406100  0.92013300  1
  O  O19  1  0.53192350  0.67327650  0.79450600  1
  O  O20  1  0.35410900  0.92593900  0.92013300  1
  O  O21  1  0.03192350  0.82672350  0.79450600  1
  O  O22  1  0.36460550  0.77238650  0.40996700  1
  O  O23  1  0.86460550  0.72761350  0.40996700  1
  O  O24  1  0.73934650  0.85429650  0.57877400  1
  O  O25  1  0.11246900  0.50000000  0.05113600  1
  O  O26  1  0.73934650  0.14570350  0.57877400  1
  O  O27  1  0.35410900  0.07406100  0.92013300  1
  O  O28  1  0.03192350  0.17327650  0.79450600  1
  O  O29  1  0.85410900  0.42593900  0.92013300  1
  O  O30  1  0.53192350  0.32672350  0.79450600  1
  O  O31  1  0.86460550  0.27238650  0.40996700  1
  O  O32  1  0.36460550  0.22761350  0.40996700  1
  O  O33  1  0.23934650  0.35429650  0.57877400  1
  F  F34  1  0.99978600  0.00000000  0.24864500  1
  F  F35  1  0.49978600  0.50000000  0.24864500  1
