# generated using pymatgen
data_NaNO3
_symmetry_space_group_name_H-M   'P 1'
_cell_length_a   5.12924200
_cell_length_b   6.47355893
_cell_length_c   17.70518524
_cell_angle_alpha   82.52805993
_cell_angle_beta   81.80349083
_cell_angle_gamma   66.88929430
_symmetry_Int_Tables_number   1
_chemical_formula_structural   NaNO3
_chemical_formula_sum   'Na8 N8 O24'
_cell_volume   533.41322944
_cell_formula_units_Z   8
loop_
 _symmetry_equiv_pos_site_id
 _symmetry_equiv_pos_as_xyz
  1  'x, y, z'
loop_
 _atom_site_type_symbol
 _atom_site_label
 _atom_site_symmetry_multiplicity
 _atom_site_fract_x
 _atom_site_fract_y
 _atom_site_fract_z
 _atom_site_occupancy
  Na  Na0  1  0.99336200  0.99640100  0.00054300  1
  Na  Na1  1  0.26710800  0.35141700  0.12612500  1
  Na  Na2  1  0.50320900  0.75256700  0.25000700  1
  Na  Na3  1  0.75005700  0.12470200  0.37529300  1
  Na  Na4  1  0.00020000  0.49975700  0.50039200  1
  Na  Na5  1  0.24956700  0.87523900  0.62539200  1
  Na  Na6  1  0.50117400  0.24911600  0.75035000  1
  Na  Na7  1  0.75745900  0.61767700  0.86847500  1
  N  N8  1  0.64403500  0.70757300  0.05003100  1
  N  N9  1  0.12586000  0.43742700  0.31253400  1
  N  N10  1  0.87462400  0.06268900  0.18833500  1
  N  N11  1  0.62510800  0.18753000  0.56238800  1
  N  N12  1  0.37508000  0.81243600  0.43742200  1
  N  N13  1  0.12961500  0.93874700  0.81097000  1
  N  N14  1  0.87547200  0.56238000  0.68700000  1
  N  N15  1  0.37530300  0.31186700  0.93726200  1
  O  O16  1  0.42929400  0.66855600  0.08149400  1
  O  O17  1  0.84642200  0.68280600  0.08872800  1
  O  O18  1  0.65467400  0.78081400  0.98024400  1
  O  O19  1  0.00358100  0.37656200  0.37355600  1
  O  O20  1  0.00209000  0.49740500  0.25159600  1
  O  O21  1  0.37337300  0.43827900  0.31200100  1
  O  O22  1  0.62556600  0.06473400  0.18972000  1
  O  O23  1  0.00335100  0.99679200  0.24824000  1
  O  O24  1  0.99261000  0.12713700  0.12718700  1
  O  O25  1  0.50163500  0.12669900  0.62326800  1
  O  O26  1  0.50150100  0.24852500  0.50146100  1
  O  O27  1  0.87256700  0.18746800  0.56232500  1
  O  O28  1  0.12775600  0.81248300  0.43735700  1
  O  O29  1  0.49859200  0.75168900  0.49825000  1
  O  O30  1  0.49868900  0.87338100  0.37643100  1
  O  O31  1  0.00746200  0.87739300  0.87181500  1
  O  O32  1  0.00428400  0.99993200  0.75029100  1
  O  O33  1  0.37717300  0.93875500  0.81062300  1
  O  O34  1  0.62792700  0.56254100  0.68738100  1
  O  O35  1  0.00042400  0.50066500  0.74770500  1
  O  O36  1  0.99832700  0.62363000  0.62616400  1
  O  O37  1  0.13018800  0.30747500  0.93716900  1
  O  O38  1  0.49842100  0.25367200  0.99815600  1
  O  O39  1  0.49670900  0.37500400  0.87639500  1
