# generated using pymatgen
data_Fe(HO)2
_symmetry_space_group_name_H-M   'P 1'
_cell_length_a   5.73917600
_cell_length_b   3.30172000
_cell_length_c   4.64823612
_cell_angle_alpha   90.00000000
_cell_angle_beta   95.31831787
_cell_angle_gamma   90.00000000
_symmetry_Int_Tables_number   1
_chemical_formula_structural   Fe(HO)2
_chemical_formula_sum   'Fe2 H4 O4'
_cell_volume   87.70095881
_cell_formula_units_Z   2
loop_
 _symmetry_equiv_pos_site_id
 _symmetry_equiv_pos_as_xyz
  1  'x, y, z'
loop_
 _atom_site_type_symbol
 _atom_site_label
 _atom_site_symmetry_multiplicity
 _atom_site_fract_x
 _atom_site_fract_y
 _atom_site_fract_z
 _atom_site_occupancy
  Fe  Fe0  1  0.00000000  0.03115800  0.00000000  1
  Fe  Fe1  1  0.50000000  0.53115800  0.00000000  1
  H  H2  1  0.70573250  0.12522350  0.42700000  1
  H  H3  1  0.79426750  0.62522350  0.57300000  1
  H  H4  1  0.20573250  0.62522350  0.42700000  1
  H  H5  1  0.29426750  0.12522350  0.57300000  1
  O  O6  1  0.69134200  0.03860500  0.22435400  1
  O  O7  1  0.80865800  0.53860500  0.77564600  1
  O  O8  1  0.19134200  0.53860500  0.22435400  1
  O  O9  1  0.30865800  0.03860500  0.77564600  1
