# generated using pymatgen
data_NaAl11O17
_symmetry_space_group_name_H-M   'P 1'
_cell_length_a   9.78444400
_cell_length_b   5.65011200
_cell_length_c   22.93213256
_cell_angle_alpha   90.00000000
_cell_angle_beta   98.09866567
_cell_angle_gamma   90.00000000
_symmetry_Int_Tables_number   1
_chemical_formula_structural   NaAl11O17
_chemical_formula_sum   'Na4 Al44 O68'
_cell_volume   1255.11830730
_cell_formula_units_Z   4
loop_
 _symmetry_equiv_pos_site_id
 _symmetry_equiv_pos_as_xyz
  1  'x, y, z'
loop_
 _atom_site_type_symbol
 _atom_site_label
 _atom_site_symmetry_multiplicity
 _atom_site_fract_x
 _atom_site_fract_y
 _atom_site_fract_z
 _atom_site_occupancy
  Na  Na0  1  0.91379200  0.00000000  0.74141200  1
  Na  Na1  1  0.36005900  0.00000000  0.24227100  1
  Na  Na2  1  0.41379200  0.50000000  0.74141200  1
  Na  Na3  1  0.86005900  0.50000000  0.24227100  1
  Al  Al4  1  0.99953100  0.00000000  0.99975900  1
  Al  Al5  1  0.54780400  0.74783700  0.39188700  1
  Al  Al6  1  0.50018600  0.00000000  0.49978300  1
  Al  Al7  1  0.79589400  0.00000000  0.89237800  1
  Al  Al8  1  0.54821200  0.75220300  0.89240900  1
  Al  Al9  1  0.54821200  0.24779700  0.89240900  1
  Al  Al10  1  0.67492700  0.00000000  0.02469000  1
  Al  Al11  1  0.72384000  0.00000000  0.17551000  1
  Al  Al12  1  0.77435700  0.00000000  0.32486800  1
  Al  Al13  1  0.29603100  0.00000000  0.39330700  1
  Al  Al14  1  0.54780400  0.25216300  0.39188700  1
  Al  Al15  1  0.82460600  0.00000000  0.47412300  1
  Al  Al16  1  0.17490300  0.00000000  0.52461700  1
  Al  Al17  1  0.45194000  0.74893800  0.60687200  1
  Al  Al18  1  0.70306900  0.00000000  0.60689000  1
  Al  Al19  1  0.22519600  0.00000000  0.67575700  1
  Al  Al20  1  0.27505100  0.00000000  0.82495300  1
  Al  Al21  1  0.32456300  0.00000000  0.97403100  1
  Al  Al22  1  0.45168450  0.75096350  0.10746300  1
  Al  Al23  1  0.45168450  0.24903650  0.10746300  1
  Al  Al24  1  0.20229300  0.00000000  0.10551400  1
  Al  Al25  1  0.45194000  0.25106200  0.60687200  1
  Al  Al26  1  0.49953100  0.50000000  0.99975900  1
  Al  Al27  1  0.04780400  0.24783700  0.39188700  1
  Al  Al28  1  0.00018600  0.50000000  0.49978300  1
  Al  Al29  1  0.29589400  0.50000000  0.89237800  1
  Al  Al30  1  0.04821200  0.25220300  0.89240900  1
  Al  Al31  1  0.04821200  0.74779700  0.89240900  1
  Al  Al32  1  0.17492700  0.50000000  0.02469000  1
  Al  Al33  1  0.22384000  0.50000000  0.17551000  1
  Al  Al34  1  0.27435700  0.50000000  0.32486800  1
  Al  Al35  1  0.79603100  0.50000000  0.39330700  1
  Al  Al36  1  0.04780400  0.75216300  0.39188700  1
  Al  Al37  1  0.32460600  0.50000000  0.47412300  1
  Al  Al38  1  0.67490300  0.50000000  0.52461700  1
  Al  Al39  1  0.95194000  0.24893800  0.60687200  1
  Al  Al40  1  0.20306900  0.50000000  0.60689000  1
  Al  Al41  1  0.72519600  0.50000000  0.67575700  1
  Al  Al42  1  0.77505100  0.50000000  0.82495300  1
  Al  Al43  1  0.82456300  0.50000000  0.97403100  1
  Al  Al44  1  0.95168450  0.25096350  0.10746300  1
  Al  Al45  1  0.95168450  0.74903650  0.10746300  1
  Al  Al46  1  0.70229300  0.50000000  0.10551400  1
  Al  Al47  1  0.95194000  0.75106200  0.60687200  1
  O  O48  1  0.59553200  0.76386900  0.55025000  1
  O  O49  1  0.54714900  0.00000000  0.64167200  1
  O  O50  1  0.70111750  0.75203450  0.85511100  1
  O  O51  1  0.64822900  0.00000000  0.94464700  1
  O  O52  1  0.85932200  0.00000000  0.05064900  1
  O  O53  1  0.59554050  0.73563650  0.05005600  1
  O  O54  1  0.59554050  0.26436350  0.05005600  1
  O  O55  1  0.29974700  0.75730400  0.14710200  1
  O  O56  1  0.54503100  0.00000000  0.14609900  1
  O  O57  1  0.04781200  0.00000000  0.14181000  1
  O  O58  1  0.75454500  0.00000000  0.25024900  1
  O  O59  1  0.95234500  0.00000000  0.35530000  1
  O  O60  1  0.70122050  0.74681950  0.35483300  1
  O  O61  1  0.70122050  0.25318050  0.35483300  1
  O  O62  1  0.40509850  0.76601350  0.44994400  1
  O  O63  1  0.63933900  0.00000000  0.44952900  1
  O  O64  1  0.14822600  0.00000000  0.44456100  1
  O  O65  1  0.85173800  0.00000000  0.55525500  1
  O  O66  1  0.35929100  0.00000000  0.55031300  1
  O  O67  1  0.59553200  0.23613100  0.55025000  1
  O  O68  1  0.30103800  0.74365900  0.64703700  1
  O  O69  1  0.04480300  0.00000000  0.64701700  1
  O  O70  1  0.30103800  0.25634100  0.64703700  1
  O  O71  1  0.25012000  0.00000000  0.75038200  1
  O  O72  1  0.95185200  0.00000000  0.85540000  1
  O  O73  1  0.45304100  0.00000000  0.85515000  1
  O  O74  1  0.70111750  0.24796550  0.85511100  1
  O  O75  1  0.40514400  0.73400100  0.94981400  1
  O  O76  1  0.40514400  0.26599900  0.94981400  1
  O  O77  1  0.13921700  0.00000000  0.94971200  1
  O  O78  1  0.35135400  0.00000000  0.05515500  1
  O  O79  1  0.29974700  0.24269600  0.14710200  1
  O  O80  1  0.45084400  0.00000000  0.35554200  1
  O  O81  1  0.40509850  0.23398650  0.44994400  1
  O  O82  1  0.09553200  0.26386900  0.55025000  1
  O  O83  1  0.04714900  0.50000000  0.64167200  1
  O  O84  1  0.20111750  0.25203450  0.85511100  1
  O  O85  1  0.14822900  0.50000000  0.94464700  1
  O  O86  1  0.35932200  0.50000000  0.05064900  1
  O  O87  1  0.09554050  0.23563650  0.05005600  1
  O  O88  1  0.09554050  0.76436350  0.05005600  1
  O  O89  1  0.79974700  0.25730400  0.14710200  1
  O  O90  1  0.04503100  0.50000000  0.14609900  1
  O  O91  1  0.54781200  0.50000000  0.14181000  1
  O  O92  1  0.25454500  0.50000000  0.25024900  1
  O  O93  1  0.45234500  0.50000000  0.35530000  1
  O  O94  1  0.20122050  0.24681950  0.35483300  1
  O  O95  1  0.20122050  0.75318050  0.35483300  1
  O  O96  1  0.90509850  0.26601350  0.44994400  1
  O  O97  1  0.13933900  0.50000000  0.44952900  1
  O  O98  1  0.64822600  0.50000000  0.44456100  1
  O  O99  1  0.35173800  0.50000000  0.55525500  1
  O  O100  1  0.85929100  0.50000000  0.55031300  1
  O  O101  1  0.09553200  0.73613100  0.55025000  1
  O  O102  1  0.80103800  0.24365900  0.64703700  1
  O  O103  1  0.54480300  0.50000000  0.64701700  1
  O  O104  1  0.80103800  0.75634100  0.64703700  1
  O  O105  1  0.75012000  0.50000000  0.75038200  1
  O  O106  1  0.45185200  0.50000000  0.85540000  1
  O  O107  1  0.95304100  0.50000000  0.85515000  1
  O  O108  1  0.20111750  0.74796550  0.85511100  1
  O  O109  1  0.90514400  0.23400100  0.94981400  1
  O  O110  1  0.90514400  0.76599900  0.94981400  1
  O  O111  1  0.63921700  0.50000000  0.94971200  1
  O  O112  1  0.85135400  0.50000000  0.05515500  1
  O  O113  1  0.79974700  0.74269600  0.14710200  1
  O  O114  1  0.95084400  0.50000000  0.35554200  1
  O  O115  1  0.90509850  0.73398650  0.44994400  1
