# generated using pymatgen
data_H5IO6
_symmetry_space_group_name_H-M   'P 1'
_cell_length_a   4.94318100
_cell_length_b   18.32211100
_cell_length_c   5.46381521
_cell_angle_alpha   90.00000000
_cell_angle_beta   111.94804931
_cell_angle_gamma   90.00000000
_symmetry_Int_Tables_number   1
_chemical_formula_structural   H5IO6
_chemical_formula_sum   'H20 I4 O24'
_cell_volume   458.98952626
_cell_formula_units_Z   4
loop_
 _symmetry_equiv_pos_site_id
 _symmetry_equiv_pos_as_xyz
  1  'x, y, z'
loop_
 _atom_site_type_symbol
 _atom_site_label
 _atom_site_symmetry_multiplicity
 _atom_site_fract_x
 _atom_site_fract_y
 _atom_site_fract_z
 _atom_site_occupancy
  H  H0  1  0.59044400  0.50825500  0.89249000  1
  H  H1  1  0.87002900  0.05663500  0.51531000  1
  H  H2  1  0.12997100  0.55663500  0.48469000  1
  H  H3  1  0.40955600  0.00825500  0.10751000  1
  H  H4  1  0.91939500  0.47227700  0.62555100  1
  H  H5  1  0.08060500  0.97227700  0.37444900  1
  H  H6  1  0.17639800  0.47616300  0.14754700  1
  H  H7  1  0.82360200  0.97616300  0.85245300  1
  H  H8  1  0.03939400  0.26091600  0.03168600  1
  H  H9  1  0.54182000  0.23984200  0.52494800  1
  H  H10  1  0.45818000  0.73984200  0.47505200  1
  H  H11  1  0.96060600  0.76091600  0.96831400  1
  H  H12  1  0.78136200  0.36543200  0.37820500  1
  H  H13  1  0.28413400  0.13103000  0.87471200  1
  H  H14  1  0.71586600  0.63103000  0.12528800  1
  H  H15  1  0.21863800  0.86543200  0.62179500  1
  H  H16  1  0.33274400  0.31342800  0.78906900  1
  H  H17  1  0.84527100  0.18929900  0.29760900  1
  H  H18  1  0.15472900  0.68929900  0.70239100  1
  H  H19  1  0.66725600  0.81342800  0.21093100  1
  I  I20  1  0.79166900  0.38107200  0.93888500  1
  I  I21  1  0.30919600  0.11865000  0.43026000  1
  I  I22  1  0.69080400  0.61865000  0.56974000  1
  I  I23  1  0.20833100  0.88107200  0.06111500  1
  O  O24  1  0.52665400  0.45510300  0.93700500  1
  O  O25  1  0.01744100  0.04364300  0.42734100  1
  O  O26  1  0.98255900  0.54364300  0.57265900  1
  O  O27  1  0.47334600  0.95510300  0.06299500  1
  O  O28  1  0.85059000  0.41658500  0.63591800  1
  O  O29  1  0.31053900  0.08050300  0.11591400  1
  O  O30  1  0.68946100  0.58050300  0.88408600  1
  O  O31  1  0.14941000  0.91658500  0.36408200  1
  O  O32  1  0.11364200  0.42980500  0.20206700  1
  O  O33  1  0.62142700  0.06454700  0.63580800  1
  O  O34  1  0.37857300  0.56454700  0.36419200  1
  O  O35  1  0.88635800  0.92980500  0.79793300  1
  O  O36  1  0.05229200  0.30390800  0.92211100  1
  O  O37  1  0.55536600  0.19951800  0.40768000  1
  O  O38  1  0.44463400  0.69951800  0.59232000  1
  O  O39  1  0.94770800  0.80390800  0.07788900  1
  O  O40  1  0.73959000  0.33135600  0.22200900  1
  O  O41  1  0.24887300  0.16625200  0.71914100  1
  O  O42  1  0.75112700  0.66625200  0.28085900  1
  O  O43  1  0.26041000  0.83135600  0.77799100  1
  O  O44  1  0.47882200  0.32168200  0.70442900  1
  O  O45  1  0.98560900  0.18091300  0.20762500  1
  O  O46  1  0.01439100  0.68091300  0.79237500  1
  O  O47  1  0.52117800  0.82168200  0.29557100  1
