# generated using pymatgen
data_TePb2O5
_symmetry_space_group_name_H-M   'P 1'
_cell_length_a   13.30519800
_cell_length_b   5.84027000
_cell_length_c   7.65945779
_cell_angle_alpha   90.00000000
_cell_angle_beta   124.05422348
_cell_angle_gamma   90.00000000
_symmetry_Int_Tables_number   1
_chemical_formula_structural   TePb2O5
_chemical_formula_sum   'Te4 Pb8 O20'
_cell_volume   493.11588954
_cell_formula_units_Z   4
loop_
 _symmetry_equiv_pos_site_id
 _symmetry_equiv_pos_as_xyz
  1  'x, y, z'
loop_
 _atom_site_type_symbol
 _atom_site_label
 _atom_site_symmetry_multiplicity
 _atom_site_fract_x
 _atom_site_fract_y
 _atom_site_fract_z
 _atom_site_occupancy
  Te  Te0  1  0.04879200  0.99574300  0.31250500  1
  Te  Te1  1  0.04879200  0.00425700  0.81250500  1
  Te  Te2  1  0.54879200  0.49574300  0.31250500  1
  Te  Te3  1  0.54879200  0.50425700  0.81250500  1
  Pb  Pb4  1  0.89314450  0.50309550  0.31841000  1
  Pb  Pb5  1  0.70853850  0.98446450  0.31904400  1
  Pb  Pb6  1  0.39314450  0.99690450  0.81841000  1
  Pb  Pb7  1  0.20853850  0.51553550  0.81904400  1
  Pb  Pb8  1  0.39314450  0.00309550  0.31841000  1
  Pb  Pb9  1  0.20853850  0.48446450  0.31904400  1
  Pb  Pb10  1  0.89314450  0.49690450  0.81841000  1
  Pb  Pb11  1  0.70853850  0.01553550  0.81904400  1
  O  O12  1  0.99123200  0.70637700  0.68207000  1
  O  O13  1  0.88372300  0.88446200  0.18520700  1
  O  O14  1  0.10420100  0.30190000  0.94136900  1
  O  O15  1  0.99123200  0.29362300  0.18207000  1
  O  O16  1  0.88372300  0.11553800  0.68520700  1
  O  O17  1  0.10420100  0.69810000  0.44136900  1
  O  O18  1  0.21438550  0.89246250  0.94594200  1
  O  O19  1  0.21438550  0.10753750  0.44594200  1
  O  O20  1  0.54821800  0.37133500  0.06151500  1
  O  O21  1  0.04821800  0.12866500  0.56151500  1
  O  O22  1  0.49123200  0.20637700  0.68207000  1
  O  O23  1  0.38372300  0.38446200  0.18520700  1
  O  O24  1  0.60420100  0.80190000  0.94136900  1
  O  O25  1  0.49123200  0.79362300  0.18207000  1
  O  O26  1  0.38372300  0.61553800  0.68520700  1
  O  O27  1  0.60420100  0.19810000  0.44136900  1
  O  O28  1  0.71438550  0.39246250  0.94594200  1
  O  O29  1  0.71438550  0.60753750  0.44594200  1
  O  O30  1  0.04821800  0.87133500  0.06151500  1
  O  O31  1  0.54821800  0.62866500  0.56151500  1
