# generated using pymatgen
data_Na2Ca4ZrNbSi4O17F
_symmetry_space_group_name_H-M   'P 1'
_cell_length_a   7.37812400
_cell_length_b   10.40147000
_cell_length_c   10.96446681
_cell_angle_alpha   90.00000000
_cell_angle_beta   108.91784268
_cell_angle_gamma   90.00000000
_symmetry_Int_Tables_number   1
_chemical_formula_structural   Na2Ca4ZrNbSi4O17F
_chemical_formula_sum   'Na4 Ca8 Zr2 Nb2 Si8 O34 F2'
_cell_volume   795.99837502
_cell_formula_units_Z   2
loop_
 _symmetry_equiv_pos_site_id
 _symmetry_equiv_pos_as_xyz
  1  'x, y, z'
loop_
 _atom_site_type_symbol
 _atom_site_label
 _atom_site_symmetry_multiplicity
 _atom_site_fract_x
 _atom_site_fract_y
 _atom_site_fract_z
 _atom_site_occupancy
  Na  Na0  1  0.68772700  0.93190100  0.12182300  1
  Na  Na1  1  0.31227300  0.43190100  0.87817700  1
  Na  Na2  1  0.55256100  0.08293400  0.36758800  1
  Na  Na3  1  0.44743900  0.58293400  0.63241200  1
  Ca  Ca4  1  0.69965600  0.31668000  0.15483100  1
  Ca  Ca5  1  0.05634200  0.08865300  0.36741100  1
  Ca  Ca6  1  0.79922700  0.81786100  0.85496300  1
  Ca  Ca7  1  0.20077300  0.31786100  0.14503700  1
  Ca  Ca8  1  0.94365800  0.58865300  0.63258900  1
  Ca  Ca9  1  0.30034400  0.81668000  0.84516900  1
  Ca  Ca10  1  0.55223600  0.70290200  0.34743900  1
  Ca  Ca11  1  0.44776400  0.20290200  0.65256100  1
  Zr  Zr12  1  0.94666600  0.20866800  0.65781400  1
  Zr  Zr13  1  0.05333400  0.70866800  0.34218600  1
  Nb  Nb14  1  0.19568100  0.94685600  0.13384900  1
  Nb  Nb15  1  0.80431900  0.44685600  0.86615100  1
  Si  Si16  1  0.19738200  0.62580400  0.07959900  1
  Si  Si17  1  0.80261800  0.12580400  0.92040100  1
  Si  Si18  1  0.63471400  0.63526700  0.07268500  1
  Si  Si19  1  0.36528600  0.13526700  0.92731500  1
  Si  Si20  1  0.56387200  0.38771900  0.43856800  1
  Si  Si21  1  0.43612800  0.88771900  0.56143200  1
  Si  Si22  1  0.12485700  0.38647800  0.43308600  1
  Si  Si23  1  0.87514300  0.88647800  0.56691400  1
  O  O24  1  0.36194000  0.37647100  0.47719700  1
  O  O25  1  0.63806000  0.87647100  0.52280300  1
  O  O26  1  0.57832700  0.10044800  0.91491400  1
  O  O27  1  0.42167300  0.60044800  0.08508600  1
  O  O28  1  0.77460300  0.60690500  0.78589200  1
  O  O29  1  0.22539700  0.10690500  0.21410800  1
  O  O30  1  0.56379200  0.37981400  0.77820500  1
  O  O31  1  0.43620800  0.87981400  0.22179500  1
  O  O32  1  0.95565700  0.38298600  0.75602800  1
  O  O33  1  0.04434300  0.88298600  0.24397200  1
  O  O34  1  0.97640800  0.82897900  0.71009900  1
  O  O35  1  0.02359200  0.32897900  0.28990100  1
  O  O36  1  0.79105300  0.12543800  0.76756600  1
  O  O37  1  0.51769100  0.36030800  0.28646100  1
  O  O38  1  0.09045200  0.28172000  0.53621700  1
  O  O39  1  0.48230900  0.86030800  0.71353900  1
  O  O40  1  0.68213000  0.26543000  0.52589800  1
  O  O41  1  0.31787000  0.76543000  0.47410200  1
  O  O42  1  0.92791800  0.03421400  0.54134200  1
  O  O43  1  0.07208200  0.53421400  0.45865800  1
  O  O44  1  0.34970400  0.02980600  0.51217400  1
  O  O45  1  0.65029600  0.52980600  0.48782600  1
  O  O46  1  0.22890300  0.16457200  0.77816800  1
  O  O47  1  0.77109700  0.66457200  0.22183200  1
  O  O48  1  0.12102700  0.76360400  0.00895800  1
  O  O49  1  0.87897300  0.26360400  0.99104200  1
  O  O50  1  0.61310400  0.75925600  0.98051400  1
  O  O51  1  0.38689600  0.25925600  0.01948600  1
  O  O52  1  0.08314600  0.49914300  0.00626200  1
  O  O53  1  0.91685400  0.99914300  0.99373800  1
  O  O54  1  0.70233900  0.50197400  0.02000800  1
  O  O55  1  0.29766100  0.00197400  0.97999200  1
  O  O56  1  0.20894700  0.62543800  0.23243400  1
  O  O57  1  0.90954800  0.78172000  0.46378300  1
  F  F58  1  0.74678700  0.11149800  0.24121400  1
  F  F59  1  0.25321300  0.61149800  0.75878600  1
