# generated using pymatgen
data_Th(InBr3)2
_symmetry_space_group_name_H-M   'P 1'
_cell_length_a   8.91022200
_cell_length_b   14.90524400
_cell_length_c   9.14380363
_cell_angle_alpha   90.00000000
_cell_angle_beta   91.00286167
_cell_angle_gamma   90.00000000
_symmetry_Int_Tables_number   1
_chemical_formula_structural   Th(InBr3)2
_chemical_formula_sum   'Th4 In8 Br24'
_cell_volume   1214.19370176
_cell_formula_units_Z   4
loop_
 _symmetry_equiv_pos_site_id
 _symmetry_equiv_pos_as_xyz
  1  'x, y, z'
loop_
 _atom_site_type_symbol
 _atom_site_label
 _atom_site_symmetry_multiplicity
 _atom_site_fract_x
 _atom_site_fract_y
 _atom_site_fract_z
 _atom_site_occupancy
  Th  Th0  1  0.50000000  0.43920100  0.75000000  1
  Th  Th1  1  0.50000000  0.56079900  0.25000000  1
  Th  Th2  1  0.00000000  0.93920100  0.75000000  1
  Th  Th3  1  0.00000000  0.06079900  0.25000000  1
  In  In4  1  0.48759400  0.15471400  0.99716300  1
  In  In5  1  0.48759400  0.84528600  0.49716300  1
  In  In6  1  0.51240600  0.84528600  0.00283700  1
  In  In7  1  0.51240600  0.15471400  0.50283700  1
  In  In8  1  0.98759400  0.65471400  0.99716300  1
  In  In9  1  0.98759400  0.34528600  0.49716300  1
  In  In10  1  0.01240600  0.34528600  0.00283700  1
  In  In11  1  0.01240600  0.65471400  0.50283700  1
  Br  Br12  1  0.69473350  0.99447550  0.26518700  1
  Br  Br13  1  0.30526650  0.00552450  0.73481300  1
  Br  Br14  1  0.51944300  0.61341600  0.94398300  1
  Br  Br15  1  0.48055700  0.38658400  0.05601700  1
  Br  Br16  1  0.30526650  0.99447550  0.23481300  1
  Br  Br17  1  0.48055700  0.61341600  0.55601700  1
  Br  Br18  1  0.70182750  0.27651750  0.76800200  1
  Br  Br19  1  0.70182750  0.72348250  0.26800200  1
  Br  Br20  1  0.29817250  0.72348250  0.23199800  1
  Br  Br21  1  0.51944300  0.38658400  0.44398300  1
  Br  Br22  1  0.29817250  0.27651750  0.73199800  1
  Br  Br23  1  0.69473350  0.00552450  0.76518700  1
  Br  Br24  1  0.19473350  0.49447550  0.26518700  1
  Br  Br25  1  0.80526650  0.50552450  0.73481300  1
  Br  Br26  1  0.01944300  0.11341600  0.94398300  1
  Br  Br27  1  0.98055700  0.88658400  0.05601700  1
  Br  Br28  1  0.80526650  0.49447550  0.23481300  1
  Br  Br29  1  0.98055700  0.11341600  0.55601700  1
  Br  Br30  1  0.20182750  0.77651750  0.76800200  1
  Br  Br31  1  0.20182750  0.22348250  0.26800200  1
  Br  Br32  1  0.79817250  0.22348250  0.23199800  1
  Br  Br33  1  0.01944300  0.88658400  0.44398300  1
  Br  Br34  1  0.79817250  0.77651750  0.73199800  1
  Br  Br35  1  0.19473350  0.50552450  0.76518700  1
