# generated using pymatgen
data_Si4H2O9
_symmetry_space_group_name_H-M   'P 1'
_cell_length_a   7.64665300
_cell_length_b   7.64908110
_cell_length_c   15.46907716
_cell_angle_alpha   104.26305162
_cell_angle_beta   104.26541145
_cell_angle_gamma   89.95757355
_symmetry_Int_Tables_number   1
_chemical_formula_structural   Si4H2O9
_chemical_formula_sum   'Si16 H8 O36'
_cell_volume   848.12094016
_cell_formula_units_Z   4
loop_
 _symmetry_equiv_pos_site_id
 _symmetry_equiv_pos_as_xyz
  1  'x, y, z'
loop_
 _atom_site_type_symbol
 _atom_site_label
 _atom_site_symmetry_multiplicity
 _atom_site_fract_x
 _atom_site_fract_y
 _atom_site_fract_z
 _atom_site_occupancy
  Si  Si0  1  0.45436500  0.54500400  0.50004800  1
  Si  Si1  1  0.04601300  0.95540500  0.49997200  1
  Si  Si2  1  0.20409400  0.79431600  0.99935800  1
  Si  Si3  1  0.79529600  0.20517000  0.99975600  1
  Si  Si4  1  0.45541600  0.95413800  0.49991300  1
  Si  Si5  1  0.04399800  0.54571400  0.49948900  1
  Si  Si6  1  0.20561900  0.20428700  0.00044500  1
  Si  Si7  1  0.79503200  0.79603700  0.00026300  1
  Si  Si8  1  0.82340500  0.12138200  0.64720500  1
  Si  Si9  1  0.82378600  0.52738000  0.64825000  1
  Si  Si10  1  0.42545200  0.22405700  0.85186100  1
  Si  Si11  1  0.42783400  0.62990600  0.85220300  1
  Si  Si12  1  0.87873100  0.17571200  0.35208700  1
  Si  Si13  1  0.47342800  0.17647400  0.35224500  1
  Si  Si14  1  0.77642000  0.57340900  0.14766100  1
  Si  Si15  1  0.37122500  0.57414500  0.14762200  1
  H  H16  1  0.97979400  0.00152000  0.75877100  1
  H  H17  1  0.80087300  0.78494900  0.75312700  1
  H  H18  1  0.45278900  0.96914300  0.74817500  1
  H  H19  1  0.28450000  0.72493900  0.72646800  1
  H  H20  1  0.01894500  0.20934500  0.24486700  1
  H  H21  1  0.22613100  0.03565400  0.24497900  1
  H  H22  1  0.02389600  0.71402000  0.25468300  1
  H  H23  1  0.23070300  0.54073600  0.25472200  1
  O  O24  1  0.86015300  0.04336200  0.73941100  1
  O  O25  1  0.88243500  0.68925200  0.74263600  1
  O  O26  1  0.36802000  0.06223500  0.75725900  1
  O  O27  1  0.40523800  0.70977500  0.76096200  1
  O  O28  1  0.95182900  0.11704700  0.25868600  1
  O  O29  1  0.30715600  0.14162500  0.25885900  1
  O  O30  1  0.94264800  0.60837400  0.24119100  1
  O  O31  1  0.29836000  0.63304000  0.24119200  1
  O  O32  1  0.30168300  0.71990300  0.08788200  1
  O  O33  1  0.78673900  0.36788500  0.08834400  1
  O  O34  1  0.46261200  0.38198300  0.41165500  1
  O  O35  1  0.94840900  0.02968900  0.41154800  1
  O  O36  1  0.30260200  0.36819500  0.08846500  1
  O  O37  1  0.78560800  0.71978500  0.08818600  1
  O  O38  1  0.46491300  0.03041300  0.41202000  1
  O  O39  1  0.94771600  0.38156000  0.41164400  1
  O  O40  1  0.27983100  0.69673900  0.91113000  1
  O  O41  1  0.63124700  0.21494000  0.91192100  1
  O  O42  1  0.61836300  0.53534400  0.58777000  1
  O  O43  1  0.96999600  0.05387600  0.58766000  1
  O  O44  1  0.27978000  0.21350600  0.91192300  1
  O  O45  1  0.63218700  0.69832400  0.91228300  1
  O  O46  1  0.61802900  0.05135700  0.58844000  1
  O  O47  1  0.97071000  0.53737100  0.58848100  1
  O  O48  1  0.66043000  0.16068100  0.32081400  1
  O  O49  1  0.58953900  0.58962700  0.17920700  1
  O  O50  1  0.83993600  0.33921200  0.67889300  1
  O  O51  1  0.40850300  0.41192500  0.82072900  1
  O  O52  1  0.98765600  0.22405100  0.97407100  1
  O  O53  1  0.98640000  0.74977300  0.97390800  1
  O  O54  1  0.26369400  0.99986400  0.52591900  1
  O  O55  1  0.26241800  0.52708000  0.52659900  1
  O  O56  1  0.77565400  0.01368400  0.02614000  1
  O  O57  1  0.25055200  0.01206000  0.02613500  1
  O  O58  1  0.99929700  0.73778500  0.47372700  1
  O  O59  1  0.47452900  0.73640800  0.47377300  1
