# generated using pymatgen
data_Li(MoO2)2
_symmetry_space_group_name_H-M   'P 1'
_cell_length_a   6.34292094
_cell_length_b   6.40124885
_cell_length_c   8.93117000
_cell_angle_alpha   90.00000000
_cell_angle_beta   90.00000000
_cell_angle_gamma   90.00000000
_symmetry_Int_Tables_number   1
_chemical_formula_structural   Li(MoO2)2
_chemical_formula_sum   'Li4 Mo8 O16'
_cell_volume   362.62886074
_cell_formula_units_Z   4
loop_
 _symmetry_equiv_pos_site_id
 _symmetry_equiv_pos_as_xyz
  1  'x, y, z'
loop_
 _atom_site_type_symbol
 _atom_site_label
 _atom_site_symmetry_multiplicity
 _atom_site_fract_x
 _atom_site_fract_y
 _atom_site_fract_z
 _atom_site_occupancy
  Li  Li0  1  0.50000000  0.75000000  0.11949000  1
  Li  Li1  1  0.00000000  0.75000000  0.38051000  1
  Li  Li2  1  0.00000000  0.25000000  0.61949000  1
  Li  Li3  1  0.50000000  0.25000000  0.88051000  1
  Mo  Mo4  1  0.75000000  0.75000000  0.75000000  1
  Mo  Mo5  1  0.50000000  0.50000000  0.50000000  1
  Mo  Mo6  1  0.25000000  0.75000000  0.75000000  1
  Mo  Mo7  1  0.00000000  0.50000000  0.00000000  1
  Mo  Mo8  1  0.25000000  0.25000000  0.25000000  1
  Mo  Mo9  1  0.00000000  0.00000000  0.00000000  1
  Mo  Mo10  1  0.75000000  0.25000000  0.25000000  1
  Mo  Mo11  1  0.50000000  0.00000000  0.50000000  1
  O  O12  1  0.50000000  0.52820300  0.74250400  1
  O  O13  1  0.26867850  0.75000000  0.51796150  1
  O  O14  1  0.00000000  0.97179700  0.75749600  1
  O  O15  1  0.00000000  0.52820300  0.75749600  1
  O  O16  1  0.23132150  0.75000000  0.98203850  1
  O  O17  1  0.76867850  0.75000000  0.98203850  1
  O  O18  1  0.50000000  0.97179700  0.74250400  1
  O  O19  1  0.73132150  0.75000000  0.51796150  1
  O  O20  1  0.00000000  0.02820300  0.24250400  1
  O  O21  1  0.76867850  0.25000000  0.01796150  1
  O  O22  1  0.50000000  0.47179700  0.25749600  1
  O  O23  1  0.50000000  0.02820300  0.25749600  1
  O  O24  1  0.73132150  0.25000000  0.48203850  1
  O  O25  1  0.26867850  0.25000000  0.48203850  1
  O  O26  1  0.00000000  0.47179700  0.24250400  1
  O  O27  1  0.23132150  0.25000000  0.01796150  1
