# generated using pymatgen
data_Cs2Re2S5
_symmetry_space_group_name_H-M   'P 1'
_cell_length_a   14.22947841
_cell_length_b   14.22947841
_cell_length_c   28.44983780
_cell_angle_alpha   90.00000000
_cell_angle_beta   90.00000000
_cell_angle_gamma   120.00000000
_symmetry_Int_Tables_number   1
_chemical_formula_structural   Cs2Re2S5
_chemical_formula_sum   'Cs36 Re36 S90'
_cell_volume   4988.71149080
_cell_formula_units_Z   18
loop_
 _symmetry_equiv_pos_site_id
 _symmetry_equiv_pos_as_xyz
  1  'x, y, z'
loop_
 _atom_site_type_symbol
 _atom_site_label
 _atom_site_symmetry_multiplicity
 _atom_site_fract_x
 _atom_site_fract_y
 _atom_site_fract_z
 _atom_site_occupancy
  Cs  Cs0  1  0.12950333  0.66003967  0.34125567  1
  Cs  Cs1  1  0.13613033  0.46283667  0.99207767  1
  Cs  Cs2  1  0.53053633  0.87049667  0.34125567  1
  Cs  Cs3  1  0.19720300  0.99337300  0.17458900  1
  Cs  Cs4  1  0.87049667  0.53053633  0.15874433  1
  Cs  Cs5  1  0.79617000  0.80279700  0.17458900  1
  Cs  Cs6  1  0.00662700  0.20383000  0.17458900  1
  Cs  Cs7  1  0.32670633  0.86386967  0.99207767  1
  Cs  Cs8  1  0.46946367  0.33996033  0.15874433  1
  Cs  Cs9  1  0.66003967  0.12950333  0.15874433  1
  Cs  Cs10  1  0.53716333  0.67329367  0.99207767  1
  Cs  Cs11  1  0.33996033  0.46946367  0.34125567  1
  Cs  Cs12  1  0.79617000  0.99337300  0.67458900  1
  Cs  Cs13  1  0.80279700  0.79617000  0.32541100  1
  Cs  Cs14  1  0.19720300  0.20383000  0.67458900  1
  Cs  Cs15  1  0.86386967  0.32670633  0.50792233  1
  Cs  Cs16  1  0.53716333  0.86386967  0.49207767  1
  Cs  Cs17  1  0.46283667  0.13613033  0.50792233  1
  Cs  Cs18  1  0.67329367  0.53716333  0.50792233  1
  Cs  Cs19  1  0.99337300  0.19720300  0.32541100  1
  Cs  Cs20  1  0.13613033  0.67329367  0.49207767  1
  Cs  Cs21  1  0.32670633  0.46283667  0.49207767  1
  Cs  Cs22  1  0.20383000  0.00662700  0.32541100  1
  Cs  Cs23  1  0.00662700  0.80279700  0.67458900  1
  Cs  Cs24  1  0.46283667  0.32670633  0.00792233  1
  Cs  Cs25  1  0.46946367  0.12950333  0.65874433  1
  Cs  Cs26  1  0.86386967  0.53716333  0.00792233  1
  Cs  Cs27  1  0.53053633  0.66003967  0.84125567  1
  Cs  Cs28  1  0.20383000  0.19720300  0.82541100  1
  Cs  Cs29  1  0.12950333  0.46946367  0.84125567  1
  Cs  Cs30  1  0.33996033  0.87049667  0.84125567  1
  Cs  Cs31  1  0.66003967  0.53053633  0.65874433  1
  Cs  Cs32  1  0.80279700  0.00662700  0.82541100  1
  Cs  Cs33  1  0.99337300  0.79617000  0.82541100  1
  Cs  Cs34  1  0.87049667  0.33996033  0.65874433  1
  Cs  Cs35  1  0.67329367  0.13613033  0.00792233  1
  Re  Re36  1  0.64796300  0.43034600  0.29540600  1
  Re  Re37  1  0.23632067  0.68537033  0.12873933  1
  Re  Re38  1  0.88428367  0.98129633  0.03792733  1
  Re  Re39  1  0.31462967  0.55095033  0.12873933  1
  Re  Re40  1  0.78238300  0.35203700  0.29540600  1
  Re  Re41  1  0.56965400  0.21761700  0.29540600  1
  Re  Re42  1  0.43034600  0.64796300  0.20459400  1
  Re  Re43  1  0.21761700  0.56965400  0.20459400  1
  Re  Re44  1  0.44904967  0.76367933  0.12873933  1
  Re  Re45  1  0.35203700  0.78238300  0.20459400  1
  Re  Re46  1  0.01870367  0.90298733  0.03792733  1
  Re  Re47  1  0.09701267  0.11571633  0.03792733  1
  Re  Re48  1  0.31462967  0.76367933  0.62873933  1
  Re  Re49  1  0.90298733  0.01870367  0.46207267  1
  Re  Re50  1  0.55095033  0.31462967  0.37126067  1
  Re  Re51  1  0.98129633  0.88428367  0.46207267  1
  Re  Re52  1  0.44904967  0.68537033  0.62873933  1
  Re  Re53  1  0.23632067  0.55095033  0.62873933  1
  Re  Re54  1  0.09701267  0.98129633  0.53792733  1
  Re  Re55  1  0.88428367  0.90298733  0.53792733  1
  Re  Re56  1  0.11571633  0.09701267  0.46207267  1
  Re  Re57  1  0.01870367  0.11571633  0.53792733  1
  Re  Re58  1  0.68537033  0.23632067  0.37126067  1
  Re  Re59  1  0.76367933  0.44904967  0.37126067  1
  Re  Re60  1  0.98129633  0.09701267  0.96207267  1
  Re  Re61  1  0.56965400  0.35203700  0.79540600  1
  Re  Re62  1  0.21761700  0.64796300  0.70459400  1
  Re  Re63  1  0.64796300  0.21761700  0.79540600  1
  Re  Re64  1  0.11571633  0.01870367  0.96207267  1
  Re  Re65  1  0.90298733  0.88428367  0.96207267  1
  Re  Re66  1  0.76367933  0.31462967  0.87126067  1
  Re  Re67  1  0.55095033  0.23632067  0.87126067  1
  Re  Re68  1  0.78238300  0.43034600  0.79540600  1
  Re  Re69  1  0.68537033  0.44904967  0.87126067  1
  Re  Re70  1  0.35203700  0.56965400  0.70459400  1
  Re  Re71  1  0.43034600  0.78238300  0.70459400  1
  S  S72  1  0.33333333  0.66666667  0.27103767  1
  S  S73  1  0.12069133  0.48837067  0.13213967  1
  S  S74  1  0.11460267  0.70071033  0.07077333  1
  S  S75  1  0.54597533  0.84496267  0.20119367  1
  S  S76  1  0.58610767  0.88539733  0.07077333  1
  S  S77  1  0.70101267  0.15503733  0.29880633  1
  S  S78  1  0.21264200  0.03434600  0.03452700  1
  S  S79  1  0.36767933  0.87930867  0.13213967  1
  S  S80  1  0.29928967  0.41389233  0.07077333  1
  S  S81  1  0.91944100  0.36737700  0.23744000  1
  S  S82  1  0.44793600  0.08055900  0.23744000  1
  S  S83  1  0.29898733  0.45402467  0.20119367  1
  S  S84  1  0.63262300  0.55206400  0.23744000  1
  S  S85  1  0.55206400  0.63262300  0.26256000  1
  S  S86  1  0.84496267  0.54597533  0.29880633  1
  S  S87  1  0.96565400  0.17829600  0.03452700  1
  S  S88  1  0.15503733  0.70101267  0.20119367  1
  S  S89  1  0.21873067  0.25277433  0.09589333  1
  S  S90  1  0.03404367  0.78126933  0.09589333  1
  S  S91  1  0.33333333  0.66666667  0.56229567  1
  S  S92  1  0.51162933  0.63232067  0.13213967  1
  S  S93  1  0.33333333  0.66666667  0.77103767  1
  S  S94  1  0.08055900  0.44793600  0.26256000  1
  S  S95  1  0.82170400  0.78735800  0.03452700  1
  S  S96  1  0.36737700  0.91944100  0.26256000  1
  S  S97  1  0.74722567  0.96595633  0.09589333  1
  S  S98  1  0.33333333  0.66666667  0.06229567  1
  S  S99  1  0.33333333  0.66666667  0.91666667  1
  S  S100  1  0.33333333  0.66666667  0.41666667  1
  S  S101  1  0.45402467  0.29898733  0.29880633  1
  S  S102  1  0.00000000  0.00000000  0.60437100  1
  S  S103  1  0.78735800  0.82170400  0.46547300  1
  S  S104  1  0.78126933  0.03404367  0.40410667  1
  S  S105  1  0.21264200  0.17829600  0.53452700  1
  S  S106  1  0.25277433  0.21873067  0.40410667  1
  S  S107  1  0.36767933  0.48837067  0.63213967  1
  S  S108  1  0.87930867  0.36767933  0.36786033  1
  S  S109  1  0.03434600  0.21264200  0.46547300  1
  S  S110  1  0.96595633  0.74722567  0.40410667  1
  S  S111  1  0.58610767  0.70071033  0.57077333  1
  S  S112  1  0.11460267  0.41389233  0.57077333  1
  S  S113  1  0.96565400  0.78735800  0.53452700  1
  S  S114  1  0.29928967  0.88539733  0.57077333  1
  S  S115  1  0.21873067  0.96595633  0.59589333  1
  S  S116  1  0.51162933  0.87930867  0.63213967  1
  S  S117  1  0.63232067  0.51162933  0.36786033  1
  S  S118  1  0.82170400  0.03434600  0.53452700  1
  S  S119  1  0.88539733  0.58610767  0.42922667  1
  S  S120  1  0.70071033  0.11460267  0.42922667  1
  S  S121  1  1.00000000  0.00000000  0.89562900  1
  S  S122  1  0.17829600  0.96565400  0.46547300  1
  S  S123  1  0.00000000  0.00000000  0.10437100  1
  S  S124  1  0.74722567  0.78126933  0.59589333  1
  S  S125  1  0.48837067  0.12069133  0.36786033  1
  S  S126  1  0.03404367  0.25277433  0.59589333  1
  S  S127  1  0.41389233  0.29928967  0.42922667  1
  S  S128  1  0.00000000  0.00000000  0.39562900  1
  S  S129  1  0.00000000  0.00000000  0.25000000  1
  S  S130  1  0.00000000  0.00000000  0.75000000  1
  S  S131  1  0.12069133  0.63232067  0.63213967  1
  S  S132  1  0.66666667  0.33333333  0.93770433  1
  S  S133  1  0.45402467  0.15503733  0.79880633  1
  S  S134  1  0.44793600  0.36737700  0.73744000  1
  S  S135  1  0.87930867  0.51162933  0.86786033  1
  S  S136  1  0.91944100  0.55206400  0.73744000  1
  S  S137  1  0.03434600  0.82170400  0.96547300  1
  S  S138  1  0.54597533  0.70101267  0.70119367  1
  S  S139  1  0.70101267  0.54597533  0.79880633  1
  S  S140  1  0.63262300  0.08055900  0.73744000  1
  S  S141  1  0.25277433  0.03404367  0.90410667  1
  S  S142  1  0.78126933  0.74722567  0.90410667  1
  S  S143  1  0.63232067  0.12069133  0.86786033  1
  S  S144  1  0.96595633  0.21873067  0.90410667  1
  S  S145  1  0.88539733  0.29928967  0.92922667  1
  S  S146  1  0.17829600  0.21264200  0.96547300  1
  S  S147  1  0.29898733  0.84496267  0.70119367  1
  S  S148  1  0.48837067  0.36767933  0.86786033  1
  S  S149  1  0.55206400  0.91944100  0.76256000  1
  S  S150  1  0.36737700  0.44793600  0.76256000  1
  S  S151  1  0.66666667  0.33333333  0.22896233  1
  S  S152  1  0.84496267  0.29898733  0.79880633  1
  S  S153  1  0.66666667  0.33333333  0.43770433  1
  S  S154  1  0.41389233  0.11460267  0.92922667  1
  S  S155  1  0.15503733  0.45402467  0.70119367  1
  S  S156  1  0.70071033  0.58610767  0.92922667  1
  S  S157  1  0.08055900  0.63262300  0.76256000  1
  S  S158  1  0.66666667  0.33333333  0.72896233  1
  S  S159  1  0.66666667  0.33333333  0.58333333  1
  S  S160  1  0.66666667  0.33333333  0.08333333  1
  S  S161  1  0.78735800  0.96565400  0.96547300  1
