# generated using pymatgen
data_Sr7PrFe4(MoO6)4
_symmetry_space_group_name_H-M   'P 1'
_cell_length_a   5.61864731
_cell_length_b   5.68186258
_cell_length_c   18.79492101
_cell_angle_alpha   97.92251483
_cell_angle_beta   89.96095912
_cell_angle_gamma   119.60197190
_symmetry_Int_Tables_number   1
_chemical_formula_structural   Sr7PrFe4(MoO6)4
_chemical_formula_sum   'Sr7 Pr1 Fe4 Mo4 O24'
_cell_volume   515.13623163
_cell_formula_units_Z   1
loop_
 _symmetry_equiv_pos_site_id
 _symmetry_equiv_pos_as_xyz
  1  'x, y, z'
loop_
 _atom_site_type_symbol
 _atom_site_label
 _atom_site_symmetry_multiplicity
 _atom_site_fract_x
 _atom_site_fract_y
 _atom_site_fract_z
 _atom_site_occupancy
  Sr  Sr0  1  0.06352378  0.93638108  0.19163335  1
  Sr  Sr1  1  0.81380831  0.18591933  0.43679629  1
  Sr  Sr2  1  0.56593262  0.44233363  0.69103464  1
  Sr  Sr3  1  0.30932318  0.68692068  0.92993289  1
  Sr  Sr4  1  0.43234900  0.56213376  0.31185938  1
  Sr  Sr5  1  0.69361842  0.31509441  0.06650102  1
  Sr  Sr6  1  0.18757729  0.81157437  0.56135484  1
  Pr  Pr7  1  0.93985061  0.06440566  0.80969294  1
  Fe  Fe8  1  0.75478911  0.25164822  0.25054337  1
  Fe  Fe9  1  0.49621900  0.49996004  0.50045513  1
  Fe  Fe10  1  0.24979941  0.74784179  0.75215264  1
  Fe  Fe11  1  0.62565519  0.37848612  0.87072898  1
  Mo  Mo12  1  0.00238553  0.00340509  0.99633010  1
  Mo  Mo13  1  0.37646336  0.62668639  0.12555026  1
  Mo  Mo14  1  0.12398955  0.87369266  0.37623134  1
  Mo  Mo15  1  0.87545301  0.12449153  0.62512031  1
  O  O16  1  0.18665223  0.32031495  0.05879196  1
  O  O17  1  0.92763528  0.55999925  0.31390108  1
  O  O18  1  0.69320101  0.80892273  0.56398184  1
  O  O19  1  0.44533060  0.06196029  0.81231889  1
  O  O20  1  0.60740358  0.46239596  0.17721392  1
  O  O21  1  0.36592142  0.71696345  0.42849746  1
  O  O22  1  0.10927635  0.97760213  0.67654204  1
  O  O23  1  0.87207697  0.21549137  0.91934668  1
  O  O24  1  0.67180887  0.85607303  0.04693511  1
  O  O25  1  0.39781812  0.08038098  0.30672956  1
  O  O26  1  0.15761618  0.34120185  0.55246059  1
  O  O27  1  0.90635182  0.62710777  0.80161378  1
  O  O28  1  0.55676356  0.93676911  0.18726420  1
  O  O29  1  0.32071382  0.18604975  0.43958585  1
  O  O30  1  0.05338094  0.43080892  0.69074794  1
  O  O31  1  0.81302960  0.69320748  0.93422035  1
  O  O32  1  0.08835939  0.39816407  0.20019626  1
  O  O33  1  0.85369759  0.66316553  0.44767610  1
  O  O34  1  0.60392568  0.90878768  0.70233633  1
  O  O35  1  0.33980584  0.15244856  0.94963080  1
  O  O36  1  0.13387329  0.78531454  0.07232453  1
  O  O37  1  0.88265969  0.02799194  0.32397042  1
  O  O38  1  0.64779099  0.27725874  0.57533894  1
  O  O39  1  0.35416980  0.50064512  0.82245790  1
