# generated using pymatgen
data_Dy2TiO5
_symmetry_space_group_name_H-M   'P 1'
_cell_length_a   7.15901500
_cell_length_b   7.28260197
_cell_length_c   12.69776834
_cell_angle_alpha   91.20537316
_cell_angle_beta   105.70692876
_cell_angle_gamma   119.15202053
_symmetry_Int_Tables_number   1
_chemical_formula_structural   Dy2TiO5
_chemical_formula_sum   'Dy10 Ti5 O25'
_cell_volume   547.28488115
_cell_formula_units_Z   5
loop_
 _symmetry_equiv_pos_site_id
 _symmetry_equiv_pos_as_xyz
  1  'x, y, z'
loop_
 _atom_site_type_symbol
 _atom_site_label
 _atom_site_symmetry_multiplicity
 _atom_site_fract_x
 _atom_site_fract_y
 _atom_site_fract_z
 _atom_site_occupancy
  Dy  Dy0  1  0.99072100  0.02607800  0.97970500  1
  Dy  Dy1  1  0.46586600  0.48542700  0.99222900  1
  Dy  Dy2  1  0.49917200  0.25477000  0.23652200  1
  Dy  Dy3  1  0.48695500  0.99673800  0.99047000  1
  Dy  Dy4  1  0.99444500  0.52196600  0.52705300  1
  Dy  Dy5  1  0.51861900  0.01402800  0.52193000  1
  Dy  Dy6  1  0.49402500  0.72244900  0.75084700  1
  Dy  Dy7  1  0.47326800  0.49715700  0.48165600  1
  Dy  Dy8  1  0.59302100  0.76372800  0.24993700  1
  Dy  Dy9  1  0.00597500  0.51020300  0.01341000  1
  Ti  Ti10  1  0.02648700  0.21049300  0.24151000  1
  Ti  Ti11  1  0.99062600  0.24808300  0.73885600  1
  Ti  Ti12  1  0.01728900  0.98683500  0.49887400  1
  Ti  Ti13  1  0.01034600  0.76793800  0.75810300  1
  Ti  Ti14  1  0.50717000  0.26639400  0.75584000  1
  O  O15  1  0.35352000  0.17227200  0.05321300  1
  O  O16  1  0.90048100  0.21841000  0.08446200  1
  O  O17  1  0.36852900  0.68103800  0.56775400  1
  O  O18  1  0.32454900  0.45651100  0.28502900  1
  O  O19  1  0.37422500  0.70697100  0.08051000  1
  O  O20  1  0.65570600  0.83419200  0.43141000  1
  O  O21  1  0.69852800  0.10289400  0.22871800  1
  O  O22  1  0.92534900  0.18292100  0.58669400  1
  O  O23  1  0.90521700  0.96402800  0.78123900  1
  O  O24  1  0.91278600  0.75368400  0.59216300  1
  O  O25  1  0.67411000  0.55369300  0.17778600  1
  O  O26  1  0.31471800  0.36750200  0.78173000  1
  O  O27  1  0.07740800  0.21311000  0.40337200  1
  O  O28  1  0.32817700  0.95794000  0.79271500  1
  O  O29  1  0.09070500  0.81686000  0.43171600  1
  O  O30  1  0.09877400  0.02520300  0.19978100  1
  O  O31  1  0.32316900  0.16583600  0.59056900  1
  O  O32  1  0.67577200  0.53880600  0.72340400  1
  O  O33  1  0.64125000  0.33801200  0.91776900  1
  O  O34  1  0.66793000  0.14180900  0.70974900  1
  O  O35  1  0.61990000  0.30687900  0.43406500  1
  O  O36  1  0.06652500  0.77170800  0.91756300  1
  O  O37  1  0.08379000  0.33281000  0.91514300  1
  O  O38  1  0.07613300  0.54493300  0.71666200  1
  O  O39  1  0.62276500  0.79868900  0.93284000  1
