# generated using pymatgen
data_BaLaZnRuO6
_symmetry_space_group_name_H-M   'P 1'
_cell_length_a   5.65763200
_cell_length_b   5.65763200
_cell_length_c   8.23313200
_cell_angle_alpha   90.00000000
_cell_angle_beta   90.00000000
_cell_angle_gamma   90.00000000
_symmetry_Int_Tables_number   1
_chemical_formula_structural   BaLaZnRuO6
_chemical_formula_sum   'Ba2 La2 Zn2 Ru2 O12'
_cell_volume   263.53267431
_cell_formula_units_Z   2
loop_
 _symmetry_equiv_pos_site_id
 _symmetry_equiv_pos_as_xyz
  1  'x, y, z'
loop_
 _atom_site_type_symbol
 _atom_site_label
 _atom_site_symmetry_multiplicity
 _atom_site_fract_x
 _atom_site_fract_y
 _atom_site_fract_z
 _atom_site_occupancy
  Ba  Ba0  1  0.50000000  0.50000000  0.00000000  1
  Ba  Ba1  1  0.00000000  0.00000000  0.50000000  1
  La  La2  1  0.00000000  0.00000000  0.00000000  1
  La  La3  1  0.50000000  0.50000000  0.50000000  1
  Zn  Zn4  1  0.00000000  0.50000000  0.25000000  1
  Zn  Zn5  1  0.50000000  0.00000000  0.75000000  1
  Ru  Ru6  1  0.50000000  0.00000000  0.25000000  1
  Ru  Ru7  1  0.00000000  0.50000000  0.75000000  1
  O  O8  1  0.50000000  0.00000000  0.00739900  1
  O  O9  1  0.69079150  0.70634350  0.27000350  1
  O  O10  1  0.20634350  0.80920850  0.22999650  1
  O  O11  1  0.50000000  0.00000000  0.49260100  1
  O  O12  1  0.79365650  0.19079150  0.22999650  1
  O  O13  1  0.30920850  0.29365650  0.27000350  1
  O  O14  1  0.00000000  0.50000000  0.50739900  1
  O  O15  1  0.19079150  0.20634350  0.77000350  1
  O  O16  1  0.70634350  0.30920850  0.72999650  1
  O  O17  1  0.00000000  0.50000000  0.99260100  1
  O  O18  1  0.29365650  0.69079150  0.72999650  1
  O  O19  1  0.80920850  0.79365650  0.77000350  1
