# generated using pymatgen
data_NaLa2Ti2MnO9
_symmetry_space_group_name_H-M   'P 1'
_cell_length_a   9.56773600
_cell_length_b   5.55890200
_cell_length_c   13.59577483
_cell_angle_alpha   90.00000000
_cell_angle_beta   90.29139870
_cell_angle_gamma   90.00000000
_symmetry_Int_Tables_number   1
_chemical_formula_structural   NaLa2Ti2MnO9
_chemical_formula_sum   'Na4 La8 Ti8 Mn4 O36'
_cell_volume   723.09698023
_cell_formula_units_Z   4
loop_
 _symmetry_equiv_pos_site_id
 _symmetry_equiv_pos_as_xyz
  1  'x, y, z'
loop_
 _atom_site_type_symbol
 _atom_site_label
 _atom_site_symmetry_multiplicity
 _atom_site_fract_x
 _atom_site_fract_y
 _atom_site_fract_z
 _atom_site_occupancy
  Na  Na0  1  0.66614700  0.00014300  0.66543300  1
  Na  Na1  1  0.33385300  0.00014300  0.33456700  1
  Na  Na2  1  0.16614700  0.50014300  0.66543300  1
  Na  Na3  1  0.83385300  0.50014300  0.33456700  1
  La  La4  1  0.50000000  0.49886200  0.00000000  1
  La  La5  1  0.50000000  0.49925200  0.50000000  1
  La  La6  1  0.66469350  0.99881550  0.16875900  1
  La  La7  1  0.33530650  0.99881550  0.83124100  1
  La  La8  1  0.00000000  0.99886200  0.00000000  1
  La  La9  1  0.00000000  0.99925200  0.50000000  1
  La  La10  1  0.16469350  0.49881550  0.16875900  1
  La  La11  1  0.83530650  0.49881550  0.83124100  1
  Ti  Ti12  1  0.50261800  0.49369800  0.74732000  1
  Ti  Ti13  1  0.66779350  0.99447650  0.41692400  1
  Ti  Ti14  1  0.33220650  0.99447650  0.58307600  1
  Ti  Ti15  1  0.49738200  0.49369800  0.25268000  1
  Ti  Ti16  1  0.00261800  0.99369800  0.74732000  1
  Ti  Ti17  1  0.16779350  0.49447650  0.41692400  1
  Ti  Ti18  1  0.83220650  0.49447650  0.58307600  1
  Ti  Ti19  1  0.99738200  0.99369800  0.25268000  1
  Mn  Mn20  1  0.33242300  0.00238300  0.08587200  1
  Mn  Mn21  1  0.66757700  0.00238300  0.91412800  1
  Mn  Mn22  1  0.83242300  0.50238300  0.08587200  1
  Mn  Mn23  1  0.16757700  0.50238300  0.91412800  1
  O  O24  1  0.42590400  0.28286900  0.64572700  1
  O  O25  1  0.50000000  0.94052300  0.50000000  1
  O  O26  1  0.25901800  0.22650100  0.48173000  1
  O  O27  1  0.40673350  0.78361050  0.68609400  1
  O  O28  1  0.59326650  0.78361050  0.31390600  1
  O  O29  1  0.16738350  0.05752450  0.66544700  1
  O  O30  1  0.15681350  0.93165350  0.16315700  1
  O  O31  1  0.74098200  0.22650100  0.51827000  1
  O  O32  1  0.43082950  0.71609850  0.14665000  1
  O  O33  1  0.57409600  0.28286900  0.35427300  1
  O  O34  1  0.26146350  0.77969750  0.97955400  1
  O  O35  1  0.83261650  0.05752450  0.33455300  1
  O  O36  1  0.84318650  0.93165350  0.83684300  1
  O  O37  1  0.40469600  0.23361100  0.18719200  1
  O  O38  1  0.59530400  0.23361100  0.81280800  1
  O  O39  1  0.73853650  0.77969750  0.02044600  1
  O  O40  1  0.50000000  0.05920100  0.00000000  1
  O  O41  1  0.56917050  0.71609850  0.85335000  1
  O  O42  1  0.92590400  0.78286900  0.64572700  1
  O  O43  1  0.00000000  0.44052300  0.50000000  1
  O  O44  1  0.75901800  0.72650100  0.48173000  1
  O  O45  1  0.90673350  0.28361050  0.68609400  1
  O  O46  1  0.09326650  0.28361050  0.31390600  1
  O  O47  1  0.66738350  0.55752450  0.66544700  1
  O  O48  1  0.65681350  0.43165350  0.16315700  1
  O  O49  1  0.24098200  0.72650100  0.51827000  1
  O  O50  1  0.93082950  0.21609850  0.14665000  1
  O  O51  1  0.07409600  0.78286900  0.35427300  1
  O  O52  1  0.76146350  0.27969750  0.97955400  1
  O  O53  1  0.33261650  0.55752450  0.33455300  1
  O  O54  1  0.34318650  0.43165350  0.83684300  1
  O  O55  1  0.90469600  0.73361100  0.18719200  1
  O  O56  1  0.09530400  0.73361100  0.81280800  1
  O  O57  1  0.23853650  0.27969750  0.02044600  1
  O  O58  1  0.00000000  0.55920100  0.00000000  1
  O  O59  1  0.06917050  0.21609850  0.85335000  1
