# generated using pymatgen
data_Na7Al11Si13(AgO12)4
_symmetry_space_group_name_H-M   'P 1'
_cell_length_a   12.20596600
_cell_length_b   12.38065856
_cell_length_c   12.45929423
_cell_angle_alpha   89.51564007
_cell_angle_beta   89.85749727
_cell_angle_gamma   88.26245423
_symmetry_Int_Tables_number   1
_chemical_formula_structural   Na7Al11Si13(AgO12)4
_chemical_formula_sum   'Na7 Al11 Si13 Ag4 O48'
_cell_volume   1881.88470229
_cell_formula_units_Z   1
loop_
 _symmetry_equiv_pos_site_id
 _symmetry_equiv_pos_as_xyz
  1  'x, y, z'
loop_
 _atom_site_type_symbol
 _atom_site_label
 _atom_site_symmetry_multiplicity
 _atom_site_fract_x
 _atom_site_fract_y
 _atom_site_fract_z
 _atom_site_occupancy
  Na  Na0  1  0.47769800  0.70842500  0.00094500  1
  Na  Na1  1  0.86671100  0.59424700  0.61620300  1
  Na  Na2  1  0.87803200  0.58258500  0.37357900  1
  Na  Na3  1  0.72345600  0.25560900  0.04076700  1
  Na  Na4  1  0.31008700  0.49855900  0.99716100  1
  Na  Na5  1  0.09076200  0.34902400  0.76978300  1
  Na  Na6  1  0.06971600  0.34637600  0.20852800  1
  Al  Al7  1  0.70747700  0.77373800  0.00059300  1
  Al  Al8  1  0.87334000  0.76211600  0.18118600  1
  Al  Al9  1  0.07641800  0.75069900  0.99546200  1
  Al  Al10  1  0.86880700  0.50002600  0.82070300  1
  Al  Al11  1  0.66826800  0.50258400  0.99990100  1
  Al  Al12  1  0.85500200  0.49174000  0.17096300  1
  Al  Al13  1  0.06523600  0.50745600  0.99387200  1
  Al  Al14  1  0.87430100  0.30878400  0.62659900  1
  Al  Al15  1  0.87809700  0.30221000  0.37053700  1
  Al  Al16  1  0.49609900  0.30932000  0.99833500  1
  Al  Al17  1  0.22430700  0.27930900  0.00292300  1
  Si  Si18  1  0.50474700  0.13230400  0.81256800  1
  Si  Si19  1  0.68900800  0.11938700  0.62689200  1
  Si  Si20  1  0.69046000  0.11665900  0.37427300  1
  Si  Si21  1  0.24493800  0.12250800  0.81311700  1
  Si  Si22  1  0.50962500  0.12682900  0.18397600  1
  Si  Si23  1  0.06117300  0.11659700  0.63199200  1
  Si  Si24  1  0.24700300  0.11530900  0.19083400  1
  Si  Si25  1  0.06530400  0.11211800  0.37534500  1
  Si  Si26  1  0.88131800  0.93347200  0.37818600  1
  Si  Si27  1  0.25751800  0.94215000  0.00064400  1
  Si  Si28  1  0.88007900  0.94024000  0.63266500  1
  Si  Si29  1  0.51084600  0.95360500  0.99785900  1
  Si  Si30  1  0.88131800  0.76180400  0.81820400  1
  Ag  Ag31  1  0.06406500  0.92362700  0.18548400  1
  Ag  Ag32  1  0.65260200  0.35363300  0.24825500  1
  Ag  Ag33  1  0.67364100  0.33886900  0.78626200  1
  Ag  Ag34  1  0.94929700  0.32126300  0.97688700  1
  O  O35  1  0.57786800  0.11864500  0.70232600  1
  O  O36  1  0.64945000  0.11784600  0.50015100  1
  O  O37  1  0.37387200  0.14478300  0.78098800  1
  O  O38  1  0.58174600  0.11365000  0.29541900  1
  O  O39  1  0.17508400  0.10547700  0.70256800  1
  O  O40  1  0.37793200  0.13347200  0.21503300  1
  O  O41  1  0.77369400  0.01302400  0.35375100  1
  O  O42  1  0.24137100  0.01870200  0.89428800  1
  O  O43  1  0.76701900  0.01265600  0.65309700  1
  O  O44  1  0.52441900  0.02760700  0.88978000  1
  O  O45  1  0.23204600  0.00632700  0.11667500  1
  O  O46  1  0.99300700  0.00409700  0.34814700  1
  O  O47  1  0.53399300  0.02325200  0.10702300  1
  O  O48  1  0.98564600  0.01340000  0.66044400  1
  O  O49  1  0.88559700  0.90555200  0.50612700  1
  O  O50  1  0.38669200  0.90529100  0.00634200  1
  O  O51  1  0.88507500  0.82718600  0.69879700  1
  O  O52  1  0.58226000  0.84689400  0.98720700  1
  O  O53  1  0.18712000  0.83783700  0.99577800  1
  O  O54  1  0.88716400  0.82215000  0.31381700  1
  O  O55  1  0.77834400  0.80812800  0.88366000  1
  O  O56  1  0.76582300  0.82228500  0.11469200  1
  O  O57  1  0.99795800  0.76810900  0.87841300  1
  O  O58  1  0.00108600  0.77841200  0.11418600  1
  O  O59  1  0.65379200  0.64119700  0.00048800  1
  O  O60  1  0.85263900  0.62516200  0.21003500  1
  O  O61  1  0.85835400  0.63646400  0.78136300  1
  O  O62  1  0.14169300  0.62185300  0.00072100  1
  O  O63  1  0.76145200  0.44865800  0.89997900  1
  O  O64  1  0.73511200  0.43837600  0.11325800  1
  O  O65  1  0.00047200  0.47331800  0.87185700  1
  O  O66  1  0.96986700  0.46266000  0.09130800  1
  O  O67  1  0.86862400  0.42806800  0.69999900  1
  O  O68  1  0.53961800  0.44137500  0.99167000  1
  O  O69  1  0.15964900  0.40221300  0.01079800  1
  O  O70  1  0.88247900  0.41557900  0.28826800  1
  O  O71  1  0.88048200  0.35497100  0.49697800  1
  O  O72  1  0.35909900  0.30609400  0.00283500  1
  O  O73  1  0.75593900  0.22673300  0.34549900  1
  O  O74  1  0.75606100  0.22846800  0.65284700  1
  O  O75  1  0.54690000  0.23673700  0.88111000  1
  O  O76  1  0.18670100  0.22378000  0.87684900  1
  O  O77  1  0.54988500  0.23565700  0.11805900  1
  O  O78  1  0.18794100  0.21475300  0.12603600  1
  O  O79  1  0.99641600  0.22985700  0.66159400  1
  O  O80  1  0.99745600  0.22006600  0.33708800  1
  O  O81  1  0.17996300  0.09725200  0.30448100  1
  O  O82  1  0.09548200  0.11364100  0.50349300  1
