# generated using pymatgen
data_MnH2SeO5
_symmetry_space_group_name_H-M   'P 1'
_cell_length_a   7.13555483
_cell_length_b   8.44809519
_cell_length_c   8.04749828
_cell_angle_alpha   90.00000000
_cell_angle_beta   115.48640158
_cell_angle_gamma   90.00000000
_symmetry_Int_Tables_number   1
_chemical_formula_structural   MnH2SeO5
_chemical_formula_sum   'Mn4 H8 Se4 O20'
_cell_volume   437.90997338
_cell_formula_units_Z   4
loop_
 _symmetry_equiv_pos_site_id
 _symmetry_equiv_pos_as_xyz
  1  'x, y, z'
loop_
 _atom_site_type_symbol
 _atom_site_label
 _atom_site_symmetry_multiplicity
 _atom_site_fract_x
 _atom_site_fract_y
 _atom_site_fract_z
 _atom_site_occupancy
  Mn  Mn0  1  0.75000000  0.25000000  0.00000000  1
  Mn  Mn1  1  0.25000000  0.25000000  0.50000000  1
  Mn  Mn2  1  0.25000000  0.75000000  0.00000000  1
  Mn  Mn3  1  0.75000000  0.75000000  0.50000000  1
  H  H4  1  0.41371800  0.54399700  0.29037050  1
  H  H5  1  0.08628200  0.04399700  0.20962950  1
  H  H6  1  0.08628200  0.95600300  0.70962950  1
  H  H7  1  0.41371800  0.45600300  0.79037050  1
  H  H8  1  0.91371800  0.04399700  0.29037050  1
  H  H9  1  0.58628200  0.54399700  0.20962950  1
  H  H10  1  0.58628200  0.45600300  0.70962950  1
  H  H11  1  0.91371800  0.95600300  0.79037050  1
  Se  Se12  1  0.50000000  0.08363300  0.25000000  1
  Se  Se13  1  0.00000000  0.41636700  0.75000000  1
  Se  Se14  1  0.00000000  0.58363300  0.25000000  1
  Se  Se15  1  0.50000000  0.91636700  0.75000000  1
  O  O16  1  0.00000000  0.11355375  0.25000000  1
  O  O17  1  0.50000000  0.38644625  0.75000000  1
  O  O18  1  0.48560150  0.19599350  0.41392350  1
  O  O19  1  0.51439850  0.19599350  0.08607650  1
  O  O20  1  0.01439850  0.30400650  0.58607650  1
  O  O21  1  0.98560150  0.30400650  0.91392350  1
  O  O22  1  0.28688025  0.96744375  0.15962650  1
  O  O23  1  0.21311975  0.46744375  0.34037350  1
  O  O24  1  0.21311975  0.53255625  0.84037350  1
  O  O25  1  0.28688025  0.03255625  0.65962650  1
  O  O26  1  0.50000000  0.61355375  0.25000000  1
  O  O27  1  0.00000000  0.88644625  0.75000000  1
  O  O28  1  0.98560150  0.69599350  0.41392350  1
  O  O29  1  0.01439850  0.69599350  0.08607650  1
  O  O30  1  0.51439850  0.80400650  0.58607650  1
  O  O31  1  0.48560150  0.80400650  0.91392350  1
  O  O32  1  0.78688025  0.46744375  0.15962650  1
  O  O33  1  0.71311975  0.96744375  0.34037350  1
  O  O34  1  0.71311975  0.03255625  0.84037350  1
  O  O35  1  0.78688025  0.53255625  0.65962650  1
