# generated using pymatgen
data_Al2Ge(HO3)2
_symmetry_space_group_name_H-M   'P 1'
_cell_length_a   5.41024600
_cell_length_b   8.44840400
_cell_length_c   9.06175470
_cell_angle_alpha   90.00000000
_cell_angle_beta   102.92667539
_cell_angle_gamma   90.00000000
_symmetry_Int_Tables_number   1
_chemical_formula_structural   Al2Ge(HO3)2
_chemical_formula_sum   'Al8 Ge4 H8 O24'
_cell_volume   403.69731457
_cell_formula_units_Z   4
loop_
 _symmetry_equiv_pos_site_id
 _symmetry_equiv_pos_as_xyz
  1  'x, y, z'
loop_
 _atom_site_type_symbol
 _atom_site_label
 _atom_site_symmetry_multiplicity
 _atom_site_fract_x
 _atom_site_fract_y
 _atom_site_fract_z
 _atom_site_occupancy
  Al  Al0  1  0.57540300  0.86690500  0.91444500  1
  Al  Al1  1  0.42459700  0.86690500  0.58555500  1
  Al  Al2  1  0.42459700  0.13309500  0.08555500  1
  Al  Al3  1  0.57540300  0.13309500  0.41444500  1
  Al  Al4  1  0.07540300  0.36690500  0.91444500  1
  Al  Al5  1  0.92459700  0.36690500  0.58555500  1
  Al  Al6  1  0.92459700  0.63309500  0.08555500  1
  Al  Al7  1  0.07540300  0.63309500  0.41444500  1
  Ge  Ge8  1  0.50000000  0.22398200  0.75000000  1
  Ge  Ge9  1  0.50000000  0.77601800  0.25000000  1
  Ge  Ge10  1  0.00000000  0.72398200  0.75000000  1
  Ge  Ge11  1  0.00000000  0.27601800  0.25000000  1
  H  H12  1  0.44873850  0.58663250  0.93238700  1
  H  H13  1  0.55126150  0.58663250  0.56761300  1
  H  H14  1  0.55126150  0.41336750  0.06761300  1
  H  H15  1  0.44873850  0.41336750  0.43238700  1
  H  H16  1  0.94873850  0.08663250  0.93238700  1
  H  H17  1  0.05126150  0.08663250  0.56761300  1
  H  H18  1  0.05126150  0.91336750  0.06761300  1
  H  H19  1  0.94873850  0.91336750  0.43238700  1
  O  O20  1  0.42723350  0.09347250  0.58899200  1
  O  O21  1  0.57276650  0.09347250  0.91100800  1
  O  O22  1  0.57276650  0.90652750  0.41100800  1
  O  O23  1  0.42723350  0.90652750  0.08899200  1
  O  O24  1  0.72866850  0.84745950  0.73947900  1
  O  O25  1  0.27133150  0.84745950  0.76052100  1
  O  O26  1  0.27133150  0.15254050  0.26052100  1
  O  O27  1  0.72866850  0.15254050  0.23947900  1
  O  O28  1  0.60083450  0.65094150  0.95643100  1
  O  O29  1  0.39916550  0.65094150  0.54356900  1
  O  O30  1  0.39916550  0.34905850  0.04356900  1
  O  O31  1  0.60083450  0.34905850  0.45643100  1
  O  O32  1  0.92723350  0.59347250  0.58899200  1
  O  O33  1  0.07276650  0.59347250  0.91100800  1
  O  O34  1  0.07276650  0.40652750  0.41100800  1
  O  O35  1  0.92723350  0.40652750  0.08899200  1
  O  O36  1  0.22866850  0.34745950  0.73947900  1
  O  O37  1  0.77133150  0.34745950  0.76052100  1
  O  O38  1  0.77133150  0.65254050  0.26052100  1
  O  O39  1  0.22866850  0.65254050  0.23947900  1
  O  O40  1  0.10083450  0.15094150  0.95643100  1
  O  O41  1  0.89916550  0.15094150  0.54356900  1
  O  O42  1  0.89916550  0.84905850  0.04356900  1
  O  O43  1  0.10083450  0.84905850  0.45643100  1
