# generated using pymatgen
data_Sr10Al6O19
_symmetry_space_group_name_H-M   'P 1'
_cell_length_a   34.91099315
_cell_length_b   7.91840100
_cell_length_c   15.90686735
_cell_angle_alpha   90.00000000
_cell_angle_beta   103.62806690
_cell_angle_gamma   90.00000000
_symmetry_Int_Tables_number   1
_chemical_formula_structural   Sr10Al6O19
_chemical_formula_sum   'Sr80 Al48 O152'
_cell_volume   4273.47995024
_cell_formula_units_Z   8
loop_
 _symmetry_equiv_pos_site_id
 _symmetry_equiv_pos_as_xyz
  1  'x, y, z'
loop_
 _atom_site_type_symbol
 _atom_site_label
 _atom_site_symmetry_multiplicity
 _atom_site_fract_x
 _atom_site_fract_y
 _atom_site_fract_z
 _atom_site_occupancy
  Sr  Sr0  1  0.62576250  0.24957750  0.82310150  1
  Sr  Sr1  1  0.74957600  0.74884300  0.38165450  1
  Sr  Sr2  1  0.87494800  0.24940300  0.67234050  1
  Sr  Sr3  1  0.93603900  0.54352400  0.33195250  1
  Sr  Sr4  1  0.62505200  0.25059700  0.32765950  1
  Sr  Sr5  1  0.56396100  0.04352400  0.16804750  1
  Sr  Sr6  1  0.63010150  0.26243150  0.06211850  1
  Sr  Sr7  1  0.88092000  0.29877200  0.42463550  1
  Sr  Sr8  1  0.50048300  0.25486200  0.52560850  1
  Sr  Sr9  1  0.61908000  0.79877200  0.07536450  1
  Sr  Sr10  1  0.50000000  0.34243650  0.25000000  1
  Sr  Sr11  1  0.68713550  0.52224150  0.97682450  1
  Sr  Sr12  1  0.88092000  0.70122800  0.92463550  1
  Sr  Sr13  1  0.86989850  0.23756850  0.93788150  1
  Sr  Sr14  1  0.93603900  0.45647600  0.83195250  1
  Sr  Sr15  1  0.74957600  0.25115700  0.88165450  1
  Sr  Sr16  1  0.99951700  0.24513800  0.47439150  1
  Sr  Sr17  1  0.81286450  0.97775850  0.02317550  1
  Sr  Sr18  1  0.75022650  0.72573450  0.84715150  1
  Sr  Sr19  1  0.68713550  0.47775850  0.47682450  1
  Sr  Sr20  1  0.00000000  0.28245900  0.25000000  1
  Sr  Sr21  1  0.87494800  0.75059700  0.17234050  1
  Sr  Sr22  1  0.62576250  0.75042250  0.32310150  1
  Sr  Sr23  1  0.62505200  0.74940300  0.82765950  1
  Sr  Sr24  1  0.86989850  0.76243150  0.43788150  1
  Sr  Sr25  1  0.81286450  0.02224150  0.52317550  1
  Sr  Sr26  1  0.50048300  0.74513800  0.02560850  1
  Sr  Sr27  1  0.74977350  0.22573450  0.65284850  1
  Sr  Sr28  1  0.75042400  0.24884300  0.11834550  1
  Sr  Sr29  1  0.75042400  0.75115700  0.61834550  1
  Sr  Sr30  1  0.99951700  0.75486200  0.97439150  1
  Sr  Sr31  1  0.56396100  0.95647600  0.66804750  1
  Sr  Sr32  1  0.50000000  0.65756350  0.75000000  1
  Sr  Sr33  1  0.74977350  0.77426550  0.15284850  1
  Sr  Sr34  1  0.75022650  0.27426550  0.34715150  1
  Sr  Sr35  1  0.87423750  0.25042250  0.17689850  1
  Sr  Sr36  1  0.63010150  0.73756850  0.56211850  1
  Sr  Sr37  1  0.50000000  0.21754100  0.75000000  1
  Sr  Sr38  1  0.61908000  0.20122800  0.57536450  1
  Sr  Sr39  1  0.87423750  0.74957750  0.67689850  1
  Sr  Sr40  1  0.12576250  0.74957750  0.82310150  1
  Sr  Sr41  1  0.24957600  0.24884300  0.38165450  1
  Sr  Sr42  1  0.37494800  0.74940300  0.67234050  1
  Sr  Sr43  1  0.43603900  0.04352400  0.33195250  1
  Sr  Sr44  1  0.12505200  0.75059700  0.32765950  1
  Sr  Sr45  1  0.06396100  0.54352400  0.16804750  1
  Sr  Sr46  1  0.13010150  0.76243150  0.06211850  1
  Sr  Sr47  1  0.38092000  0.79877200  0.42463550  1
  Sr  Sr48  1  0.00048300  0.75486200  0.52560850  1
  Sr  Sr49  1  0.11908000  0.29877200  0.07536450  1
  Sr  Sr50  1  0.00000000  0.84243650  0.25000000  1
  Sr  Sr51  1  0.18713550  0.02224150  0.97682450  1
  Sr  Sr52  1  0.38092000  0.20122800  0.92463550  1
  Sr  Sr53  1  0.36989850  0.73756850  0.93788150  1
  Sr  Sr54  1  0.43603900  0.95647600  0.83195250  1
  Sr  Sr55  1  0.24957600  0.75115700  0.88165450  1
  Sr  Sr56  1  0.49951700  0.74513800  0.47439150  1
  Sr  Sr57  1  0.31286450  0.47775850  0.02317550  1
  Sr  Sr58  1  0.25022650  0.22573450  0.84715150  1
  Sr  Sr59  1  0.18713550  0.97775850  0.47682450  1
  Sr  Sr60  1  0.50000000  0.78245900  0.25000000  1
  Sr  Sr61  1  0.37494800  0.25059700  0.17234050  1
  Sr  Sr62  1  0.12576250  0.25042250  0.32310150  1
  Sr  Sr63  1  0.12505200  0.24940300  0.82765950  1
  Sr  Sr64  1  0.36989850  0.26243150  0.43788150  1
  Sr  Sr65  1  0.31286450  0.52224150  0.52317550  1
  Sr  Sr66  1  0.00048300  0.24513800  0.02560850  1
  Sr  Sr67  1  0.24977350  0.72573450  0.65284850  1
  Sr  Sr68  1  0.25042400  0.74884300  0.11834550  1
  Sr  Sr69  1  0.25042400  0.25115700  0.61834550  1
  Sr  Sr70  1  0.49951700  0.25486200  0.97439150  1
  Sr  Sr71  1  0.06396100  0.45647600  0.66804750  1
  Sr  Sr72  1  0.00000000  0.15756350  0.75000000  1
  Sr  Sr73  1  0.24977350  0.27426550  0.15284850  1
  Sr  Sr74  1  0.25022650  0.77426550  0.34715150  1
  Sr  Sr75  1  0.37423750  0.75042250  0.17689850  1
  Sr  Sr76  1  0.13010150  0.23756850  0.56211850  1
  Sr  Sr77  1  0.00000000  0.71754100  0.75000000  1
  Sr  Sr78  1  0.11908000  0.70122800  0.57536450  1
  Sr  Sr79  1  0.37423750  0.24957750  0.67689850  1
  Al  Al80  1  0.55700350  0.03523850  0.41067850  1
  Al  Al81  1  0.92678850  0.01122650  0.34835950  1
  Al  Al82  1  0.69439450  0.99352650  0.96177650  1
  Al  Al83  1  0.82183900  0.03511500  0.28451250  1
  Al  Al84  1  0.67816100  0.53511500  0.21548750  1
  Al  Al85  1  0.92678850  0.98877350  0.84835950  1
  Al  Al86  1  0.81557900  0.51229000  0.76200050  1
  Al  Al87  1  0.69439450  0.00647350  0.46177650  1
  Al  Al88  1  0.56456900  0.51998700  0.93323250  1
  Al  Al89  1  0.82183900  0.96488500  0.78451250  1
  Al  Al90  1  0.57321150  0.51122650  0.15164050  1
  Al  Al91  1  0.67816100  0.46488500  0.71548750  1
  Al  Al92  1  0.94299650  0.53523850  0.08932150  1
  Al  Al93  1  0.80560550  0.49352650  0.53822350  1
  Al  Al94  1  0.68442100  0.01229000  0.73799950  1
  Al  Al95  1  0.93543100  0.98001300  0.06676750  1
  Al  Al96  1  0.80560550  0.50647350  0.03822350  1
  Al  Al97  1  0.68442100  0.98771000  0.23799950  1
  Al  Al98  1  0.57321150  0.48877350  0.65164050  1
  Al  Al99  1  0.94299650  0.46476150  0.58932150  1
  Al  Al100  1  0.93543100  0.01998700  0.56676750  1
  Al  Al101  1  0.81557900  0.48771000  0.26200050  1
  Al  Al102  1  0.55700350  0.96476150  0.91067850  1
  Al  Al103  1  0.56456900  0.48001300  0.43323250  1
  Al  Al104  1  0.05700350  0.53523850  0.41067850  1
  Al  Al105  1  0.42678850  0.51122650  0.34835950  1
  Al  Al106  1  0.19439450  0.49352650  0.96177650  1
  Al  Al107  1  0.32183900  0.53511500  0.28451250  1
  Al  Al108  1  0.17816100  0.03511500  0.21548750  1
  Al  Al109  1  0.42678850  0.48877350  0.84835950  1
  Al  Al110  1  0.31557900  0.01229000  0.76200050  1
  Al  Al111  1  0.19439450  0.50647350  0.46177650  1
  Al  Al112  1  0.06456900  0.01998700  0.93323250  1
  Al  Al113  1  0.32183900  0.46488500  0.78451250  1
  Al  Al114  1  0.07321150  0.01122650  0.15164050  1
  Al  Al115  1  0.17816100  0.96488500  0.71548750  1
  Al  Al116  1  0.44299650  0.03523850  0.08932150  1
  Al  Al117  1  0.30560550  0.99352650  0.53822350  1
  Al  Al118  1  0.18442100  0.51229000  0.73799950  1
  Al  Al119  1  0.43543100  0.48001300  0.06676750  1
  Al  Al120  1  0.30560550  0.00647350  0.03822350  1
  Al  Al121  1  0.18442100  0.48771000  0.23799950  1
  Al  Al122  1  0.07321150  0.98877350  0.65164050  1
  Al  Al123  1  0.44299650  0.96476150  0.58932150  1
  Al  Al124  1  0.43543100  0.51998700  0.56676750  1
  Al  Al125  1  0.31557900  0.98771000  0.26200050  1
  Al  Al126  1  0.05700350  0.46476150  0.91067850  1
  Al  Al127  1  0.06456900  0.98001300  0.43323250  1
  O  O128  1  0.50545400  0.99984200  0.37766450  1
  O  O129  1  0.81396600  0.26039000  0.27095850  1
  O  O130  1  0.75577700  0.51113000  0.98504350  1
  O  O131  1  0.75577700  0.48887000  0.48504350  1
  O  O132  1  0.94457200  0.03637900  0.96187350  1
  O  O133  1  0.56503400  0.33929100  0.21345950  1
  O  O134  1  0.93496600  0.16070900  0.78654050  1
  O  O135  1  0.86344000  0.45043600  0.81646550  1
  O  O136  1  0.67812000  0.20404500  0.97162650  1
  O  O137  1  0.68597250  0.44628250  0.31889950  1
  O  O138  1  0.58247450  0.01473450  0.82959250  1
  O  O139  1  0.93496600  0.83929100  0.28654050  1
  O  O140  1  0.88754200  0.96584600  0.57338050  1
  O  O141  1  0.80019600  0.95956900  0.36610150  1
  O  O142  1  0.83255400  0.32277000  0.50680350  1
  O  O143  1  0.63656000  0.95043600  0.68353450  1
  O  O144  1  0.52398150  0.43148850  0.85999850  1
  O  O145  1  0.56214850  0.74293350  0.93336250  1
  O  O146  1  0.81120400  0.46521100  0.65115950  1
  O  O147  1  0.57380900  0.94186200  0.51482850  1
  O  O148  1  0.69980400  0.54043100  0.63389850  1
  O  O149  1  0.86344000  0.54956400  0.31646550  1
  O  O150  1  0.50545400  0.00015800  0.87766450  1
  O  O151  1  0.62714500  0.48218600  0.66580750  1
  O  O152  1  0.55542800  0.53637900  0.53812650  1
  O  O153  1  0.55542800  0.46362100  0.03812650  1
  O  O154  1  0.56286600  0.72433900  0.16869050  1
  O  O155  1  0.93785150  0.75706650  0.06663750  1
  O  O156  1  0.68879600  0.96521100  0.84884050  1
  O  O157  1  0.82188000  0.70404500  0.52837350  1
  O  O158  1  0.81120400  0.53478900  0.15115950  1
  O  O159  1  0.68603400  0.23961000  0.72904150  1
  O  O160  1  0.97601850  0.06851150  0.14000150  1
  O  O161  1  0.83255400  0.67723000  0.00680350  1
  O  O162  1  0.66744600  0.82277000  0.99319650  1
  O  O163  1  0.93713400  0.22433900  0.33130950  1
  O  O164  1  0.72810100  0.06401900  0.21047250  1
  O  O165  1  0.61245800  0.53415400  0.42661950  1
  O  O166  1  0.74422300  0.01113000  0.51495650  1
  O  O167  1  0.56214850  0.25706650  0.43336250  1
  O  O168  1  0.97601850  0.93148850  0.64000150  1
  O  O169  1  0.57380900  0.05813800  0.01482850  1
  O  O170  1  0.56503400  0.66070900  0.71345950  1
  O  O171  1  0.66744600  0.17723000  0.49319650  1
  O  O172  1  0.92619100  0.55813800  0.48517150  1
  O  O173  1  0.62714500  0.51781400  0.16580750  1
  O  O174  1  0.87285500  0.01781400  0.33419250  1
  O  O175  1  0.52398150  0.56851150  0.35999850  1
  O  O176  1  0.68597250  0.55371750  0.81889950  1
  O  O177  1  0.77189900  0.43598100  0.78952750  1
  O  O178  1  0.91752550  0.48526550  0.17040750  1
  O  O179  1  0.88754200  0.03415400  0.07338050  1
  O  O180  1  0.81396600  0.73961000  0.77095850  1
  O  O181  1  0.68879600  0.03478900  0.34884050  1
  O  O182  1  0.68603400  0.76039000  0.22904150  1
  O  O183  1  0.87285500  0.98218600  0.83419250  1
  O  O184  1  0.94457200  0.96362100  0.46187350  1
  O  O185  1  0.99454600  0.50015800  0.62233550  1
  O  O186  1  0.93785150  0.24293350  0.56663750  1
  O  O187  1  0.77189900  0.56401900  0.28952750  1
  O  O188  1  0.80019600  0.04043100  0.86610150  1
  O  O189  1  0.82188000  0.29595500  0.02837350  1
  O  O190  1  0.81402750  0.94628250  0.18110050  1
  O  O191  1  0.74422300  0.98887000  0.01495650  1
  O  O192  1  0.63656000  0.04956400  0.18353450  1
  O  O193  1  0.81402750  0.05371750  0.68110050  1
  O  O194  1  0.99454600  0.49984200  0.12233550  1
  O  O195  1  0.93713400  0.77566100  0.83130950  1
  O  O196  1  0.56286600  0.27566100  0.66869050  1
  O  O197  1  0.61245800  0.46584600  0.92661950  1
  O  O198  1  0.69980400  0.45956900  0.13389850  1
  O  O199  1  0.72810100  0.93598100  0.71047250  1
  O  O200  1  0.67812000  0.79595500  0.47162650  1
  O  O201  1  0.91752550  0.51473450  0.67040750  1
  O  O202  1  0.92619100  0.44186200  0.98517150  1
  O  O203  1  0.58247450  0.98526550  0.32959250  1
  O  O204  1  0.00545400  0.49984200  0.37766450  1
  O  O205  1  0.31396600  0.76039000  0.27095850  1
  O  O206  1  0.25577700  0.01113000  0.98504350  1
  O  O207  1  0.25577700  0.98887000  0.48504350  1
  O  O208  1  0.44457200  0.53637900  0.96187350  1
  O  O209  1  0.06503400  0.83929100  0.21345950  1
  O  O210  1  0.43496600  0.66070900  0.78654050  1
  O  O211  1  0.36344000  0.95043600  0.81646550  1
  O  O212  1  0.17812000  0.70404500  0.97162650  1
  O  O213  1  0.18597250  0.94628250  0.31889950  1
  O  O214  1  0.08247450  0.51473450  0.82959250  1
  O  O215  1  0.43496600  0.33929100  0.28654050  1
  O  O216  1  0.38754200  0.46584600  0.57338050  1
  O  O217  1  0.30019600  0.45956900  0.36610150  1
  O  O218  1  0.33255400  0.82277000  0.50680350  1
  O  O219  1  0.13656000  0.45043600  0.68353450  1
  O  O220  1  0.02398150  0.93148850  0.85999850  1
  O  O221  1  0.06214850  0.24293350  0.93336250  1
  O  O222  1  0.31120400  0.96521100  0.65115950  1
  O  O223  1  0.07380900  0.44186200  0.51482850  1
  O  O224  1  0.19980400  0.04043100  0.63389850  1
  O  O225  1  0.36344000  0.04956400  0.31646550  1
  O  O226  1  0.00545400  0.50015800  0.87766450  1
  O  O227  1  0.12714500  0.98218600  0.66580750  1
  O  O228  1  0.05542800  0.03637900  0.53812650  1
  O  O229  1  0.05542800  0.96362100  0.03812650  1
  O  O230  1  0.06286600  0.22433900  0.16869050  1
  O  O231  1  0.43785150  0.25706650  0.06663750  1
  O  O232  1  0.18879600  0.46521100  0.84884050  1
  O  O233  1  0.32188000  0.20404500  0.52837350  1
  O  O234  1  0.31120400  0.03478900  0.15115950  1
  O  O235  1  0.18603400  0.73961000  0.72904150  1
  O  O236  1  0.47601850  0.56851150  0.14000150  1
  O  O237  1  0.33255400  0.17723000  0.00680350  1
  O  O238  1  0.16744600  0.32277000  0.99319650  1
  O  O239  1  0.43713400  0.72433900  0.33130950  1
  O  O240  1  0.22810100  0.56401900  0.21047250  1
  O  O241  1  0.11245800  0.03415400  0.42661950  1
  O  O242  1  0.24422300  0.51113000  0.51495650  1
  O  O243  1  0.06214850  0.75706650  0.43336250  1
  O  O244  1  0.47601850  0.43148850  0.64000150  1
  O  O245  1  0.07380900  0.55813800  0.01482850  1
  O  O246  1  0.06503400  0.16070900  0.71345950  1
  O  O247  1  0.16744600  0.67723000  0.49319650  1
  O  O248  1  0.42619100  0.05813800  0.48517150  1
  O  O249  1  0.12714500  0.01781400  0.16580750  1
  O  O250  1  0.37285500  0.51781400  0.33419250  1
  O  O251  1  0.02398150  0.06851150  0.35999850  1
  O  O252  1  0.18597250  0.05371750  0.81889950  1
  O  O253  1  0.27189900  0.93598100  0.78952750  1
  O  O254  1  0.41752550  0.98526550  0.17040750  1
  O  O255  1  0.38754200  0.53415400  0.07338050  1
  O  O256  1  0.31396600  0.23961000  0.77095850  1
  O  O257  1  0.18879600  0.53478900  0.34884050  1
  O  O258  1  0.18603400  0.26039000  0.22904150  1
  O  O259  1  0.37285500  0.48218600  0.83419250  1
  O  O260  1  0.44457200  0.46362100  0.46187350  1
  O  O261  1  0.49454600  0.00015800  0.62233550  1
  O  O262  1  0.43785150  0.74293350  0.56663750  1
  O  O263  1  0.27189900  0.06401900  0.28952750  1
  O  O264  1  0.30019600  0.54043100  0.86610150  1
  O  O265  1  0.32188000  0.79595500  0.02837350  1
  O  O266  1  0.31402750  0.44628250  0.18110050  1
  O  O267  1  0.24422300  0.48887000  0.01495650  1
  O  O268  1  0.13656000  0.54956400  0.18353450  1
  O  O269  1  0.31402750  0.55371750  0.68110050  1
  O  O270  1  0.49454600  0.99984200  0.12233550  1
  O  O271  1  0.43713400  0.27566100  0.83130950  1
  O  O272  1  0.06286600  0.77566100  0.66869050  1
  O  O273  1  0.11245800  0.96584600  0.92661950  1
  O  O274  1  0.19980400  0.95956900  0.13389850  1
  O  O275  1  0.22810100  0.43598100  0.71047250  1
  O  O276  1  0.17812000  0.29595500  0.47162650  1
  O  O277  1  0.41752550  0.01473450  0.67040750  1
  O  O278  1  0.42619100  0.94186200  0.98517150  1
  O  O279  1  0.08247450  0.48526550  0.32959250  1
