# generated using pymatgen
data_Pb13(Br3O5)2
_symmetry_space_group_name_H-M   'P 1'
_cell_length_a   16.79545800
_cell_length_b   7.37254800
_cell_length_c   24.50915063
_cell_angle_alpha   90.00000000
_cell_angle_beta   98.73559116
_cell_angle_gamma   90.00000000
_symmetry_Int_Tables_number   1
_chemical_formula_structural   Pb13(Br3O5)2
_chemical_formula_sum   'Pb52 Br24 O40'
_cell_volume   2999.64832425
_cell_formula_units_Z   4
loop_
 _symmetry_equiv_pos_site_id
 _symmetry_equiv_pos_as_xyz
  1  'x, y, z'
loop_
 _atom_site_type_symbol
 _atom_site_label
 _atom_site_symmetry_multiplicity
 _atom_site_fract_x
 _atom_site_fract_y
 _atom_site_fract_z
 _atom_site_occupancy
  Pb  Pb0  1  0.76540550  0.39488850  0.06087000  1
  Pb  Pb1  1  0.91598600  0.92714200  0.86748200  1
  Pb  Pb2  1  0.82276400  0.56573900  0.34936800  1
  Pb  Pb3  1  0.00000000  0.22324900  0.75000000  1
  Pb  Pb4  1  0.91598600  0.07285800  0.36748200  1
  Pb  Pb5  1  0.60376150  0.71384350  0.29231900  1
  Pb  Pb6  1  0.95076650  0.23666450  0.98820000  1
  Pb  Pb7  1  0.58401400  0.57285800  0.13251800  1
  Pb  Pb8  1  0.63290800  0.57614900  0.91733100  1
  Pb  Pb9  1  0.89623850  0.78615650  0.70768100  1
  Pb  Pb10  1  0.67723600  0.93426100  0.65063200  1
  Pb  Pb11  1  0.82276400  0.43426100  0.84936800  1
  Pb  Pb12  1  0.76540550  0.60511150  0.56087000  1
  Pb  Pb13  1  0.89623850  0.21384350  0.20768100  1
  Pb  Pb14  1  0.60376150  0.28615650  0.79231900  1
  Pb  Pb15  1  0.54923350  0.26333550  0.01180000  1
  Pb  Pb16  1  0.86709200  0.92385100  0.08266900  1
  Pb  Pb17  1  0.00000000  0.77675100  0.25000000  1
  Pb  Pb18  1  0.73459450  0.10511150  0.93913000  1
  Pb  Pb19  1  0.58401400  0.42714200  0.63251800  1
  Pb  Pb20  1  0.95076650  0.76333550  0.48820000  1
  Pb  Pb21  1  0.54923350  0.73666450  0.51180000  1
  Pb  Pb22  1  0.86709200  0.07614900  0.58266900  1
  Pb  Pb23  1  0.67723600  0.06573900  0.15063200  1
  Pb  Pb24  1  0.63290800  0.42385100  0.41733100  1
  Pb  Pb25  1  0.73459450  0.89488850  0.43913000  1
  Pb  Pb26  1  0.26540550  0.89488850  0.06087000  1
  Pb  Pb27  1  0.41598600  0.42714200  0.86748200  1
  Pb  Pb28  1  0.32276400  0.06573900  0.34936800  1
  Pb  Pb29  1  0.50000000  0.72324900  0.75000000  1
  Pb  Pb30  1  0.41598600  0.57285800  0.36748200  1
  Pb  Pb31  1  0.10376150  0.21384350  0.29231900  1
  Pb  Pb32  1  0.45076650  0.73666450  0.98820000  1
  Pb  Pb33  1  0.08401400  0.07285800  0.13251800  1
  Pb  Pb34  1  0.13290800  0.07614900  0.91733100  1
  Pb  Pb35  1  0.39623850  0.28615650  0.70768100  1
  Pb  Pb36  1  0.17723600  0.43426100  0.65063200  1
  Pb  Pb37  1  0.32276400  0.93426100  0.84936800  1
  Pb  Pb38  1  0.26540550  0.10511150  0.56087000  1
  Pb  Pb39  1  0.39623850  0.71384350  0.20768100  1
  Pb  Pb40  1  0.10376150  0.78615650  0.79231900  1
  Pb  Pb41  1  0.04923350  0.76333550  0.01180000  1
  Pb  Pb42  1  0.36709200  0.42385100  0.08266900  1
  Pb  Pb43  1  0.50000000  0.27675100  0.25000000  1
  Pb  Pb44  1  0.23459450  0.60511150  0.93913000  1
  Pb  Pb45  1  0.08401400  0.92714200  0.63251800  1
  Pb  Pb46  1  0.45076650  0.26333550  0.48820000  1
  Pb  Pb47  1  0.04923350  0.23666450  0.51180000  1
  Pb  Pb48  1  0.36709200  0.57614900  0.58266900  1
  Pb  Pb49  1  0.17723600  0.56573900  0.15063200  1
  Pb  Pb50  1  0.13290800  0.92385100  0.41733100  1
  Pb  Pb51  1  0.23459450  0.39488850  0.43913000  1
  Br  Br52  1  0.53019350  0.02378550  0.86742600  1
  Br  Br53  1  0.81241550  0.18190250  0.74697100  1
  Br  Br54  1  0.96980650  0.52378550  0.63257400  1
  Br  Br55  1  0.81241550  0.81809750  0.24697100  1
  Br  Br56  1  0.53019350  0.97621450  0.36742600  1
  Br  Br57  1  0.66029400  0.84026800  0.03977900  1
  Br  Br58  1  0.66029400  0.15973200  0.53977900  1
  Br  Br59  1  0.83970600  0.34026800  0.46022100  1
  Br  Br60  1  0.83970600  0.65973200  0.96022100  1
  Br  Br61  1  0.96980650  0.47621450  0.13257400  1
  Br  Br62  1  0.68758450  0.68190250  0.75302900  1
  Br  Br63  1  0.68758450  0.31809750  0.25302900  1
  Br  Br64  1  0.03019350  0.52378550  0.86742600  1
  Br  Br65  1  0.31241550  0.68190250  0.74697100  1
  Br  Br66  1  0.46980650  0.02378550  0.63257400  1
  Br  Br67  1  0.31241550  0.31809750  0.24697100  1
  Br  Br68  1  0.03019350  0.47621450  0.36742600  1
  Br  Br69  1  0.16029400  0.34026800  0.03977900  1
  Br  Br70  1  0.16029400  0.65973200  0.53977900  1
  Br  Br71  1  0.33970600  0.84026800  0.46022100  1
  Br  Br72  1  0.33970600  0.15973200  0.96022100  1
  Br  Br73  1  0.46980650  0.97621450  0.13257400  1
  Br  Br74  1  0.18758450  0.18190250  0.75302900  1
  Br  Br75  1  0.18758450  0.81809750  0.25302900  1
  O  O76  1  0.67069400  0.65368800  0.48065900  1
  O  O77  1  0.82930600  0.84631200  0.51934100  1
  O  O78  1  0.69511250  0.64574650  0.36411300  1
  O  O79  1  0.97524450  0.00419750  0.68315500  1
  O  O80  1  0.80488750  0.85425350  0.63588700  1
  O  O81  1  0.97524450  0.99580250  0.18315500  1
  O  O82  1  0.50907500  0.50594700  0.44118400  1
  O  O83  1  0.52475550  0.49580250  0.31684500  1
  O  O84  1  0.85781300  0.81158700  0.40096200  1
  O  O85  1  0.69511250  0.35425350  0.86411300  1
  O  O86  1  0.80488750  0.14574650  0.13588700  1
  O  O87  1  0.64218700  0.31158700  0.09903800  1
  O  O88  1  0.67069400  0.34631200  0.98065900  1
  O  O89  1  0.52475550  0.50419750  0.81684500  1
  O  O90  1  0.82930600  0.15368800  0.01934100  1
  O  O91  1  0.64218700  0.68841300  0.59903800  1
  O  O92  1  0.50907500  0.49405300  0.94118400  1
  O  O93  1  0.85781300  0.18841300  0.90096200  1
  O  O94  1  0.99092500  0.00594700  0.05881600  1
  O  O95  1  0.99092500  0.99405300  0.55881600  1
  O  O96  1  0.17069400  0.15368800  0.48065900  1
  O  O97  1  0.32930600  0.34631200  0.51934100  1
  O  O98  1  0.19511250  0.14574650  0.36411300  1
  O  O99  1  0.47524450  0.50419750  0.68315500  1
  O  O100  1  0.30488750  0.35425350  0.63588700  1
  O  O101  1  0.47524450  0.49580250  0.18315500  1
  O  O102  1  0.00907500  0.00594700  0.44118400  1
  O  O103  1  0.02475550  0.99580250  0.31684500  1
  O  O104  1  0.35781300  0.31158700  0.40096200  1
  O  O105  1  0.19511250  0.85425350  0.86411300  1
  O  O106  1  0.30488750  0.64574650  0.13588700  1
  O  O107  1  0.14218700  0.81158700  0.09903800  1
  O  O108  1  0.17069400  0.84631200  0.98065900  1
  O  O109  1  0.02475550  0.00419750  0.81684500  1
  O  O110  1  0.32930600  0.65368800  0.01934100  1
  O  O111  1  0.14218700  0.18841300  0.59903800  1
  O  O112  1  0.00907500  0.99405300  0.94118400  1
  O  O113  1  0.35781300  0.68841300  0.90096200  1
  O  O114  1  0.49092500  0.50594700  0.05881600  1
  O  O115  1  0.49092500  0.49405300  0.55881600  1
