# generated using pymatgen
data_Cs4Zr3S14
_symmetry_space_group_name_H-M   'P 1'
_cell_length_a   22.47349200
_cell_length_b   8.71081000
_cell_length_c   14.34543353
_cell_angle_alpha   90.00000000
_cell_angle_beta   112.84657804
_cell_angle_gamma   90.00000000
_symmetry_Int_Tables_number   1
_chemical_formula_structural   Cs4Zr3S14
_chemical_formula_sum   'Cs16 Zr12 S56'
_cell_volume   2587.97844246
_cell_formula_units_Z   4
loop_
 _symmetry_equiv_pos_site_id
 _symmetry_equiv_pos_as_xyz
  1  'x, y, z'
loop_
 _atom_site_type_symbol
 _atom_site_label
 _atom_site_symmetry_multiplicity
 _atom_site_fract_x
 _atom_site_fract_y
 _atom_site_fract_z
 _atom_site_occupancy
  Cs  Cs0  1  0.20541100  0.31828100  0.61174700  1
  Cs  Cs1  1  0.06121900  0.76193200  0.64375100  1
  Cs  Cs2  1  0.29458900  0.81828100  0.88825300  1
  Cs  Cs3  1  0.43878100  0.26193200  0.85624900  1
  Cs  Cs4  1  0.29458900  0.18171900  0.38825300  1
  Cs  Cs5  1  0.43878100  0.73806800  0.35624900  1
  Cs  Cs6  1  0.20541100  0.68171900  0.11174700  1
  Cs  Cs7  1  0.06121900  0.23806800  0.14375100  1
  Cs  Cs8  1  0.70541100  0.81828100  0.61174700  1
  Cs  Cs9  1  0.56121900  0.26193200  0.64375100  1
  Cs  Cs10  1  0.79458900  0.31828100  0.88825300  1
  Cs  Cs11  1  0.93878100  0.76193200  0.85624900  1
  Cs  Cs12  1  0.79458900  0.68171900  0.38825300  1
  Cs  Cs13  1  0.93878100  0.23806800  0.35624900  1
  Cs  Cs14  1  0.70541100  0.18171900  0.11174700  1
  Cs  Cs15  1  0.56121900  0.73806800  0.14375100  1
  Zr  Zr16  1  0.16788600  0.25178600  0.91420800  1
  Zr  Zr17  1  0.00000000  0.73708500  0.25000000  1
  Zr  Zr18  1  0.16788600  0.74821400  0.41420800  1
  Zr  Zr19  1  0.33211400  0.75178600  0.58579200  1
  Zr  Zr20  1  0.33211400  0.24821400  0.08579200  1
  Zr  Zr21  1  0.00000000  0.26291500  0.75000000  1
  Zr  Zr22  1  0.66788600  0.75178600  0.91420800  1
  Zr  Zr23  1  0.50000000  0.23708500  0.25000000  1
  Zr  Zr24  1  0.66788600  0.24821400  0.41420800  1
  Zr  Zr25  1  0.83211400  0.25178600  0.58579200  1
  Zr  Zr26  1  0.83211400  0.74821400  0.08579200  1
  Zr  Zr27  1  0.50000000  0.76291500  0.75000000  1
  S  S28  1  0.09588750  0.16737850  0.71082000  1
  S  S29  1  0.41482300  0.02330500  0.13126900  1
  S  S30  1  0.06912850  0.91404550  0.41217100  1
  S  S31  1  0.04189700  0.66026000  0.11251000  1
  S  S32  1  0.06912850  0.08595450  0.91217100  1
  S  S33  1  0.08517700  0.47669500  0.86873100  1
  S  S34  1  0.33310200  0.01450200  0.66418200  1
  S  S35  1  0.16689800  0.51450200  0.83581800  1
  S  S36  1  0.27845250  0.21620150  0.90118300  1
  S  S37  1  0.41482300  0.97669500  0.63126900  1
  S  S38  1  0.35827350  0.54016450  0.11043100  1
  S  S39  1  0.22154750  0.28379850  0.09881700  1
  S  S40  1  0.43087150  0.58595450  0.58782900  1
  S  S41  1  0.40411250  0.66737850  0.78918000  1
  S  S42  1  0.45810300  0.83974000  0.88749000  1
  S  S43  1  0.35827350  0.45983550  0.61043100  1
  S  S44  1  0.27845250  0.78379850  0.40118300  1
  S  S45  1  0.33310200  0.98549800  0.16418200  1
  S  S46  1  0.45810300  0.16026000  0.38749000  1
  S  S47  1  0.14172650  0.04016450  0.38956900  1
  S  S48  1  0.08517700  0.52330500  0.36873100  1
  S  S49  1  0.04189700  0.33974000  0.61251000  1
  S  S50  1  0.22154750  0.71620150  0.59881700  1
  S  S51  1  0.43087150  0.41404550  0.08782900  1
  S  S52  1  0.09588750  0.83262150  0.21082000  1
  S  S53  1  0.16689800  0.48549800  0.33581800  1
  S  S54  1  0.40411250  0.33262150  0.28918000  1
  S  S55  1  0.14172650  0.95983550  0.88956900  1
  S  S56  1  0.59588750  0.66737850  0.71082000  1
  S  S57  1  0.91482300  0.52330500  0.13126900  1
  S  S58  1  0.56912850  0.41404550  0.41217100  1
  S  S59  1  0.54189700  0.16026000  0.11251000  1
  S  S60  1  0.56912850  0.58595450  0.91217100  1
  S  S61  1  0.58517700  0.97669500  0.86873100  1
  S  S62  1  0.83310200  0.51450200  0.66418200  1
  S  S63  1  0.66689800  0.01450200  0.83581800  1
  S  S64  1  0.77845250  0.71620150  0.90118300  1
  S  S65  1  0.91482300  0.47669500  0.63126900  1
  S  S66  1  0.85827350  0.04016450  0.11043100  1
  S  S67  1  0.72154750  0.78379850  0.09881700  1
  S  S68  1  0.93087150  0.08595450  0.58782900  1
  S  S69  1  0.90411250  0.16737850  0.78918000  1
  S  S70  1  0.95810300  0.33974000  0.88749000  1
  S  S71  1  0.85827350  0.95983550  0.61043100  1
  S  S72  1  0.77845250  0.28379850  0.40118300  1
  S  S73  1  0.83310200  0.48549800  0.16418200  1
  S  S74  1  0.95810300  0.66026000  0.38749000  1
  S  S75  1  0.64172650  0.54016450  0.38956900  1
  S  S76  1  0.58517700  0.02330500  0.36873100  1
  S  S77  1  0.54189700  0.83974000  0.61251000  1
  S  S78  1  0.72154750  0.21620150  0.59881700  1
  S  S79  1  0.93087150  0.91404550  0.08782900  1
  S  S80  1  0.59588750  0.33262150  0.21082000  1
  S  S81  1  0.66689800  0.98549800  0.33581800  1
  S  S82  1  0.90411250  0.83262150  0.28918000  1
  S  S83  1  0.64172650  0.45983550  0.88956900  1
