# generated using pymatgen
data_BaMnGaF7
_symmetry_space_group_name_H-M   'P 1'
_cell_length_a   14.00996000
_cell_length_b   5.37696400
_cell_length_c   14.91317126
_cell_angle_alpha   90.00000000
_cell_angle_beta   91.15218485
_cell_angle_gamma   90.00000000
_symmetry_Int_Tables_number   1
_chemical_formula_structural   BaMnGaF7
_chemical_formula_sum   'Ba8 Mn8 Ga8 F56'
_cell_volume   1123.19771551
_cell_formula_units_Z   8
loop_
 _symmetry_equiv_pos_site_id
 _symmetry_equiv_pos_as_xyz
  1  'x, y, z'
loop_
 _atom_site_type_symbol
 _atom_site_label
 _atom_site_symmetry_multiplicity
 _atom_site_fract_x
 _atom_site_fract_y
 _atom_site_fract_z
 _atom_site_occupancy
  Ba  Ba0  1  0.81059700  0.04435300  0.37840000  1
  Ba  Ba1  1  0.81059700  0.95564700  0.87840000  1
  Ba  Ba2  1  0.68940300  0.54435300  0.12160000  1
  Ba  Ba3  1  0.68940300  0.45564700  0.62160000  1
  Ba  Ba4  1  0.31059700  0.54435300  0.37840000  1
  Ba  Ba5  1  0.31059700  0.45564700  0.87840000  1
  Ba  Ba6  1  0.18940300  0.04435300  0.12160000  1
  Ba  Ba7  1  0.18940300  0.95564700  0.62160000  1
  Mn  Mn8  1  0.00000000  0.54499900  0.25000000  1
  Mn  Mn9  1  0.00000000  0.50000000  0.50000000  1
  Mn  Mn10  1  0.00000000  0.45500100  0.75000000  1
  Mn  Mn11  1  0.00000000  0.50000000  0.00000000  1
  Mn  Mn12  1  0.50000000  0.04499900  0.25000000  1
  Mn  Mn13  1  0.50000000  0.00000000  0.50000000  1
  Mn  Mn14  1  0.50000000  0.95500100  0.75000000  1
  Mn  Mn15  1  0.50000000  0.00000000  0.00000000  1
  Ga  Ga16  1  0.61925800  0.50370700  0.87440400  1
  Ga  Ga17  1  0.61925800  0.49629300  0.37440400  1
  Ga  Ga18  1  0.88074200  0.00370700  0.62559600  1
  Ga  Ga19  1  0.88074200  0.99629300  0.12559600  1
  Ga  Ga20  1  0.11925800  0.00370700  0.87440400  1
  Ga  Ga21  1  0.11925800  0.99629300  0.37440400  1
  Ga  Ga22  1  0.38074200  0.50370700  0.62559600  1
  Ga  Ga23  1  0.38074200  0.49629300  0.12559600  1
  F  F24  1  0.62888500  0.20114600  0.45354200  1
  F  F25  1  0.55671150  0.91722950  0.12851800  1
  F  F26  1  0.83548600  0.78534800  0.22187500  1
  F  F27  1  0.50560050  0.61049050  0.65859300  1
  F  F28  1  0.83548600  0.21465200  0.72187500  1
  F  F29  1  0.94328850  0.58277050  0.87148200  1
  F  F30  1  0.87111500  0.29885400  0.54645800  1
  F  F31  1  0.75193200  0.05729000  0.08942800  1
  F  F32  1  0.55671150  0.08277050  0.62851800  1
  F  F33  1  0.62014900  0.22171000  0.79727700  1
  F  F34  1  0.66451400  0.28534800  0.27812500  1
  F  F35  1  0.74806800  0.55729000  0.41057200  1
  F  F36  1  0.99439950  0.11049050  0.84140700  1
  F  F37  1  0.87111500  0.70114600  0.04645800  1
  F  F38  1  0.94328850  0.41722950  0.37148200  1
  F  F39  1  0.74806800  0.44271000  0.91057200  1
  F  F40  1  0.91792000  0.17077200  0.01950200  1
  F  F41  1  0.91792000  0.82922800  0.51950200  1
  F  F42  1  0.58208000  0.32922800  0.98049800  1
  F  F43  1  0.87985100  0.27829000  0.20272300  1
  F  F44  1  0.50560050  0.38950950  0.15859300  1
  F  F45  1  0.99439950  0.88950950  0.34140700  1
  F  F46  1  0.66451400  0.71465200  0.77812500  1
  F  F47  1  0.87985100  0.72171000  0.70272300  1
  F  F48  1  0.58208000  0.67077200  0.48049800  1
  F  F49  1  0.62014900  0.77829000  0.29727700  1
  F  F50  1  0.62888500  0.79885400  0.95354200  1
  F  F51  1  0.75193200  0.94271000  0.58942800  1
  F  F52  1  0.12888500  0.70114600  0.45354200  1
  F  F53  1  0.05671150  0.41722950  0.12851800  1
  F  F54  1  0.33548600  0.28534800  0.22187500  1
  F  F55  1  0.00560050  0.11049050  0.65859300  1
  F  F56  1  0.33548600  0.71465200  0.72187500  1
  F  F57  1  0.44328850  0.08277050  0.87148200  1
  F  F58  1  0.37111500  0.79885400  0.54645800  1
  F  F59  1  0.25193200  0.55729000  0.08942800  1
  F  F60  1  0.05671150  0.58277050  0.62851800  1
  F  F61  1  0.12014900  0.72171000  0.79727700  1
  F  F62  1  0.16451400  0.78534800  0.27812500  1
  F  F63  1  0.24806800  0.05729000  0.41057200  1
  F  F64  1  0.49439950  0.61049050  0.84140700  1
  F  F65  1  0.37111500  0.20114600  0.04645800  1
  F  F66  1  0.44328850  0.91722950  0.37148200  1
  F  F67  1  0.24806800  0.94271000  0.91057200  1
  F  F68  1  0.41792000  0.67077200  0.01950200  1
  F  F69  1  0.41792000  0.32922800  0.51950200  1
  F  F70  1  0.08208000  0.82922800  0.98049800  1
  F  F71  1  0.37985100  0.77829000  0.20272300  1
  F  F72  1  0.00560050  0.88950950  0.15859300  1
  F  F73  1  0.49439950  0.38950950  0.34140700  1
  F  F74  1  0.16451400  0.21465200  0.77812500  1
  F  F75  1  0.37985100  0.22171000  0.70272300  1
  F  F76  1  0.08208000  0.17077200  0.48049800  1
  F  F77  1  0.12014900  0.27829000  0.29727700  1
  F  F78  1  0.12888500  0.29885400  0.95354200  1
  F  F79  1  0.25193200  0.44271000  0.58942800  1
