# generated using pymatgen
data_Tm10Ti6O27
_symmetry_space_group_name_H-M   'P 1'
_cell_length_a   12.66060600
_cell_length_b   7.52064200
_cell_length_c   12.08390792
_cell_angle_alpha   90.00000000
_cell_angle_beta   111.87359247
_cell_angle_gamma   90.00000000
_symmetry_Int_Tables_number   1
_chemical_formula_structural   Tm10Ti6O27
_chemical_formula_sum   'Tm20 Ti12 O54'
_cell_volume   1067.74750919
_cell_formula_units_Z   2
loop_
 _symmetry_equiv_pos_site_id
 _symmetry_equiv_pos_as_xyz
  1  'x, y, z'
loop_
 _atom_site_type_symbol
 _atom_site_label
 _atom_site_symmetry_multiplicity
 _atom_site_fract_x
 _atom_site_fract_y
 _atom_site_fract_z
 _atom_site_occupancy
  Tm  Tm0  1  0.74658250  0.76390950  0.01779000  1
  Tm  Tm1  1  0.74658250  0.23609050  0.01779000  1
  Tm  Tm2  1  0.25303400  0.50000000  0.75425600  1
  Tm  Tm3  1  0.74141100  0.50000000  0.75082900  1
  Tm  Tm4  1  0.99218150  0.75810850  0.75104800  1
  Tm  Tm5  1  0.73176500  0.50000000  0.24107300  1
  Tm  Tm6  1  0.49381200  0.00000000  0.48116100  1
  Tm  Tm7  1  0.99218150  0.24189150  0.75104800  1
  Tm  Tm8  1  0.49880050  0.72111850  0.24711200  1
  Tm  Tm9  1  0.99880050  0.77888150  0.24711200  1
  Tm  Tm10  1  0.24658250  0.26390950  0.01779000  1
  Tm  Tm11  1  0.24658250  0.73609050  0.01779000  1
  Tm  Tm12  1  0.75303400  0.00000000  0.75425600  1
  Tm  Tm13  1  0.24141100  0.00000000  0.75082900  1
  Tm  Tm14  1  0.49218150  0.25810850  0.75104800  1
  Tm  Tm15  1  0.23176500  0.00000000  0.24107300  1
  Tm  Tm16  1  0.99381200  0.50000000  0.48116100  1
  Tm  Tm17  1  0.49218150  0.74189150  0.75104800  1
  Tm  Tm18  1  0.99880050  0.22111850  0.24711200  1
  Tm  Tm19  1  0.49880050  0.27888150  0.24711200  1
  Ti  Ti20  1  0.50324700  0.00000000  0.00306600  1
  Ti  Ti21  1  0.26035650  0.74404050  0.49997900  1
  Ti  Ti22  1  0.76035650  0.75595950  0.49997900  1
  Ti  Ti23  1  0.50341800  0.50000000  0.49112900  1
  Ti  Ti24  1  0.76069600  0.00000000  0.27902900  1
  Ti  Ti25  1  0.50710400  0.50000000  0.98380600  1
  Ti  Ti26  1  0.00324700  0.50000000  0.00306600  1
  Ti  Ti27  1  0.76035650  0.24404050  0.49997900  1
  Ti  Ti28  1  0.26035650  0.25595950  0.49997900  1
  Ti  Ti29  1  0.00341800  0.00000000  0.49112900  1
  Ti  Ti30  1  0.26069600  0.50000000  0.27902900  1
  Ti  Ti31  1  0.00710400  0.00000000  0.98380600  1
  O  O32  1  0.34781300  0.50000000  0.97057000  1
  O  O33  1  0.79031250  0.27937350  0.66021300  1
  O  O34  1  0.79031250  0.72062650  0.66021300  1
  O  O35  1  0.05121050  0.23357050  0.95284500  1
  O  O36  1  0.93205500  0.00000000  0.79911900  1
  O  O37  1  0.83276600  0.00000000  0.46657700  1
  O  O38  1  0.93828800  0.50000000  0.83047500  1
  O  O39  1  0.76115800  0.50000000  0.43547200  1
  O  O40  1  0.93007350  0.70693250  0.55487600  1
  O  O41  1  0.82914950  0.71665050  0.22814500  1
  O  O42  1  0.05121050  0.76642950  0.95284500  1
  O  O43  1  0.55880800  0.50000000  0.65890900  1
  O  O44  1  0.08123450  0.80722850  0.45590900  1
  O  O45  1  0.32914950  0.78334950  0.22814500  1
  O  O46  1  0.18219000  0.73474100  0.81632300  1
  O  O47  1  0.43007350  0.79306750  0.55487600  1
  O  O48  1  0.42957550  0.83581650  0.06607000  1
  O  O49  1  0.92152800  0.00000000  0.30942900  1
  O  O50  1  0.58123450  0.69277150  0.45590900  1
  O  O51  1  0.67420600  0.00000000  0.55245300  1
  O  O52  1  0.68219000  0.76525900  0.81632300  1
  O  O53  1  0.67571400  0.00000000  0.09677600  1
  O  O54  1  0.67462450  0.81755450  0.31274500  1
  O  O55  1  0.54751100  0.50000000  0.16314700  1
  O  O56  1  0.42957550  0.16418350  0.06607000  1
  O  O57  1  0.19558500  0.00000000  0.04411500  1
  O  O58  1  0.67462450  0.18244550  0.31274500  1
  O  O59  1  0.84781300  0.00000000  0.97057000  1
  O  O60  1  0.29031250  0.77937350  0.66021300  1
  O  O61  1  0.29031250  0.22062650  0.66021300  1
  O  O62  1  0.55121050  0.73357050  0.95284500  1
  O  O63  1  0.43205500  0.50000000  0.79911900  1
  O  O64  1  0.33276600  0.50000000  0.46657700  1
  O  O65  1  0.43828800  0.00000000  0.83047500  1
  O  O66  1  0.26115800  0.00000000  0.43547200  1
  O  O67  1  0.43007350  0.20693250  0.55487600  1
  O  O68  1  0.32914950  0.21665050  0.22814500  1
  O  O69  1  0.55121050  0.26642950  0.95284500  1
  O  O70  1  0.05880800  0.00000000  0.65890900  1
  O  O71  1  0.58123450  0.30722850  0.45590900  1
  O  O72  1  0.82914950  0.28334950  0.22814500  1
  O  O73  1  0.68219000  0.23474100  0.81632300  1
  O  O74  1  0.93007350  0.29306750  0.55487600  1
  O  O75  1  0.92957550  0.33581650  0.06607000  1
  O  O76  1  0.42152800  0.50000000  0.30942900  1
  O  O77  1  0.08123450  0.19277150  0.45590900  1
  O  O78  1  0.17420600  0.50000000  0.55245300  1
  O  O79  1  0.18219000  0.26525900  0.81632300  1
  O  O80  1  0.17571400  0.50000000  0.09677600  1
  O  O81  1  0.17462450  0.31755450  0.31274500  1
  O  O82  1  0.04751100  0.00000000  0.16314700  1
  O  O83  1  0.92957550  0.66418350  0.06607000  1
  O  O84  1  0.69558500  0.50000000  0.04411500  1
  O  O85  1  0.17462450  0.68244550  0.31274500  1
