# generated using pymatgen
data_UMoO5
_symmetry_space_group_name_H-M   'P 1'
_cell_length_a   4.14571300
_cell_length_b   7.45245800
_cell_length_c   13.01203900
_cell_angle_alpha   90.00000000
_cell_angle_beta   90.00000000
_cell_angle_gamma   90.00000000
_symmetry_Int_Tables_number   1
_chemical_formula_structural   UMoO5
_chemical_formula_sum   'U4 Mo4 O20'
_cell_volume   402.01673012
_cell_formula_units_Z   4
loop_
 _symmetry_equiv_pos_site_id
 _symmetry_equiv_pos_as_xyz
  1  'x, y, z'
loop_
 _atom_site_type_symbol
 _atom_site_label
 _atom_site_symmetry_multiplicity
 _atom_site_fract_x
 _atom_site_fract_y
 _atom_site_fract_z
 _atom_site_occupancy
  U  U0  1  0.00000000  0.75000000  0.02128900  1
  U  U1  1  0.00000000  0.25000000  0.97871100  1
  U  U2  1  0.00000000  0.75000000  0.52128900  1
  U  U3  1  0.00000000  0.25000000  0.47871100  1
  Mo  Mo4  1  0.09749000  0.50000000  0.25000000  1
  Mo  Mo5  1  0.90251000  0.50000000  0.75000000  1
  Mo  Mo6  1  0.09749000  0.00000000  0.75000000  1
  Mo  Mo7  1  0.90251000  0.00000000  0.25000000  1
  O  O8  1  0.01101300  0.95745300  0.90201600  1
  O  O9  1  0.01101300  0.54254700  0.40201600  1
  O  O10  1  0.01101300  0.45745300  0.09798400  1
  O  O11  1  0.48244300  0.50000000  0.75000000  1
  O  O12  1  0.50000000  0.75000000  0.02639500  1
  O  O13  1  0.51755700  0.00000000  0.75000000  1
  O  O14  1  0.98898700  0.04254700  0.09798400  1
  O  O15  1  0.01101300  0.04254700  0.59798400  1
  O  O16  1  0.00000000  0.25000000  0.79557200  1
  O  O17  1  0.98898700  0.45745300  0.59798400  1
  O  O18  1  0.98898700  0.54254700  0.90201600  1
  O  O19  1  0.50000000  0.25000000  0.97360500  1
  O  O20  1  0.00000000  0.75000000  0.70442800  1
  O  O21  1  0.51755700  0.50000000  0.25000000  1
  O  O22  1  0.00000000  0.75000000  0.20442800  1
  O  O23  1  0.50000000  0.75000000  0.52639500  1
  O  O24  1  0.50000000  0.25000000  0.47360500  1
  O  O25  1  0.98898700  0.95745300  0.40201600  1
  O  O26  1  0.48244300  0.00000000  0.25000000  1
  O  O27  1  0.00000000  0.25000000  0.29557200  1
