# generated using pymatgen
data_CrWO4
_symmetry_space_group_name_H-M   'P 1'
_cell_length_a   9.43697521
_cell_length_b   5.94062159
_cell_length_c   4.73727818
_cell_angle_alpha   90.00000000
_cell_angle_beta   92.00864597
_cell_angle_gamma   90.00000000
_symmetry_Int_Tables_number   1
_chemical_formula_structural   CrWO4
_chemical_formula_sum   'Cr4 W4 O16'
_cell_volume   265.41572933
_cell_formula_units_Z   4
loop_
 _symmetry_equiv_pos_site_id
 _symmetry_equiv_pos_as_xyz
  1  'x, y, z'
loop_
 _atom_site_type_symbol
 _atom_site_label
 _atom_site_symmetry_multiplicity
 _atom_site_fract_x
 _atom_site_fract_y
 _atom_site_fract_z
 _atom_site_occupancy
  Cr  Cr0  1  0.74041550  0.00000000  0.50940150  1
  Cr  Cr1  1  0.25958450  0.00000000  0.49059850  1
  Cr  Cr2  1  0.24041550  0.50000000  0.50940150  1
  Cr  Cr3  1  0.75958450  0.50000000  0.49059850  1
  W  W4  1  0.50000000  0.72836200  0.00000000  1
  W  W5  1  0.50000000  0.27163800  0.00000000  1
  W  W6  1  0.00000000  0.22836200  0.00000000  1
  W  W7  1  0.00000000  0.77163800  0.00000000  1
  O  O8  1  0.40784650  0.00000000  0.19078450  1
  O  O9  1  0.59215350  0.00000000  0.80921550  1
  O  O10  1  0.11235150  0.00000000  0.78436950  1
  O  O11  1  0.88764850  0.00000000  0.21563050  1
  O  O12  1  0.35199700  0.25559700  0.70354150  1
  O  O13  1  0.64800300  0.25559700  0.29645850  1
  O  O14  1  0.64800300  0.74440300  0.29645850  1
  O  O15  1  0.35199700  0.74440300  0.70354150  1
  O  O16  1  0.90784650  0.50000000  0.19078450  1
  O  O17  1  0.09215350  0.50000000  0.80921550  1
  O  O18  1  0.61235150  0.50000000  0.78436950  1
  O  O19  1  0.38764850  0.50000000  0.21563050  1
  O  O20  1  0.85199700  0.75559700  0.70354150  1
  O  O21  1  0.14800300  0.75559700  0.29645850  1
  O  O22  1  0.14800300  0.24440300  0.29645850  1
  O  O23  1  0.85199700  0.24440300  0.70354150  1
