# generated using pymatgen
data_KHCO2
_symmetry_space_group_name_H-M   'P 1'
_cell_length_a   5.93119400
_cell_length_b   6.95116600
_cell_length_c   7.05183000
_cell_angle_alpha   90.00000000
_cell_angle_beta   90.00000000
_cell_angle_gamma   90.00000000
_symmetry_Int_Tables_number   1
_chemical_formula_structural   KHCO2
_chemical_formula_sum   'K4 H4 C4 O8'
_cell_volume   290.73788276
_cell_formula_units_Z   4
loop_
 _symmetry_equiv_pos_site_id
 _symmetry_equiv_pos_as_xyz
  1  'x, y, z'
loop_
 _atom_site_type_symbol
 _atom_site_label
 _atom_site_symmetry_multiplicity
 _atom_site_fract_x
 _atom_site_fract_y
 _atom_site_fract_z
 _atom_site_occupancy
  K  K0  1  0.00000000  0.00000000  0.50000000  1
  K  K1  1  0.00000000  0.00000000  0.00000000  1
  K  K2  1  0.50000000  0.50000000  0.50000000  1
  K  K3  1  0.50000000  0.50000000  0.00000000  1
  H  H4  1  0.50000000  0.05839800  0.25000000  1
  H  H5  1  0.50000000  0.94160200  0.75000000  1
  H  H6  1  0.00000000  0.55839800  0.25000000  1
  H  H7  1  0.00000000  0.44160200  0.75000000  1
  C  C8  1  0.50000000  0.89816400  0.25000000  1
  C  C9  1  0.50000000  0.10183600  0.75000000  1
  C  C10  1  0.00000000  0.39816400  0.25000000  1
  C  C11  1  0.00000000  0.60183600  0.75000000  1
  O  O12  1  0.30905800  0.81431800  0.25000000  1
  O  O13  1  0.30905800  0.18568200  0.75000000  1
  O  O14  1  0.69094200  0.18568200  0.75000000  1
  O  O15  1  0.69094200  0.81431800  0.25000000  1
  O  O16  1  0.80905800  0.31431800  0.25000000  1
  O  O17  1  0.80905800  0.68568200  0.75000000  1
  O  O18  1  0.19094200  0.68568200  0.75000000  1
  O  O19  1  0.19094200  0.31431800  0.25000000  1
