# generated using pymatgen
data_BaH4O3
_symmetry_space_group_name_H-M   'P 1'
_cell_length_a   4.16636800
_cell_length_b   6.42792176
_cell_length_c   7.19083208
_cell_angle_alpha   70.67704414
_cell_angle_beta   89.40556859
_cell_angle_gamma   89.28409630
_symmetry_Int_Tables_number   1
_chemical_formula_structural   BaH4O3
_chemical_formula_sum   'Ba2 H8 O6'
_cell_volume   181.71191024
_cell_formula_units_Z   2
loop_
 _symmetry_equiv_pos_site_id
 _symmetry_equiv_pos_as_xyz
  1  'x, y, z'
loop_
 _atom_site_type_symbol
 _atom_site_label
 _atom_site_symmetry_multiplicity
 _atom_site_fract_x
 _atom_site_fract_y
 _atom_site_fract_z
 _atom_site_occupancy
  Ba  Ba0  1  0.74855100  0.13470400  0.71803000  1
  Ba  Ba1  1  0.25144900  0.86529600  0.28197000  1
  H  H2  1  0.24821600  0.35060500  0.93783300  1
  H  H3  1  0.75178400  0.64939500  0.06216700  1
  H  H4  1  0.24986500  0.76742200  0.83212100  1
  H  H5  1  0.75013500  0.23257800  0.16787900  1
  H  H6  1  0.44101500  0.31488200  0.33892400  1
  H  H7  1  0.05564600  0.31937500  0.33828900  1
  H  H8  1  0.94954400  0.65880600  0.65933200  1
  H  H9  1  0.55898500  0.68511800  0.66107600  1
  O  O10  1  0.24790100  0.38950000  0.37864700  1
  O  O11  1  0.75624000  0.59794100  0.61346300  1
  O  O12  1  0.24225000  0.20025100  0.93643600  1
  O  O13  1  0.75775000  0.79974900  0.06356400  1
  O  O14  1  0.26851100  0.81897000  0.68874200  1
  O  O15  1  0.75079200  0.17117500  0.30659500  1
