# generated using pymatgen
data_Ba2NdSbO6
_symmetry_space_group_name_H-M   'P 1'
_cell_length_a   6.14220021
_cell_length_b   6.14220021
_cell_length_c   14.94449130
_cell_angle_alpha   90.00000000
_cell_angle_beta   90.00000000
_cell_angle_gamma   120.00000000
_symmetry_Int_Tables_number   1
_chemical_formula_structural   Ba2NdSbO6
_chemical_formula_sum   'Ba6 Nd3 Sb3 O18'
_cell_volume   488.26962291
_cell_formula_units_Z   3
loop_
 _symmetry_equiv_pos_site_id
 _symmetry_equiv_pos_as_xyz
  1  'x, y, z'
loop_
 _atom_site_type_symbol
 _atom_site_label
 _atom_site_symmetry_multiplicity
 _atom_site_fract_x
 _atom_site_fract_y
 _atom_site_fract_z
 _atom_site_occupancy
  Ba  Ba0  1  0.33333333  0.66666667  0.41572667  1
  Ba  Ba1  1  0.33333333  0.66666667  0.91760667  1
  Ba  Ba2  1  0.00000000  0.00000000  0.74906000  1
  Ba  Ba3  1  0.00000000  0.00000000  0.25094000  1
  Ba  Ba4  1  0.66666667  0.33333333  0.08239333  1
  Ba  Ba5  1  0.66666667  0.33333333  0.58427333  1
  Nd  Nd6  1  0.00000000  0.00000000  0.00000000  1
  Nd  Nd7  1  0.66666667  0.33333333  0.33333333  1
  Nd  Nd8  1  0.33333333  0.66666667  0.66666667  1
  Sb  Sb9  1  0.33333333  0.66666667  0.16666667  1
  Sb  Sb10  1  1.00000000  0.00000000  0.50000000  1
  Sb  Sb11  1  0.66666667  0.33333333  0.83333333  1
  O  O12  1  0.02551233  0.47359067  0.24460567  1
  O  O13  1  0.52640933  0.55192167  0.24460567  1
  O  O14  1  0.44807833  0.97448767  0.24460567  1
  O  O15  1  0.64115433  0.85974267  0.08872767  1
  O  O16  1  0.21858833  0.35884567  0.08872767  1
  O  O17  1  0.14025733  0.78141167  0.08872767  1
  O  O18  1  0.69217900  0.80692400  0.57793900  1
  O  O19  1  0.19307600  0.88525500  0.57793900  1
  O  O20  1  0.11474500  0.30782100  0.57793900  1
  O  O21  1  0.30782100  0.19307600  0.42206100  1
  O  O22  1  0.88525500  0.69217900  0.42206100  1
  O  O23  1  0.80692400  0.11474500  0.42206100  1
  O  O24  1  0.35884567  0.14025733  0.91127233  1
  O  O25  1  0.85974267  0.21858833  0.91127233  1
  O  O26  1  0.78141167  0.64115433  0.91127233  1
  O  O27  1  0.97448767  0.52640933  0.75539433  1
  O  O28  1  0.55192167  0.02551233  0.75539433  1
  O  O29  1  0.47359067  0.44807833  0.75539433  1
