# generated using pymatgen
data_SF6
_symmetry_space_group_name_H-M   'P 1'
_cell_length_a   4.86664900
_cell_length_b   8.19580465
_cell_length_c   8.21407342
_cell_angle_alpha   60.91328750
_cell_angle_beta   85.50357381
_cell_angle_gamma   85.54885029
_symmetry_Int_Tables_number   1
_chemical_formula_structural   SF6
_chemical_formula_sum   'S3 F18'
_cell_volume   285.13396744
_cell_formula_units_Z   3
loop_
 _symmetry_equiv_pos_site_id
 _symmetry_equiv_pos_as_xyz
  1  'x, y, z'
loop_
 _atom_site_type_symbol
 _atom_site_label
 _atom_site_symmetry_multiplicity
 _atom_site_fract_x
 _atom_site_fract_y
 _atom_site_fract_z
 _atom_site_occupancy
  S  S0  1  0.00000000  0.00000000  0.00000000  1
  S  S1  1  0.40890300  0.66893500  0.66844400  1
  S  S2  1  0.59109700  0.33106500  0.33155600  1
  F  F3  1  0.12030100  0.90206800  0.20237500  1
  F  F4  1  0.87969900  0.09793200  0.79762500  1
  F  F5  1  0.87824600  0.80750400  0.04316100  1
  F  F6  1  0.12175400  0.19249600  0.95683900  1
  F  F7  1  0.72081900  0.05370400  0.08045500  1
  F  F8  1  0.27918100  0.94629600  0.91954500  1
  F  F9  1  0.22945100  0.58763900  0.85997800  1
  F  F10  1  0.77054900  0.41236100  0.14002200  1
  F  F11  1  0.58803700  0.75027000  0.47697600  1
  F  F12  1  0.41196300  0.24973000  0.52302400  1
  F  F13  1  0.19354900  0.59600500  0.58443100  1
  F  F14  1  0.80645100  0.40399500  0.41556900  1
  F  F15  1  0.62372100  0.74097200  0.75296800  1
  F  F16  1  0.37627900  0.25902800  0.24703200  1
  F  F17  1  0.23596800  0.86297800  0.59403700  1
  F  F18  1  0.76403200  0.13702200  0.40596300  1
  F  F19  1  0.58111800  0.47440500  0.74292500  1
  F  F20  1  0.41888200  0.52559500  0.25707500  1
