# generated using pymatgen
data_KDyH2C2SO9
_symmetry_space_group_name_H-M   'P 1'
_cell_length_a   6.59708800
_cell_length_b   8.65153900
_cell_length_c   14.88120209
_cell_angle_alpha   90.00000000
_cell_angle_beta   112.05024931
_cell_angle_gamma   90.00000000
_symmetry_Int_Tables_number   1
_chemical_formula_structural   KDyH2C2SO9
_chemical_formula_sum   'K4 Dy4 H8 C8 S4 O36'
_cell_volume   787.21877080
_cell_formula_units_Z   4
loop_
 _symmetry_equiv_pos_site_id
 _symmetry_equiv_pos_as_xyz
  1  'x, y, z'
loop_
 _atom_site_type_symbol
 _atom_site_label
 _atom_site_symmetry_multiplicity
 _atom_site_fract_x
 _atom_site_fract_y
 _atom_site_fract_z
 _atom_site_occupancy
  K  K0  1  0.03674500  0.84492200  0.80419200  1
  K  K1  1  0.03674500  0.65507800  0.30419200  1
  K  K2  1  0.96325500  0.34492200  0.69580800  1
  K  K3  1  0.96325500  0.15507800  0.19580800  1
  Dy  Dy4  1  0.33457800  0.76135500  0.08885400  1
  Dy  Dy5  1  0.66542200  0.26135500  0.41114600  1
  Dy  Dy6  1  0.33457800  0.73864500  0.58885400  1
  Dy  Dy7  1  0.66542200  0.23864500  0.91114600  1
  H  H8  1  0.03482600  0.95530900  0.42667600  1
  H  H9  1  0.96517400  0.45530900  0.07332400  1
  H  H10  1  0.73325000  0.03110600  0.57810500  1
  H  H11  1  0.96517400  0.04469100  0.57332400  1
  H  H12  1  0.26675000  0.53110600  0.92189500  1
  H  H13  1  0.03482600  0.54469100  0.92667600  1
  H  H14  1  0.26675000  0.96889400  0.42189500  1
  H  H15  1  0.73325000  0.46889400  0.07810500  1
  C  C16  1  0.63157900  0.52923100  0.76788100  1
  C  C17  1  0.36842100  0.47076900  0.23211900  1
  C  C18  1  0.41209900  0.53381800  0.78021500  1
  C  C19  1  0.58790100  0.46618200  0.21978500  1
  C  C20  1  0.58790100  0.03381800  0.71978500  1
  C  C21  1  0.63157900  0.97076900  0.26788100  1
  C  C22  1  0.41209900  0.96618200  0.28021500  1
  C  C23  1  0.36842100  0.02923100  0.73211900  1
  S  S24  1  0.25656300  0.33707400  0.52228600  1
  S  S25  1  0.74343700  0.83707400  0.97771400  1
  S  S26  1  0.25656300  0.16292600  0.02228600  1
  S  S27  1  0.74343700  0.66292600  0.47771400  1
  O  O28  1  0.95534300  0.72932900  0.54432400  1
  O  O29  1  0.77879100  0.05655500  0.32684600  1
  O  O30  1  0.56347300  0.73293700  0.50172500  1
  O  O31  1  0.56347300  0.76706300  0.00172500  1
  O  O32  1  0.64938700  0.60727900  0.69944100  1
  O  O33  1  0.77879100  0.44344500  0.82684600  1
  O  O34  1  0.39193900  0.05573200  0.34456200  1
  O  O35  1  0.17985200  0.59368500  0.95045700  1
  O  O36  1  0.22120900  0.55655500  0.17315400  1
  O  O37  1  0.35061300  0.39272100  0.30055900  1
  O  O38  1  0.70977600  0.80471000  0.87600600  1
  O  O39  1  0.73247100  0.37670000  0.27488900  1
  O  O40  1  0.35061300  0.10727900  0.80055900  1
  O  O41  1  0.25251500  0.50871800  0.50611900  1
  O  O42  1  0.17985200  0.90631500  0.45045700  1
  O  O43  1  0.73247100  0.12330000  0.77488900  1
  O  O44  1  0.26752900  0.87670000  0.22511100  1
  O  O45  1  0.70977600  0.69529000  0.37600600  1
  O  O46  1  0.82014800  0.40631500  0.04954300  1
  O  O47  1  0.29022400  0.19529000  0.12399400  1
  O  O48  1  0.60806100  0.55573200  0.15543800  1
  O  O49  1  0.64938700  0.89272100  0.19944100  1
  O  O50  1  0.43652700  0.23293700  0.99827500  1
  O  O51  1  0.95534300  0.77067100  0.04432400  1
  O  O52  1  0.39193900  0.44426800  0.84456200  1
  O  O53  1  0.60806100  0.94426800  0.65543800  1
  O  O54  1  0.43652700  0.26706300  0.49827500  1
  O  O55  1  0.04465700  0.22932900  0.95567600  1
  O  O56  1  0.26752900  0.62330000  0.72511100  1
  O  O57  1  0.25251500  0.99128200  0.00611900  1
  O  O58  1  0.74748500  0.49128200  0.49388100  1
  O  O59  1  0.04465700  0.27067100  0.45567600  1
  O  O60  1  0.29022400  0.30471000  0.62399400  1
  O  O61  1  0.82014800  0.09368500  0.54954300  1
  O  O62  1  0.22120900  0.94344500  0.67315400  1
  O  O63  1  0.74748500  0.00871800  0.99388100  1
