# generated using pymatgen
data_K2ZrCdH16(CO3)8
_symmetry_space_group_name_H-M   'P 1'
_cell_length_a   11.41172400
_cell_length_b   11.41172400
_cell_length_c   9.00069000
_cell_angle_alpha   90.00000000
_cell_angle_beta   90.00000000
_cell_angle_gamma   90.00000000
_symmetry_Int_Tables_number   1
_chemical_formula_structural   K2ZrCdH16(CO3)8
_chemical_formula_sum   'K4 Zr2 Cd2 H32 C16 O48'
_cell_volume   1172.13685881
_cell_formula_units_Z   2
loop_
 _symmetry_equiv_pos_site_id
 _symmetry_equiv_pos_as_xyz
  1  'x, y, z'
loop_
 _atom_site_type_symbol
 _atom_site_label
 _atom_site_symmetry_multiplicity
 _atom_site_fract_x
 _atom_site_fract_y
 _atom_site_fract_z
 _atom_site_occupancy
  K  K0  1  0.00000000  0.00000000  0.50000000  1
  K  K1  1  0.50000000  0.00000000  0.75000000  1
  K  K2  1  0.50000000  0.50000000  0.00000000  1
  K  K3  1  0.00000000  0.50000000  0.25000000  1
  Zr  Zr4  1  0.50000000  0.00000000  0.25000000  1
  Zr  Zr5  1  0.00000000  0.50000000  0.75000000  1
  Cd  Cd6  1  0.00000000  0.00000000  0.00000000  1
  Cd  Cd7  1  0.50000000  0.50000000  0.50000000  1
  H  H8  1  0.58919300  0.24496300  0.01803900  1
  H  H9  1  0.41080700  0.75503700  0.01803900  1
  H  H10  1  0.25503700  0.08919300  0.48196100  1
  H  H11  1  0.74496300  0.91080700  0.48196100  1
  H  H12  1  0.66220900  0.25220400  0.86931700  1
  H  H13  1  0.33779100  0.74779600  0.86931700  1
  H  H14  1  0.24779600  0.16220900  0.63068300  1
  H  H15  1  0.75220400  0.83779100  0.63068300  1
  H  H16  1  0.74451700  0.17166000  0.62157500  1
  H  H17  1  0.25548300  0.82834000  0.62157500  1
  H  H18  1  0.32834000  0.24451700  0.87842500  1
  H  H19  1  0.67166000  0.75548300  0.87842500  1
  H  H20  1  0.75550400  0.08825400  0.76054800  1
  H  H21  1  0.24449600  0.91174600  0.76054800  1
  H  H22  1  0.41174600  0.25550400  0.73945200  1
  H  H23  1  0.58825400  0.74449600  0.73945200  1
  H  H24  1  0.08919300  0.74496300  0.51803900  1
  H  H25  1  0.91080700  0.25503700  0.51803900  1
  H  H26  1  0.75503700  0.58919300  0.98196100  1
  H  H27  1  0.24496300  0.41080700  0.98196100  1
  H  H28  1  0.16220900  0.75220400  0.36931700  1
  H  H29  1  0.83779100  0.24779600  0.36931700  1
  H  H30  1  0.74779600  0.66220900  0.13068300  1
  H  H31  1  0.25220400  0.33779100  0.13068300  1
  H  H32  1  0.24451700  0.67166000  0.12157500  1
  H  H33  1  0.75548300  0.32834000  0.12157500  1
  H  H34  1  0.82834000  0.74451700  0.37842500  1
  H  H35  1  0.17166000  0.25548300  0.37842500  1
  H  H36  1  0.25550400  0.58825400  0.26054800  1
  H  H37  1  0.74449600  0.41174600  0.26054800  1
  H  H38  1  0.91174600  0.75550400  0.23945200  1
  H  H39  1  0.08825400  0.24449600  0.23945200  1
  C  C40  1  0.22976350  0.00571050  0.21117750  1
  C  C41  1  0.77023650  0.99428950  0.21117750  1
  C  C42  1  0.49428950  0.72976350  0.28882250  1
  C  C43  1  0.50571050  0.27023650  0.28882250  1
  C  C44  1  0.27659300  0.99900900  0.05128600  1
  C  C45  1  0.72340700  0.00099100  0.05128600  1
  C  C46  1  0.50099100  0.77659300  0.44871400  1
  C  C47  1  0.49900900  0.22340700  0.44871400  1
  C  C48  1  0.72976350  0.50571050  0.71117750  1
  C  C49  1  0.27023650  0.49428950  0.71117750  1
  C  C50  1  0.99428950  0.22976350  0.78882250  1
  C  C51  1  0.00571050  0.77023650  0.78882250  1
  C  C52  1  0.77659300  0.49900900  0.55128600  1
  C  C53  1  0.22340700  0.50099100  0.55128600  1
  C  C54  1  0.00099100  0.27659300  0.94871400  1
  C  C55  1  0.99900900  0.72340700  0.94871400  1
  O  O56  1  0.31118350  0.00546750  0.31140750  1
  O  O57  1  0.68881650  0.99453250  0.31140750  1
  O  O58  1  0.49453250  0.81118350  0.18859250  1
  O  O59  1  0.50546750  0.18881650  0.18859250  1
  O  O60  1  0.12259400  0.01210500  0.23359800  1
  O  O61  1  0.87740600  0.98789500  0.23359800  1
  O  O62  1  0.48789500  0.62259400  0.26640200  1
  O  O63  1  0.51210500  0.37740600  0.26640200  1
  O  O64  1  0.20584150  0.99788050  0.94472850  1
  O  O65  1  0.79415850  0.00211950  0.94472850  1
  O  O66  1  0.50211950  0.70584150  0.55527150  1
  O  O67  1  0.49788050  0.29415850  0.55527150  1
  O  O68  1  0.38816700  0.99534200  0.04234700  1
  O  O69  1  0.61183300  0.00465800  0.04234700  1
  O  O70  1  0.50465800  0.88816700  0.45765300  1
  O  O71  1  0.49534200  0.11183300  0.45765300  1
  O  O72  1  0.64571200  0.29380000  0.96312000  1
  O  O73  1  0.35428800  0.70620000  0.96312000  1
  O  O74  1  0.20620000  0.14571200  0.53688000  1
  O  O75  1  0.79380000  0.85428800  0.53688000  1
  O  O76  1  0.70340550  0.14471150  0.71214250  1
  O  O77  1  0.29659450  0.85528850  0.71214250  1
  O  O78  1  0.35528850  0.20340550  0.78785750  1
  O  O79  1  0.64471150  0.79659450  0.78785750  1
  O  O80  1  0.81118350  0.50546750  0.81140750  1
  O  O81  1  0.18881650  0.49453250  0.81140750  1
  O  O82  1  0.99453250  0.31118350  0.68859250  1
  O  O83  1  0.00546750  0.68881650  0.68859250  1
  O  O84  1  0.62259400  0.51210500  0.73359800  1
  O  O85  1  0.37740600  0.48789500  0.73359800  1
  O  O86  1  0.98789500  0.12259400  0.76640200  1
  O  O87  1  0.01210500  0.87740600  0.76640200  1
  O  O88  1  0.70584150  0.49788050  0.44472850  1
  O  O89  1  0.29415850  0.50211950  0.44472850  1
  O  O90  1  0.00211950  0.20584150  0.05527150  1
  O  O91  1  0.99788050  0.79415850  0.05527150  1
  O  O92  1  0.88816700  0.49534200  0.54234700  1
  O  O93  1  0.11183300  0.50465800  0.54234700  1
  O  O94  1  0.00465800  0.38816700  0.95765300  1
  O  O95  1  0.99534200  0.61183300  0.95765300  1
  O  O96  1  0.14571200  0.79380000  0.46312000  1
  O  O97  1  0.85428800  0.20620000  0.46312000  1
  O  O98  1  0.70620000  0.64571200  0.03688000  1
  O  O99  1  0.29380000  0.35428800  0.03688000  1
  O  O100  1  0.20340550  0.64471150  0.21214250  1
  O  O101  1  0.79659450  0.35528850  0.21214250  1
  O  O102  1  0.85528850  0.70340550  0.28785750  1
  O  O103  1  0.14471150  0.29659450  0.28785750  1
