# generated using pymatgen
data_K2O
_symmetry_space_group_name_H-M   'P 1'
_cell_length_a   7.38990400
_cell_length_b   7.39415200
_cell_length_c   7.59035953
_cell_angle_alpha   90.00000000
_cell_angle_beta   118.40553722
_cell_angle_gamma   90.00000000
_symmetry_Int_Tables_number   1
_chemical_formula_structural   K2O
_chemical_formula_sum   'K8 O4'
_cell_volume   364.81780333
_cell_formula_units_Z   4
loop_
 _symmetry_equiv_pos_site_id
 _symmetry_equiv_pos_as_xyz
  1  'x, y, z'
loop_
 _atom_site_type_symbol
 _atom_site_label
 _atom_site_symmetry_multiplicity
 _atom_site_fract_x
 _atom_site_fract_y
 _atom_site_fract_z
 _atom_site_occupancy
  K  K0  1  0.19852800  0.12245700  0.14846100  1
  K  K1  1  0.80147200  0.12245700  0.35153900  1
  K  K2  1  0.80147200  0.87754300  0.85153900  1
  K  K3  1  0.19852800  0.87754300  0.64846100  1
  K  K4  1  0.69852800  0.62245700  0.14846100  1
  K  K5  1  0.30147200  0.62245700  0.35153900  1
  K  K6  1  0.30147200  0.37754300  0.85153900  1
  K  K7  1  0.69852800  0.37754300  0.64846100  1
  O  O8  1  0.50000000  0.37063100  0.25000000  1
  O  O9  1  0.50000000  0.62936900  0.75000000  1
  O  O10  1  0.00000000  0.87063100  0.25000000  1
  O  O11  1  0.00000000  0.12936900  0.75000000  1
