# generated using pymatgen
data_BeF2
_symmetry_space_group_name_H-M   'P 1'
_cell_length_a   6.93018400
_cell_length_b   12.62160496
_cell_length_c   7.16657758
_cell_angle_alpha   90.00000000
_cell_angle_beta   117.96241694
_cell_angle_gamma   90.00000000
_symmetry_Int_Tables_number   1
_chemical_formula_structural   BeF2
_chemical_formula_sum   'Be16 F32'
_cell_volume   553.67821075
_cell_formula_units_Z   16
loop_
 _symmetry_equiv_pos_site_id
 _symmetry_equiv_pos_as_xyz
  1  'x, y, z'
loop_
 _atom_site_type_symbol
 _atom_site_label
 _atom_site_symmetry_multiplicity
 _atom_site_fract_x
 _atom_site_fract_y
 _atom_site_fract_z
 _atom_site_occupancy
  Be  Be0  1  0.45055500  0.89261900  0.35720650  1
  Be  Be1  1  0.00779000  0.83461000  0.09545050  1
  Be  Be2  1  0.55621300  0.89298400  0.81489450  1
  Be  Be3  1  0.08723300  0.89780300  0.73398550  1
  Be  Be4  1  0.41357900  0.60250800  0.76563950  1
  Be  Be5  1  0.94497600  0.60631400  0.68120650  1
  Be  Be6  1  0.49252900  0.66650200  0.40481050  1
  Be  Be7  1  0.04835000  0.60791100  0.14049750  1
  Be  Be8  1  0.91276700  0.39780300  0.26601450  1
  Be  Be9  1  0.44378700  0.39298400  0.18510550  1
  Be  Be10  1  0.99221000  0.33461000  0.90454950  1
  Be  Be11  1  0.54944500  0.39261900  0.64279350  1
  Be  Be12  1  0.95165000  0.10791100  0.85950250  1
  Be  Be13  1  0.50747100  0.16650200  0.59518950  1
  Be  Be14  1  0.05502400  0.10631400  0.31879350  1
  Be  Be15  1  0.58642100  0.10250800  0.23436050  1
  F  F16  1  0.19355500  0.90452000  0.26470350  1
  F  F17  1  0.55556500  0.90058300  0.60775050  1
  F  F18  1  0.77333800  0.88919200  0.01102350  1
  F  F19  1  0.35147300  0.89056100  0.82744150  1
  F  F20  1  0.00438300  0.72325900  0.18535550  1
  F  F21  1  0.96580300  0.86058700  0.51660250  1
  F  F22  1  0.95726500  0.51877800  0.22126450  1
  F  F23  1  0.04454100  0.82531800  0.89709150  1
  F  F24  1  0.46007200  0.67581400  0.60590750  1
  F  F25  1  0.53988400  0.98178400  0.27536550  1
  F  F26  1  0.52750800  0.64003300  0.98323350  1
  F  F27  1  0.49233000  0.77708600  0.31165850  1
  F  F28  1  0.14788000  0.60688700  0.66621450  1
  F  F29  1  0.72650000  0.61166600  0.48675550  1
  F  F30  1  0.94847000  0.59917700  0.89074850  1
  F  F31  1  0.64852700  0.39056100  0.17255850  1
  F  F32  1  0.30569800  0.59611200  0.23732650  1
  F  F33  1  0.03419700  0.36058700  0.48339750  1
  F  F34  1  0.22666200  0.38919200  0.98897650  1
  F  F35  1  0.80644500  0.40452000  0.73529650  1
  F  F36  1  0.95545900  0.32531800  0.10290850  1
  F  F37  1  0.44443500  0.40058300  0.39224950  1
  F  F38  1  0.99561700  0.22325900  0.81464450  1
  F  F39  1  0.04273500  0.01877800  0.77873550  1
  F  F40  1  0.50767000  0.27708600  0.68834150  1
  F  F41  1  0.05153000  0.09917700  0.10925150  1
  F  F42  1  0.53992800  0.17581400  0.39409250  1
  F  F43  1  0.69430200  0.09611200  0.76267350  1
  F  F44  1  0.46011600  0.48178400  0.72463450  1
  F  F45  1  0.27350000  0.11166600  0.51324450  1
  F  F46  1  0.47249200  0.14003300  0.01676650  1
  F  F47  1  0.85212000  0.10688700  0.33378550  1
