# generated using pymatgen
data_LiSb2P5O16
_symmetry_space_group_name_H-M   'P 1'
_cell_length_a   7.39223300
_cell_length_b   10.59382100
_cell_length_c   10.09509937
_cell_angle_alpha   90.00000000
_cell_angle_beta   107.17983541
_cell_angle_gamma   90.00000000
_symmetry_Int_Tables_number   1
_chemical_formula_structural   LiSb2P5O16
_chemical_formula_sum   'Li2 Sb4 P10 O32'
_cell_volume   755.29411450
_cell_formula_units_Z   2
loop_
 _symmetry_equiv_pos_site_id
 _symmetry_equiv_pos_as_xyz
  1  'x, y, z'
loop_
 _atom_site_type_symbol
 _atom_site_label
 _atom_site_symmetry_multiplicity
 _atom_site_fract_x
 _atom_site_fract_y
 _atom_site_fract_z
 _atom_site_occupancy
  Li  Li0  1  0.89877000  0.34676400  0.24315600  1
  Li  Li1  1  0.89877000  0.65323600  0.74315600  1
  Sb  Sb2  1  0.93082000  0.36704600  0.64368700  1
  Sb  Sb3  1  0.37296300  0.13750700  0.00336600  1
  Sb  Sb4  1  0.93082000  0.63295400  0.14368700  1
  Sb  Sb5  1  0.37296300  0.86249300  0.50336600  1
  P  P6  1  0.50490100  0.53066200  0.49485000  1
  P  P7  1  0.25487700  0.89327000  0.16984700  1
  P  P8  1  0.11181100  0.59926200  0.48205300  1
  P  P9  1  0.25487700  0.10673000  0.66984700  1
  P  P10  1  0.62728100  0.86323800  0.12188300  1
  P  P11  1  0.54097200  0.28702800  0.35780000  1
  P  P12  1  0.54097200  0.71297200  0.85780000  1
  P  P13  1  0.50490100  0.46933800  0.99485000  1
  P  P14  1  0.62728100  0.13676200  0.62188300  1
  P  P15  1  0.11181100  0.40073800  0.98205300  1
  O  O16  1  0.66213100  0.48097800  0.61894600  1
  O  O17  1  0.01689900  0.41283400  0.09568700  1
  O  O18  1  0.50688200  0.77798100  0.99305200  1
  O  O19  1  0.16146700  0.76697200  0.12134400  1
  O  O20  1  0.75159000  0.29251300  0.37396500  1
  O  O21  1  0.48445700  0.86976900  0.21265900  1
  O  O22  1  0.46478100  0.57125900  0.87068200  1
  O  O23  1  0.66551400  0.99165300  0.07485900  1
  O  O24  1  0.31142000  0.52353900  0.53965800  1
  O  O25  1  0.46478100  0.42874100  0.37068200  1
  O  O26  1  0.66213100  0.51902200  0.11894600  1
  O  O27  1  0.66551400  0.00834700  0.57485900  1
  O  O28  1  0.31142000  0.47646100  0.03965800  1
  O  O29  1  0.40754900  0.22930600  0.23120400  1
  O  O30  1  0.52749100  0.65943600  0.44229100  1
  O  O31  1  0.79539900  0.21423100  0.70815300  1
  O  O32  1  0.48445700  0.13023100  0.71265900  1
  O  O33  1  0.20474900  0.99601500  0.05721400  1
  O  O34  1  0.16146700  0.23302800  0.62134400  1
  O  O35  1  0.79539900  0.78576900  0.20815300  1
  O  O36  1  0.75159000  0.70748700  0.87396500  1
  O  O37  1  0.00363800  0.46886400  0.84388900  1
  O  O38  1  0.01689900  0.58716600  0.59568700  1
  O  O39  1  0.52749100  0.34056400  0.94229100  1
  O  O40  1  0.40754900  0.77069400  0.73120400  1
  O  O41  1  0.23061600  0.94107600  0.30697300  1
  O  O42  1  0.00363800  0.53113600  0.34388900  1
  O  O43  1  0.14325200  0.73598200  0.44470600  1
  O  O44  1  0.14325200  0.26401800  0.94470600  1
  O  O45  1  0.23061600  0.05892400  0.80697300  1
  O  O46  1  0.50688200  0.22201900  0.49305200  1
  O  O47  1  0.20474900  0.00398500  0.55721400  1
