# generated using pymatgen
data_KPH2SO3
_symmetry_space_group_name_H-M   'P 1'
_cell_length_a   6.58394400
_cell_length_b   6.37463600
_cell_length_c   6.01697029
_cell_angle_alpha   90.00000000
_cell_angle_beta   108.31933536
_cell_angle_gamma   90.00000000
_symmetry_Int_Tables_number   1
_chemical_formula_structural   KPH2SO3
_chemical_formula_sum   'K2 P2 H4 S2 O6'
_cell_volume   239.73518089
_cell_formula_units_Z   2
loop_
 _symmetry_equiv_pos_site_id
 _symmetry_equiv_pos_as_xyz
  1  'x, y, z'
loop_
 _atom_site_type_symbol
 _atom_site_label
 _atom_site_symmetry_multiplicity
 _atom_site_fract_x
 _atom_site_fract_y
 _atom_site_fract_z
 _atom_site_occupancy
  K  K0  1  0.65274300  0.50000000  0.38809300  1
  K  K1  1  0.15274300  0.00000000  0.38809300  1
  P  P2  1  0.15513900  0.50000000  0.88879200  1
  P  P3  1  0.65513900  0.00000000  0.88879200  1
  H  H4  1  0.98166600  0.18864600  0.81108000  1
  H  H5  1  0.98166600  0.81135400  0.81108000  1
  H  H6  1  0.48166600  0.68864600  0.81108000  1
  H  H7  1  0.48166600  0.31135400  0.81108000  1
  S  S8  1  0.11519400  0.50000000  0.20200600  1
  S  S9  1  0.61519400  0.00000000  0.20200600  1
  O  O10  1  0.39291600  0.50000000  0.89604000  1
  O  O11  1  0.04325300  0.30557400  0.73045900  1
  O  O12  1  0.04325300  0.69442600  0.73045900  1
  O  O13  1  0.89291600  0.00000000  0.89604000  1
  O  O14  1  0.54325300  0.80557400  0.73045900  1
  O  O15  1  0.54325300  0.19442600  0.73045900  1
