# generated using pymatgen
data_H10C2N2O5
_symmetry_space_group_name_H-M   'P 1'
_cell_length_a   3.80591200
_cell_length_b   8.06257800
_cell_length_c   10.37081500
_cell_angle_alpha   90.00000000
_cell_angle_beta   90.00000000
_cell_angle_gamma   90.00000000
_symmetry_Int_Tables_number   1
_chemical_formula_structural   H10C2N2O5
_chemical_formula_sum   'H20 C4 N4 O10'
_cell_volume   318.23325334
_cell_formula_units_Z   2
loop_
 _symmetry_equiv_pos_site_id
 _symmetry_equiv_pos_as_xyz
  1  'x, y, z'
loop_
 _atom_site_type_symbol
 _atom_site_label
 _atom_site_symmetry_multiplicity
 _atom_site_fract_x
 _atom_site_fract_y
 _atom_site_fract_z
 _atom_site_occupancy
  H  H0  1  0.43790900  0.06014300  0.64599800  1
  H  H1  1  0.43790900  0.93985700  0.35400200  1
  H  H2  1  0.56209100  0.56014300  0.85400200  1
  H  H3  1  0.56209100  0.43985700  0.14599800  1
  H  H4  1  0.70967000  0.02177900  0.77622100  1
  H  H5  1  0.70967000  0.97822100  0.22377900  1
  H  H6  1  0.29033000  0.52177900  0.72377900  1
  H  H7  1  0.29033000  0.47822100  0.27622100  1
  H  H8  1  0.36763600  0.15302500  0.79171300  1
  H  H9  1  0.36763600  0.84697500  0.20828700  1
  H  H10  1  0.63236400  0.65302500  0.70828700  1
  H  H11  1  0.63236400  0.34697500  0.29171300  1
  H  H12  1  0.72574400  0.20675200  0.70012100  1
  H  H13  1  0.72574400  0.79324800  0.29987900  1
  H  H14  1  0.27425600  0.70675200  0.79987900  1
  H  H15  1  0.27425600  0.29324800  0.20012100  1
  H  H16  1  0.02951800  0.09949700  0.48360800  1
  H  H17  1  0.02951800  0.90050300  0.51639200  1
  H  H18  1  0.97048200  0.59949700  0.01639200  1
  H  H19  1  0.97048200  0.40050300  0.98360800  1
  C  C20  1  0.93057500  0.40740500  0.52335400  1
  C  C21  1  0.93057500  0.59259500  0.47664600  1
  C  C22  1  0.06942500  0.90740500  0.97664600  1
  C  C23  1  0.06942500  0.09259500  0.02335400  1
  N  N24  1  0.55830800  0.11013800  0.72755200  1
  N  N25  1  0.55830800  0.88986200  0.27244800  1
  N  N26  1  0.44169200  0.61013800  0.77244800  1
  N  N27  1  0.44169200  0.38986200  0.22755200  1
  O  O28  1  0.85850500  0.29698500  0.44012600  1
  O  O29  1  0.85850500  0.70301500  0.55987400  1
  O  O30  1  0.14149500  0.79698500  0.05987400  1
  O  O31  1  0.14149500  0.20301500  0.94012600  1
  O  O32  1  0.99923500  0.38025500  0.64117300  1
  O  O33  1  0.99923500  0.61974500  0.35882700  1
  O  O34  1  0.00076500  0.88025500  0.85882700  1
  O  O35  1  0.00076500  0.11974500  0.14117300  1
  O  O36  1  0.17958400  0.00000000  0.50000000  1
  O  O37  1  0.82041600  0.50000000  0.00000000  1
