# generated using pymatgen
data_Nd3O2F5
_symmetry_space_group_name_H-M   'P 1'
_cell_length_a   5.61409200
_cell_length_b   3.84161300
_cell_length_c   14.99465288
_cell_angle_alpha   90.00000000
_cell_angle_beta   93.31668542
_cell_angle_gamma   90.00000000
_symmetry_Int_Tables_number   1
_chemical_formula_structural   Nd3O2F5
_chemical_formula_sum   'Nd6 O4 F10'
_cell_volume   322.85053149
_cell_formula_units_Z   2
loop_
 _symmetry_equiv_pos_site_id
 _symmetry_equiv_pos_as_xyz
  1  'x, y, z'
loop_
 _atom_site_type_symbol
 _atom_site_label
 _atom_site_symmetry_multiplicity
 _atom_site_fract_x
 _atom_site_fract_y
 _atom_site_fract_z
 _atom_site_occupancy
  Nd  Nd0  1  0.07073700  0.00000000  0.09332200  1
  Nd  Nd1  1  0.16557400  0.00000000  0.73835100  1
  Nd  Nd2  1  0.19736000  0.00000000  0.36484400  1
  Nd  Nd3  1  0.65604700  0.50000000  0.51505600  1
  Nd  Nd4  1  0.58089700  0.50000000  0.21665800  1
  Nd  Nd5  1  0.57566400  0.50000000  0.90610900  1
  O  O6  1  0.33701500  0.00000000  0.22706700  1
  O  O7  1  0.37835400  0.50000000  0.77372800  1
  O  O8  1  0.43345300  0.50000000  0.37122900  1
  O  O9  1  0.95556900  0.50000000  0.15652000  1
  F  F10  1  0.80875500  0.00000000  0.95279100  1
  F  F11  1  0.89987600  0.00000000  0.48438200  1
  F  F12  1  0.42961100  0.00000000  0.50078700  1
  F  F13  1  0.32391700  0.00000000  0.89557700  1
  F  F14  1  0.64307400  0.00000000  0.11339800  1
  F  F15  1  0.31900500  0.50000000  0.03443000  1
  F  F16  1  0.90600200  0.50000000  0.64810300  1
  F  F17  1  0.91785100  0.50000000  0.82269300  1
  F  F18  1  0.35637600  0.50000000  0.60584400  1
  F  F19  1  0.91086300  0.50000000  0.34044400  1
