# generated using pymatgen
data_Mo(PO3)4
_symmetry_space_group_name_H-M   'P 1'
_cell_length_a   11.98900200
_cell_length_b   8.36442200
_cell_length_c   10.37702339
_cell_angle_alpha   90.00000000
_cell_angle_beta   120.14008941
_cell_angle_gamma   90.00000000
_symmetry_Int_Tables_number   1
_chemical_formula_structural   Mo(PO3)4
_chemical_formula_sum   'Mo4 P16 O48'
_cell_volume   899.92765580
_cell_formula_units_Z   4
loop_
 _symmetry_equiv_pos_site_id
 _symmetry_equiv_pos_as_xyz
  1  'x, y, z'
loop_
 _atom_site_type_symbol
 _atom_site_label
 _atom_site_symmetry_multiplicity
 _atom_site_fract_x
 _atom_site_fract_y
 _atom_site_fract_z
 _atom_site_occupancy
  Mo  Mo0  1  0.50000000  0.55526200  0.75000000  1
  Mo  Mo1  1  0.00000000  0.94473800  0.25000000  1
  Mo  Mo2  1  0.00000000  0.05526200  0.75000000  1
  Mo  Mo3  1  0.50000000  0.44473800  0.25000000  1
  P  P4  1  0.50973900  0.76226100  0.48010600  1
  P  P5  1  0.20082300  0.51310300  0.19787500  1
  P  P6  1  0.29917700  0.98689700  0.80212500  1
  P  P7  1  0.99026100  0.73773900  0.51989400  1
  P  P8  1  0.99026100  0.26226100  0.01989400  1
  P  P9  1  0.70082300  0.98689700  0.69787500  1
  P  P10  1  0.79917700  0.51310300  0.30212500  1
  P  P11  1  0.50973900  0.23773900  0.98010600  1
  P  P12  1  0.00973900  0.26226100  0.48010600  1
  P  P13  1  0.70082300  0.01310300  0.19787500  1
  P  P14  1  0.79917700  0.48689700  0.80212500  1
  P  P15  1  0.49026100  0.23773900  0.51989400  1
  P  P16  1  0.49026100  0.76226100  0.01989400  1
  P  P17  1  0.20082300  0.48689700  0.69787500  1
  P  P18  1  0.29917700  0.01310300  0.30212500  1
  P  P19  1  0.00973900  0.73773900  0.98010600  1
  O  O20  1  0.53190400  0.72981900  0.90723400  1
  O  O21  1  0.08948750  0.37775050  0.14666400  1
  O  O22  1  0.41051250  0.12224950  0.85333600  1
  O  O23  1  0.18815800  0.93551600  0.31266200  1
  O  O24  1  0.64092600  0.86294800  0.55760100  1
  O  O25  1  0.27263050  0.91891450  0.65977200  1
  O  O26  1  0.14092600  0.63705200  0.05760100  1
  O  O27  1  0.77263050  0.58108550  0.15977200  1
  O  O28  1  0.46697450  0.62186050  0.09414300  1
  O  O29  1  0.35907400  0.86294800  0.94239900  1
  O  O30  1  0.53302550  0.62186050  0.40585700  1
  O  O31  1  0.96809600  0.77018100  0.09276600  1
  O  O32  1  0.31184200  0.56448400  0.68733800  1
  O  O33  1  0.41051250  0.87775050  0.35333600  1
  O  O34  1  0.31184200  0.43551600  0.18733800  1
  O  O35  1  0.18815800  0.06448400  0.81266200  1
  O  O36  1  0.72736950  0.91891450  0.84022800  1
  O  O37  1  0.22736950  0.58108550  0.34022800  1
  O  O38  1  0.03190400  0.77018100  0.40723400  1
  O  O39  1  0.08948750  0.62224950  0.64666400  1
  O  O40  1  0.96697450  0.87813950  0.59414300  1
  O  O41  1  0.85907400  0.63705200  0.44239900  1
  O  O42  1  0.46809600  0.72981900  0.59276600  1
  O  O43  1  0.03302550  0.87813950  0.90585700  1
  O  O44  1  0.03190400  0.22981900  0.90723400  1
  O  O45  1  0.58948750  0.87775050  0.14666400  1
  O  O46  1  0.91051250  0.62224950  0.85333600  1
  O  O47  1  0.68815800  0.43551600  0.31266200  1
  O  O48  1  0.14092600  0.36294800  0.55760100  1
  O  O49  1  0.77263050  0.41891450  0.65977200  1
  O  O50  1  0.64092600  0.13705200  0.05760100  1
  O  O51  1  0.27263050  0.08108550  0.15977200  1
  O  O52  1  0.96697450  0.12186050  0.09414300  1
  O  O53  1  0.85907400  0.36294800  0.94239900  1
  O  O54  1  0.03302550  0.12186050  0.40585700  1
  O  O55  1  0.46809600  0.27018100  0.09276600  1
  O  O56  1  0.81184200  0.06448400  0.68733800  1
  O  O57  1  0.91051250  0.37775050  0.35333600  1
  O  O58  1  0.81184200  0.93551600  0.18733800  1
  O  O59  1  0.68815800  0.56448400  0.81266200  1
  O  O60  1  0.22736950  0.41891450  0.84022800  1
  O  O61  1  0.72736950  0.08108550  0.34022800  1
  O  O62  1  0.53190400  0.27018100  0.40723400  1
  O  O63  1  0.58948750  0.12224950  0.64666400  1
  O  O64  1  0.46697450  0.37813950  0.59414300  1
  O  O65  1  0.35907400  0.13705200  0.44239900  1
  O  O66  1  0.96809600  0.22981900  0.59276600  1
  O  O67  1  0.53302550  0.37813950  0.90585700  1
