# generated using pymatgen
data_YAl3(BO3)4
_symmetry_space_group_name_H-M   'P 1'
_cell_length_a   9.36460507
_cell_length_b   9.36460507
_cell_length_c   7.31166088
_cell_angle_alpha   90.00000000
_cell_angle_beta   90.00000000
_cell_angle_gamma   120.00000000
_symmetry_Int_Tables_number   1
_chemical_formula_structural   YAl3(BO3)4
_chemical_formula_sum   'Y3 Al9 B12 O36'
_cell_volume   555.29735619
_cell_formula_units_Z   3
loop_
 _symmetry_equiv_pos_site_id
 _symmetry_equiv_pos_as_xyz
  1  'x, y, z'
loop_
 _atom_site_type_symbol
 _atom_site_label
 _atom_site_symmetry_multiplicity
 _atom_site_fract_x
 _atom_site_fract_y
 _atom_site_fract_z
 _atom_site_occupancy
  Y  Y0  1  0.00000000  0.00000000  0.00000000  1
  Y  Y1  1  0.66666667  0.33333333  0.33333333  1
  Y  Y2  1  0.33333333  0.66666667  0.66666667  1
  Al  Al3  1  0.11146267  0.33333333  0.33333333  1
  Al  Al4  1  0.66666667  0.77812933  0.33333333  1
  Al  Al5  1  0.22187067  0.88853733  0.33333333  1
  Al  Al6  1  0.77812933  0.66666667  0.66666667  1
  Al  Al7  1  0.33333333  0.11146267  0.66666667  1
  Al  Al8  1  0.88853733  0.22187067  0.66666667  1
  Al  Al9  1  0.44479600  0.00000000  0.00000000  1
  Al  Al10  1  0.00000000  0.44479600  0.00000000  1
  Al  Al11  1  0.55520400  0.55520400  0.00000000  1
  B  B12  1  0.55652300  0.00000000  0.50000000  1
  B  B13  1  0.00000000  0.55652300  0.50000000  1
  B  B14  1  0.44347700  0.44347700  0.50000000  1
  B  B15  1  0.00000000  0.00000000  0.50000000  1
  B  B16  1  0.22318967  0.33333333  0.83333333  1
  B  B17  1  0.66666667  0.88985633  0.83333333  1
  B  B18  1  0.11014367  0.77681033  0.83333333  1
  B  B19  1  0.66666667  0.33333333  0.83333333  1
  B  B20  1  0.88985633  0.66666667  0.16666667  1
  B  B21  1  0.33333333  0.22318967  0.16666667  1
  B  B22  1  0.77681033  0.11014367  0.16666667  1
  B  B23  1  0.33333333  0.66666667  0.16666667  1
  O  O24  1  0.69908133  0.14926167  0.52157367  1
  O  O25  1  0.30091867  0.45018033  0.47842633  1
  O  O26  1  0.14926167  0.69908133  0.47842633  1
  O  O27  1  0.54981967  0.85073833  0.47842633  1
  O  O28  1  0.85136300  0.85136300  0.50000000  1
  O  O29  1  0.00000000  0.14863700  0.50000000  1
  O  O30  1  0.14863700  0.00000000  0.50000000  1
  O  O31  1  0.59179200  0.59179200  0.50000000  1
  O  O32  1  0.00000000  0.40820800  0.50000000  1
  O  O33  1  0.40820800  0.00000000  0.50000000  1
  O  O34  1  0.45018033  0.30091867  0.52157367  1
  O  O35  1  0.85073833  0.54981967  0.52157367  1
  O  O36  1  0.36574800  0.48259500  0.85490700  1
  O  O37  1  0.96758533  0.78351367  0.81175967  1
  O  O38  1  0.81592833  0.03241467  0.81175967  1
  O  O39  1  0.21648633  0.18407167  0.81175967  1
  O  O40  1  0.51802967  0.18469633  0.83333333  1
  O  O41  1  0.66666667  0.48197033  0.83333333  1
  O  O42  1  0.81530367  0.33333333  0.83333333  1
  O  O43  1  0.25845867  0.92512533  0.83333333  1
  O  O44  1  0.66666667  0.74154133  0.83333333  1
  O  O45  1  0.07487467  0.33333333  0.83333333  1
  O  O46  1  0.11684700  0.63425200  0.85490700  1
  O  O47  1  0.51740500  0.88315300  0.85490700  1
  O  O48  1  0.03241467  0.81592833  0.18824033  1
  O  O49  1  0.63425200  0.11684700  0.14509300  1
  O  O50  1  0.48259500  0.36574800  0.14509300  1
  O  O51  1  0.88315300  0.51740500  0.14509300  1
  O  O52  1  0.18469633  0.51802967  0.16666667  1
  O  O53  1  0.33333333  0.81530367  0.16666667  1
  O  O54  1  0.48197033  0.66666667  0.16666667  1
  O  O55  1  0.92512533  0.25845867  0.16666667  1
  O  O56  1  0.33333333  0.07487467  0.16666667  1
  O  O57  1  0.74154133  0.66666667  0.16666667  1
  O  O58  1  0.78351367  0.96758533  0.18824033  1
  O  O59  1  0.18407167  0.21648633  0.18824033  1
