# generated using pymatgen
data_BaH2C2O5
_symmetry_space_group_name_H-M   'P 1'
_cell_length_a   10.32672400
_cell_length_b   8.01289000
_cell_length_c   7.03253864
_cell_angle_alpha   90.00000000
_cell_angle_beta   122.06575789
_cell_angle_gamma   90.00000000
_symmetry_Int_Tables_number   1
_chemical_formula_structural   BaH2C2O5
_chemical_formula_sum   'Ba4 H8 C8 O20'
_cell_volume   493.14258328
_cell_formula_units_Z   4
loop_
 _symmetry_equiv_pos_site_id
 _symmetry_equiv_pos_as_xyz
  1  'x, y, z'
loop_
 _atom_site_type_symbol
 _atom_site_label
 _atom_site_symmetry_multiplicity
 _atom_site_fract_x
 _atom_site_fract_y
 _atom_site_fract_z
 _atom_site_occupancy
  Ba  Ba0  1  0.71672800  0.50000000  0.31816900  1
  Ba  Ba1  1  0.28327200  0.50000000  0.68183100  1
  Ba  Ba2  1  0.21672800  0.00000000  0.31816900  1
  Ba  Ba3  1  0.78327200  0.00000000  0.68183100  1
  H  H4  1  0.95310400  0.60362500  0.17924100  1
  H  H5  1  0.95310400  0.39637500  0.17924100  1
  H  H6  1  0.04689600  0.39637500  0.82075900  1
  H  H7  1  0.04689600  0.60362500  0.82075900  1
  H  H8  1  0.45310400  0.10362500  0.17924100  1
  H  H9  1  0.45310400  0.89637500  0.17924100  1
  H  H10  1  0.54689600  0.89637500  0.82075900  1
  H  H11  1  0.54689600  0.10362500  0.82075900  1
  C  C12  1  0.36057150  0.40206350  0.23945000  1
  C  C13  1  0.36057150  0.59793650  0.23945000  1
  C  C14  1  0.63942850  0.59793650  0.76055000  1
  C  C15  1  0.63942850  0.40206350  0.76055000  1
  C  C16  1  0.86057150  0.90206350  0.23945000  1
  C  C17  1  0.86057150  0.09793650  0.23945000  1
  C  C18  1  0.13942850  0.09793650  0.76055000  1
  C  C19  1  0.13942850  0.90206350  0.76055000  1
  O  O20  1  0.91202350  0.83237050  0.13051700  1
  O  O21  1  0.91202350  0.16762950  0.13051700  1
  O  O22  1  0.08797650  0.16762950  0.86948300  1
  O  O23  1  0.08797650  0.83237050  0.86948300  1
  O  O24  1  0.31103250  0.33072050  0.34907200  1
  O  O25  1  0.31103250  0.66927950  0.34907200  1
  O  O26  1  0.68896750  0.66927950  0.65092800  1
  O  O27  1  0.68896750  0.33072050  0.65092800  1
  O  O28  1  0.97670900  0.50000000  0.26901400  1
  O  O29  1  0.02329100  0.50000000  0.73098600  1
  O  O30  1  0.41202350  0.33237050  0.13051700  1
  O  O31  1  0.41202350  0.66762950  0.13051700  1
  O  O32  1  0.58797650  0.66762950  0.86948300  1
  O  O33  1  0.58797650  0.33237050  0.86948300  1
  O  O34  1  0.81103250  0.83072050  0.34907200  1
  O  O35  1  0.81103250  0.16927950  0.34907200  1
  O  O36  1  0.18896750  0.16927950  0.65092800  1
  O  O37  1  0.18896750  0.83072050  0.65092800  1
  O  O38  1  0.47670900  0.00000000  0.26901400  1
  O  O39  1  0.52329100  0.00000000  0.73098600  1
