# generated using pymatgen
data_TiNb2Zn(PbO3)4
_symmetry_space_group_name_H-M   'P 1'
_cell_length_a   5.75829000
_cell_length_b   5.71036800
_cell_length_c   16.76517501
_cell_angle_alpha   90.00000000
_cell_angle_beta   90.24478941
_cell_angle_gamma   90.00000000
_symmetry_Int_Tables_number   1
_chemical_formula_structural   TiNb2Zn(PbO3)4
_chemical_formula_sum   'Ti2 Nb4 Zn2 Pb8 O24'
_cell_volume   551.26669815
_cell_formula_units_Z   2
loop_
 _symmetry_equiv_pos_site_id
 _symmetry_equiv_pos_as_xyz
  1  'x, y, z'
loop_
 _atom_site_type_symbol
 _atom_site_label
 _atom_site_symmetry_multiplicity
 _atom_site_fract_x
 _atom_site_fract_y
 _atom_site_fract_z
 _atom_site_occupancy
  Ti  Ti0  1  0.47427800  0.00000000  0.12926400  1
  Ti  Ti1  1  0.97427800  0.50000000  0.12926400  1
  Nb  Nb2  1  0.51038500  0.00000000  0.88236100  1
  Nb  Nb3  1  0.52378100  0.00000000  0.37681000  1
  Nb  Nb4  1  0.01038500  0.50000000  0.88236100  1
  Nb  Nb5  1  0.02378100  0.50000000  0.37681000  1
  Zn  Zn6  1  0.50674800  0.00000000  0.62750200  1
  Zn  Zn7  1  0.00674800  0.50000000  0.62750200  1
  Pb  Pb8  1  0.05573300  0.00000000  0.73167300  1
  Pb  Pb9  1  0.03728200  0.00000000  0.24769500  1
  Pb  Pb10  1  0.00575200  0.00000000  0.53309300  1
  Pb  Pb11  1  0.95165800  0.00000000  0.01684700  1
  Pb  Pb12  1  0.55573300  0.50000000  0.73167300  1
  Pb  Pb13  1  0.53728200  0.50000000  0.24769500  1
  Pb  Pb14  1  0.50575200  0.50000000  0.53309300  1
  Pb  Pb15  1  0.45165800  0.50000000  0.01684700  1
  O  O16  1  0.50846500  0.00000000  0.01104900  1
  O  O17  1  0.49993200  0.00000000  0.48776200  1
  O  O18  1  0.47707200  0.00000000  0.76883400  1
  O  O19  1  0.48690700  0.00000000  0.24563800  1
  O  O20  1  0.74180950  0.75017850  0.89064800  1
  O  O21  1  0.73932050  0.73957150  0.62678900  1
  O  O22  1  0.25292700  0.24846700  0.12787400  1
  O  O23  1  0.24694650  0.24674950  0.36440000  1
  O  O24  1  0.74180950  0.24982150  0.89064800  1
  O  O25  1  0.73932050  0.26042850  0.62678900  1
  O  O26  1  0.24694650  0.75325050  0.36440000  1
  O  O27  1  0.25292700  0.75153300  0.12787400  1
  O  O28  1  0.00846500  0.50000000  0.01104900  1
  O  O29  1  0.99993200  0.50000000  0.48776200  1
  O  O30  1  0.97707200  0.50000000  0.76883400  1
  O  O31  1  0.98690700  0.50000000  0.24563800  1
  O  O32  1  0.24180950  0.25017850  0.89064800  1
  O  O33  1  0.23932050  0.23957150  0.62678900  1
  O  O34  1  0.75292700  0.74846700  0.12787400  1
  O  O35  1  0.74694650  0.74674950  0.36440000  1
  O  O36  1  0.24180950  0.74982150  0.89064800  1
  O  O37  1  0.23932050  0.76042850  0.62678900  1
  O  O38  1  0.74694650  0.25325050  0.36440000  1
  O  O39  1  0.75292700  0.25153300  0.12787400  1
