# generated using pymatgen
data_Eu8C4I9N7
_symmetry_space_group_name_H-M   'P 1'
_cell_length_a   10.61885732
_cell_length_b   10.61885732
_cell_length_c   7.79692000
_cell_angle_alpha   90.00000000
_cell_angle_beta   90.00000000
_cell_angle_gamma   120.00000000
_symmetry_Int_Tables_number   1
_chemical_formula_structural   Eu8C4I9N7
_chemical_formula_sum   'Eu8 C4 I9 N7'
_cell_volume   761.39370286
_cell_formula_units_Z   1
loop_
 _symmetry_equiv_pos_site_id
 _symmetry_equiv_pos_as_xyz
  1  'x, y, z'
loop_
 _atom_site_type_symbol
 _atom_site_label
 _atom_site_symmetry_multiplicity
 _atom_site_fract_x
 _atom_site_fract_y
 _atom_site_fract_z
 _atom_site_occupancy
  Eu  Eu0  1  0.46557383  0.93114767  0.14050100  1
  Eu  Eu1  1  0.27142533  0.13571267  0.61071200  1
  Eu  Eu2  1  0.46557383  0.53442617  0.14050100  1
  Eu  Eu3  1  0.33333333  0.66666667  0.53493200  1
  Eu  Eu4  1  0.00000000  0.00000000  0.21187900  1
  Eu  Eu5  1  0.86428733  0.72857467  0.61071200  1
  Eu  Eu6  1  0.06885233  0.53442617  0.14050100  1
  Eu  Eu7  1  0.86428733  0.13571267  0.61071200  1
  C  C8  1  0.33333333  0.66666667  0.86242400  1
  C  C9  1  0.66838733  0.83419367  0.38424100  1
  C  C10  1  0.16580633  0.83419367  0.38424100  1
  C  C11  1  0.16580633  0.33161267  0.38424100  1
  I  I12  1  0.51783183  0.03566367  0.67265100  1
  I  I13  1  0.51783183  0.48216817  0.67265100  1
  I  I14  1  0.73834133  0.86917067  0.91022800  1
  I  I15  1  0.79685433  0.59370867  0.21523100  1
  I  I16  1  0.13082933  0.86917067  0.91022800  1
  I  I17  1  0.96433633  0.48216817  0.67265100  1
  I  I18  1  0.40629133  0.20314567  0.21523100  1
  I  I19  1  0.79685433  0.20314567  0.21523100  1
  I  I20  1  0.13082933  0.26165867  0.91022800  1
  N  N21  1  0.10318033  0.89681967  0.44307800  1
  N  N22  1  0.33333333  0.66666667  0.01474900  1
  N  N23  1  0.79363933  0.89681967  0.44307800  1
  N  N24  1  0.22838783  0.45677567  0.32483000  1
  N  N25  1  0.22838783  0.77161217  0.32483000  1
  N  N26  1  0.10318033  0.20636067  0.44307800  1
  N  N27  1  0.54322433  0.77161217  0.32483000  1
