# generated using pymatgen
data_Ba3La9Mg7Nb5O36
_symmetry_space_group_name_H-M   'P 1'
_cell_length_a   5.70096600
_cell_length_b   8.11095500
_cell_length_c   17.13284400
_cell_angle_alpha   90.00000000
_cell_angle_beta   90.00000000
_cell_angle_gamma   90.00000000
_symmetry_Int_Tables_number   1
_chemical_formula_structural   Ba3La9Mg7Nb5O36
_chemical_formula_sum   'Ba3 La9 Mg7 Nb5 O36'
_cell_volume   792.22748118
_cell_formula_units_Z   1
loop_
 _symmetry_equiv_pos_site_id
 _symmetry_equiv_pos_as_xyz
  1  'x, y, z'
loop_
 _atom_site_type_symbol
 _atom_site_label
 _atom_site_symmetry_multiplicity
 _atom_site_fract_x
 _atom_site_fract_y
 _atom_site_fract_z
 _atom_site_occupancy
  Ba  Ba0  1  0.50000000  0.24927100  0.83298100  1
  Ba  Ba1  1  0.00000000  0.75118900  0.00000000  1
  Ba  Ba2  1  0.50000000  0.24927100  0.16701900  1
  La  La3  1  0.00000000  0.22738800  0.64107500  1
  La  La4  1  0.50000000  0.74485900  0.82680300  1
  La  La5  1  0.00000000  0.26474500  0.00000000  1
  La  La6  1  0.50000000  0.74485900  0.17319700  1
  La  La7  1  0.00000000  0.22738800  0.35892500  1
  La  La8  1  0.50000000  0.78152100  0.50000000  1
  La  La9  1  0.00000000  0.75933900  0.34208100  1
  La  La10  1  0.50000000  0.21606000  0.50000000  1
  La  La11  1  0.00000000  0.75933900  0.65791900  1
  Mg  Mg12  1  0.50000000  0.00009700  0.66542000  1
  Mg  Mg13  1  0.00000000  0.50049800  0.83046300  1
  Mg  Mg14  1  0.50000000  0.99774100  0.00000000  1
  Mg  Mg15  1  0.00000000  0.50049800  0.16953700  1
  Mg  Mg16  1  0.50000000  0.00009700  0.33458000  1
  Mg  Mg17  1  0.00000000  0.50582300  0.50000000  1
  Mg  Mg18  1  0.00000000  0.99344500  0.50000000  1
  Nb  Nb19  1  0.50000000  0.50081000  0.66330900  1
  Nb  Nb20  1  0.00000000  0.99861900  0.83254600  1
  Nb  Nb21  1  0.50000000  0.50117900  0.00000000  1
  Nb  Nb22  1  0.00000000  0.99861900  0.16745400  1
  Nb  Nb23  1  0.50000000  0.50081000  0.33669100  1
  O  O24  1  0.73701400  0.52728200  0.74911400  1
  O  O25  1  0.50000000  0.25550000  0.65877000  1
  O  O26  1  0.50000000  0.74997900  0.65132200  1
  O  O27  1  0.24333800  0.98041600  0.74564300  1
  O  O28  1  0.24973700  0.99625400  0.91278800  1
  O  O29  1  0.26298600  0.52728200  0.74911400  1
  O  O30  1  0.00000000  0.75191200  0.83128000  1
  O  O31  1  0.00000000  0.24458000  0.83270800  1
  O  O32  1  0.75042600  0.49323200  0.91805100  1
  O  O33  1  0.75042600  0.49323200  0.08194900  1
  O  O34  1  0.75666200  0.98041600  0.74564300  1
  O  O35  1  0.75026300  0.99625400  0.91278800  1
  O  O36  1  0.50000000  0.25061900  0.00000000  1
  O  O37  1  0.50000000  0.74400400  0.00000000  1
  O  O38  1  0.24973700  0.99625400  0.08721200  1
  O  O39  1  0.24333800  0.98041600  0.25435700  1
  O  O40  1  0.24957400  0.49323200  0.91805100  1
  O  O41  1  0.24957400  0.49323200  0.08194900  1
  O  O42  1  0.00000000  0.75191200  0.16872000  1
  O  O43  1  0.00000000  0.24458000  0.16729200  1
  O  O44  1  0.73701400  0.52728200  0.25088600  1
  O  O45  1  0.75868900  0.49880300  0.41345700  1
  O  O46  1  0.75026300  0.99625400  0.08721200  1
  O  O47  1  0.75666200  0.98041600  0.25435700  1
  O  O48  1  0.50000000  0.25550000  0.34123000  1
  O  O49  1  0.50000000  0.74997900  0.34867800  1
  O  O50  1  0.25108800  0.01021300  0.41857000  1
  O  O51  1  0.25108800  0.01021300  0.58143000  1
  O  O52  1  0.26298600  0.52728200  0.25088600  1
  O  O53  1  0.24131100  0.49880300  0.41345700  1
  O  O54  1  0.00000000  0.75074500  0.50000000  1
  O  O55  1  0.00000000  0.25243500  0.50000000  1
  O  O56  1  0.75868900  0.49880300  0.58654300  1
  O  O57  1  0.74891200  0.01021300  0.58143000  1
  O  O58  1  0.74891200  0.01021300  0.41857000  1
  O  O59  1  0.24131100  0.49880300  0.58654300  1
