# generated using pymatgen
data_Sr4Nb2O9
_symmetry_space_group_name_H-M   'P 1'
_cell_length_a   6.01562000
_cell_length_b   6.02141998
_cell_length_c   15.74330530
_cell_angle_alpha   94.03380157
_cell_angle_beta   94.11106628
_cell_angle_gamma   118.49888163
_symmetry_Int_Tables_number   1
_chemical_formula_structural   Sr4Nb2O9
_chemical_formula_sum   'Sr8 Nb4 O18'
_cell_volume   496.30432977
_cell_formula_units_Z   2
loop_
 _symmetry_equiv_pos_site_id
 _symmetry_equiv_pos_as_xyz
  1  'x, y, z'
loop_
 _atom_site_type_symbol
 _atom_site_label
 _atom_site_symmetry_multiplicity
 _atom_site_fract_x
 _atom_site_fract_y
 _atom_site_fract_z
 _atom_site_occupancy
  Sr  Sr0  1  0.33597400  0.68196100  0.95115400  1
  Sr  Sr1  1  0.62098600  0.30165800  0.81691300  1
  Sr  Sr2  1  0.71750700  0.43248400  0.56803000  1
  Sr  Sr3  1  0.07525100  0.03037300  0.20334900  1
  Sr  Sr4  1  0.95494700  0.97505100  0.77548300  1
  Sr  Sr5  1  0.44096300  0.76079500  0.41045900  1
  Sr  Sr6  1  0.39551400  0.68827200  0.16798000  1
  Sr  Sr7  1  0.69200500  0.34250600  0.04827900  1
  Nb  Nb8  1  0.00860100  0.98623000  0.99197300  1
  Nb  Nb9  1  0.26624800  0.55674600  0.70447800  1
  Nb  Nb10  1  0.77807400  0.37722000  0.30802400  1
  Nb  Nb11  1  0.05245200  0.10494700  0.49784100  1
  O  O12  1  0.78417800  0.04371700  0.90830300  1
  O  O13  1  0.29021700  0.87822900  0.72581300  1
  O  O14  1  0.30732300  0.11088900  0.92721200  1
  O  O15  1  0.90783300  0.30667400  0.69362100  1
  O  O16  1  0.77937100  0.56795700  0.40641000  1
  O  O17  1  0.88791400  0.62889400  0.93464900  1
  O  O18  1  0.28874100  0.44882200  0.81399400  1
  O  O19  1  0.59552300  0.57520900  0.69530800  1
  O  O20  1  0.78646100  0.87209200  0.54945400  1
  O  O21  1  0.33319100  0.04893300  0.49012000  1
  O  O22  1  0.11695300  0.32341800  0.06615400  1
  O  O23  1  0.88345700  0.13054200  0.39679100  1
  O  O24  1  0.19361300  0.43549400  0.56191100  1
  O  O25  1  0.11242400  0.44621200  0.28004400  1
  O  O26  1  0.71434800  0.54830800  0.21999700  1
  O  O27  1  0.72549500  0.82291000  0.07117300  1
  O  O28  1  0.47950500  0.04737200  0.28247100  1
  O  O29  1  0.25186300  0.93095300  0.08427500  1
