# generated using pymatgen
data_Ba9(LaS6)2
_symmetry_space_group_name_H-M   'P 1'
_cell_length_a   7.80191200
_cell_length_b   13.51302000
_cell_length_c   14.81648761
_cell_angle_alpha   90.00000000
_cell_angle_beta   100.10641855
_cell_angle_gamma   90.00000000
_symmetry_Int_Tables_number   1
_chemical_formula_structural   Ba9(LaS6)2
_chemical_formula_sum   'Ba18 La4 S24'
_cell_volume   1537.82594406
_cell_formula_units_Z   2
loop_
 _symmetry_equiv_pos_site_id
 _symmetry_equiv_pos_as_xyz
  1  'x, y, z'
loop_
 _atom_site_type_symbol
 _atom_site_label
 _atom_site_symmetry_multiplicity
 _atom_site_fract_x
 _atom_site_fract_y
 _atom_site_fract_z
 _atom_site_occupancy
  Ba  Ba0  1  0.75793000  0.00000000  0.24083500  1
  Ba  Ba1  1  0.50000000  0.00000000  0.50000000  1
  Ba  Ba2  1  0.24136650  0.16114950  0.24066900  1
  Ba  Ba3  1  0.50000000  0.66882800  0.50000000  1
  Ba  Ba4  1  0.75863350  0.16114950  0.75933100  1
  Ba  Ba5  1  0.50000000  0.33117200  0.50000000  1
  Ba  Ba6  1  0.75863350  0.83885050  0.75933100  1
  Ba  Ba7  1  0.24136650  0.83885050  0.24066900  1
  Ba  Ba8  1  0.24207000  0.00000000  0.75916500  1
  Ba  Ba9  1  0.25793000  0.50000000  0.24083500  1
  Ba  Ba10  1  0.00000000  0.50000000  0.50000000  1
  Ba  Ba11  1  0.74136650  0.66114950  0.24066900  1
  Ba  Ba12  1  0.00000000  0.16882800  0.50000000  1
  Ba  Ba13  1  0.25863350  0.66114950  0.75933100  1
  Ba  Ba14  1  0.00000000  0.83117200  0.50000000  1
  Ba  Ba15  1  0.25863350  0.33885050  0.75933100  1
  Ba  Ba16  1  0.74136650  0.33885050  0.24066900  1
  Ba  Ba17  1  0.74207000  0.50000000  0.75916500  1
  La  La18  1  0.50000000  0.16665400  0.00000000  1
  La  La19  1  0.50000000  0.83334600  0.00000000  1
  La  La20  1  0.00000000  0.66665400  0.00000000  1
  La  La21  1  0.00000000  0.33334600  0.00000000  1
  S  S22  1  0.35316200  0.68414600  0.11182600  1
  S  S23  1  0.62320650  0.16654350  0.36920600  1
  S  S24  1  0.35316200  0.31585400  0.11182600  1
  S  S25  1  0.37679350  0.16654350  0.63079400  1
  S  S26  1  0.62320650  0.83345650  0.36920600  1
  S  S27  1  0.64683800  0.68414600  0.88817400  1
  S  S28  1  0.40552700  0.00000000  0.11182800  1
  S  S29  1  0.37679350  0.83345650  0.63079400  1
  S  S30  1  0.12418300  0.00000000  0.37326000  1
  S  S31  1  0.64683800  0.31585400  0.88817400  1
  S  S32  1  0.87581700  0.00000000  0.62674000  1
  S  S33  1  0.59447300  0.00000000  0.88817200  1
  S  S34  1  0.85316200  0.18414600  0.11182600  1
  S  S35  1  0.12320650  0.66654350  0.36920600  1
  S  S36  1  0.85316200  0.81585400  0.11182600  1
  S  S37  1  0.87679350  0.66654350  0.63079400  1
  S  S38  1  0.12320650  0.33345650  0.36920600  1
  S  S39  1  0.14683800  0.18414600  0.88817400  1
  S  S40  1  0.90552700  0.50000000  0.11182800  1
  S  S41  1  0.87679350  0.33345650  0.63079400  1
  S  S42  1  0.62418300  0.50000000  0.37326000  1
  S  S43  1  0.14683800  0.81585400  0.88817400  1
  S  S44  1  0.37581700  0.50000000  0.62674000  1
  S  S45  1  0.09447300  0.50000000  0.88817200  1
