# generated using pymatgen
data_Tl9SbTe6
_symmetry_space_group_name_H-M   'P 1'
_cell_length_a   8.98508300
_cell_length_b   8.98508300
_cell_length_c   40.67792400
_cell_angle_alpha   90.00000000
_cell_angle_beta   90.00000000
_cell_angle_gamma   90.00000000
_symmetry_Int_Tables_number   1
_chemical_formula_structural   Tl9SbTe6
_chemical_formula_sum   'Tl54 Sb6 Te36'
_cell_volume   3283.99862886
_cell_formula_units_Z   6
loop_
 _symmetry_equiv_pos_site_id
 _symmetry_equiv_pos_as_xyz
  1  'x, y, z'
loop_
 _atom_site_type_symbol
 _atom_site_label
 _atom_site_symmetry_multiplicity
 _atom_site_fract_x
 _atom_site_fract_y
 _atom_site_fract_z
 _atom_site_occupancy
  Tl  Tl0  1  0.14313000  0.65202700  0.11390800  1
  Tl  Tl1  1  0.85241100  0.64606100  0.05239100  1
  Tl  Tl2  1  0.14758900  0.35393900  0.05239100  1
  Tl  Tl3  1  0.85687000  0.34797300  0.11390800  1
  Tl  Tl4  1  0.64648100  0.14629100  0.28094600  1
  Tl  Tl5  1  0.35038000  0.14264500  0.21870200  1
  Tl  Tl6  1  0.64606100  0.14758900  0.05239100  1
  Tl  Tl7  1  0.34797300  0.14313000  0.11390800  1
  Tl  Tl8  1  0.00000000  0.00000000  0.16586100  1
  Tl  Tl9  1  0.64962000  0.85735500  0.21870200  1
  Tl  Tl10  1  0.35351900  0.85370900  0.28094600  1
  Tl  Tl11  1  0.65202700  0.85687000  0.11390800  1
  Tl  Tl12  1  0.35393900  0.85241100  0.05239100  1
  Tl  Tl13  1  0.14472800  0.64919700  0.44759300  1
  Tl  Tl14  1  0.85245900  0.64634600  0.38589100  1
  Tl  Tl15  1  0.14264500  0.64962000  0.21870200  1
  Tl  Tl16  1  0.85370900  0.64648100  0.28094600  1
  Tl  Tl17  1  0.50000000  0.50000000  0.33424700  1
  Tl  Tl18  1  0.14754100  0.35365400  0.38589100  1
  Tl  Tl19  1  0.85527200  0.35080300  0.44759300  1
  Tl  Tl20  1  0.14629100  0.35351900  0.28094600  1
  Tl  Tl21  1  0.85735500  0.35038000  0.21870200  1
  Tl  Tl22  1  0.64634600  0.14754100  0.61410900  1
  Tl  Tl23  1  0.35080300  0.14472800  0.55240700  1
  Tl  Tl24  1  0.64634600  0.14754100  0.38589100  1
  Tl  Tl25  1  0.35080300  0.14472800  0.44759300  1
  Tl  Tl26  1  0.00000000  0.00000000  0.50000000  1
  Tl  Tl27  1  0.64919700  0.85527200  0.55240700  1
  Tl  Tl28  1  0.35365400  0.85245900  0.61410900  1
  Tl  Tl29  1  0.64919700  0.85527200  0.44759300  1
  Tl  Tl30  1  0.35365400  0.85245900  0.38589100  1
  Tl  Tl31  1  0.14264500  0.64962000  0.78129800  1
  Tl  Tl32  1  0.85370900  0.64648100  0.71905400  1
  Tl  Tl33  1  0.14472800  0.64919700  0.55240700  1
  Tl  Tl34  1  0.85245900  0.64634600  0.61410900  1
  Tl  Tl35  1  0.50000000  0.50000000  0.66575300  1
  Tl  Tl36  1  0.14629100  0.35351900  0.71905400  1
  Tl  Tl37  1  0.85735500  0.35038000  0.78129800  1
  Tl  Tl38  1  0.14754100  0.35365400  0.61410900  1
  Tl  Tl39  1  0.85527200  0.35080300  0.55240700  1
  Tl  Tl40  1  0.64606100  0.14758900  0.94760900  1
  Tl  Tl41  1  0.34797300  0.14313000  0.88609200  1
  Tl  Tl42  1  0.64648100  0.14629100  0.71905400  1
  Tl  Tl43  1  0.35038000  0.14264500  0.78129800  1
  Tl  Tl44  1  0.00000000  0.00000000  0.00000000  1
  Tl  Tl45  1  0.00000000  0.00000000  0.83413900  1
  Tl  Tl46  1  0.65202700  0.85687000  0.88609200  1
  Tl  Tl47  1  0.35393900  0.85241100  0.94760900  1
  Tl  Tl48  1  0.64962000  0.85735500  0.78129800  1
  Tl  Tl49  1  0.35351900  0.85370900  0.71905400  1
  Tl  Tl50  1  0.14313000  0.65202700  0.88609200  1
  Tl  Tl51  1  0.85241100  0.64606100  0.94760900  1
  Tl  Tl52  1  0.14758900  0.35393900  0.94760900  1
  Tl  Tl53  1  0.85687000  0.34797300  0.88609200  1
  Sb  Sb54  1  0.50000000  0.50000000  0.00000000  1
  Sb  Sb55  1  0.00000000  0.00000000  0.33245200  1
  Sb  Sb56  1  0.50000000  0.50000000  0.50000000  1
  Sb  Sb57  1  0.50000000  0.50000000  0.17003600  1
  Sb  Sb58  1  0.00000000  0.00000000  0.66754800  1
  Sb  Sb59  1  0.50000000  0.50000000  0.82996400  1
  Te  Te60  1  0.50000000  0.50000000  0.07994100  1
  Te  Te61  1  0.18011200  0.35177200  0.16703100  1
  Te  Te62  1  0.64822800  0.18011200  0.16703100  1
  Te  Te63  1  0.00000000  0.00000000  0.25707800  1
  Te  Te64  1  0.00000000  0.00000000  0.08523400  1
  Te  Te65  1  0.67865400  0.85107100  0.33324900  1
  Te  Te66  1  0.35177200  0.81988800  0.16703100  1
  Te  Te67  1  0.14892900  0.67865400  0.33324900  1
  Te  Te68  1  0.81988800  0.64822800  0.16703100  1
  Te  Te69  1  0.50000000  0.50000000  0.42154000  1
  Te  Te70  1  0.50000000  0.50000000  0.24253500  1
  Te  Te71  1  0.17986700  0.35143200  0.50000000  1
  Te  Te72  1  0.85107100  0.32134600  0.33324900  1
  Te  Te73  1  0.64856800  0.17986700  0.50000000  1
  Te  Te74  1  0.32134600  0.14892900  0.33324900  1
  Te  Te75  1  0.00000000  0.00000000  0.58769800  1
  Te  Te76  1  0.00000000  0.00000000  0.41230200  1
  Te  Te77  1  0.67865400  0.85107100  0.66675100  1
  Te  Te78  1  0.35143200  0.82013300  0.50000000  1
  Te  Te79  1  0.14892900  0.67865400  0.66675100  1
  Te  Te80  1  0.82013300  0.64856800  0.50000000  1
  Te  Te81  1  0.50000000  0.50000000  0.75746500  1
  Te  Te82  1  0.50000000  0.50000000  0.57846000  1
  Te  Te83  1  0.18011200  0.35177200  0.83296900  1
  Te  Te84  1  0.85107100  0.32134600  0.66675100  1
  Te  Te85  1  0.64822800  0.18011200  0.83296900  1
  Te  Te86  1  0.32134600  0.14892900  0.66675100  1
  Te  Te87  1  0.00000000  0.00000000  0.91476600  1
  Te  Te88  1  0.00000000  0.00000000  0.74292200  1
  Te  Te89  1  0.64978300  0.82006000  0.00000000  1
  Te  Te90  1  0.35177200  0.81988800  0.83296900  1
  Te  Te91  1  0.17994000  0.64978300  0.00000000  1
  Te  Te92  1  0.81988800  0.64822800  0.83296900  1
  Te  Te93  1  0.50000000  0.50000000  0.92005900  1
  Te  Te94  1  0.82006000  0.35021700  0.00000000  1
  Te  Te95  1  0.35021700  0.17994000  0.00000000  1
