# generated using pymatgen
data_Mg9(In13S24)2
_symmetry_space_group_name_H-M   'P 1'
_cell_length_a   13.30681800
_cell_length_b   7.72356000
_cell_length_c   37.59255810
_cell_angle_alpha   90.00000000
_cell_angle_beta   90.04403656
_cell_angle_gamma   90.00000000
_symmetry_Int_Tables_number   1
_chemical_formula_structural   Mg9(In13S24)2
_chemical_formula_sum   'Mg18 In52 S96'
_cell_volume   3863.61188234
_cell_formula_units_Z   2
loop_
 _symmetry_equiv_pos_site_id
 _symmetry_equiv_pos_as_xyz
  1  'x, y, z'
loop_
 _atom_site_type_symbol
 _atom_site_label
 _atom_site_symmetry_multiplicity
 _atom_site_fract_x
 _atom_site_fract_y
 _atom_site_fract_z
 _atom_site_occupancy
  Mg  Mg0  1  0.83459800  0.00000000  0.83319200  1
  Mg  Mg1  1  0.16682500  0.00000000  0.66669800  1
  Mg  Mg2  1  0.00019600  0.00000000  0.75002100  1
  Mg  Mg3  1  0.50016500  0.00000000  0.50005600  1
  Mg  Mg4  1  0.33337400  0.00000000  0.58342900  1
  Mg  Mg5  1  0.83339000  0.00000000  0.33358200  1
  Mg  Mg6  1  0.66672200  0.00000000  0.41678000  1
  Mg  Mg7  1  0.16555900  0.00000000  0.16730200  1
  Mg  Mg8  1  0.00004500  0.00000000  0.25011700  1
  Mg  Mg9  1  0.33459800  0.50000000  0.83319200  1
  Mg  Mg10  1  0.66682500  0.50000000  0.66669800  1
  Mg  Mg11  1  0.50019600  0.50000000  0.75002100  1
  Mg  Mg12  1  0.00016500  0.50000000  0.50005600  1
  Mg  Mg13  1  0.83337400  0.50000000  0.58342900  1
  Mg  Mg14  1  0.33339000  0.50000000  0.33358200  1
  Mg  Mg15  1  0.16672200  0.50000000  0.41678000  1
  Mg  Mg16  1  0.66555900  0.50000000  0.16730200  1
  Mg  Mg17  1  0.50004500  0.50000000  0.25011700  1
  In  In18  1  0.50012600  0.00000000  0.99380100  1
  In  In19  1  0.49608400  0.00000000  0.80977300  1
  In  In20  1  0.41982350  0.75942250  0.91827800  1
  In  In21  1  0.41982350  0.24057750  0.91827800  1
  In  In22  1  0.82901000  0.00000000  0.64476500  1
  In  In23  1  0.75008100  0.75017500  0.75000300  1
  In  In24  1  0.75008100  0.24982500  0.75000300  1
  In  In25  1  0.66059700  0.00000000  0.91837700  1
  In  In26  1  0.16754500  0.00000000  0.85602600  1
  In  In27  1  0.16232900  0.00000000  0.47809200  1
  In  In28  1  0.58360850  0.74974050  0.58340900  1
  In  In29  1  0.50443300  0.00000000  0.68886500  1
  In  In30  1  0.41681500  0.74985200  0.41686400  1
  In  In31  1  0.49553900  0.00000000  0.31154000  1
  In  In32  1  0.58360850  0.25025950  0.58340900  1
  In  In33  1  0.41681500  0.25014800  0.41686400  1
  In  In34  1  0.83787300  0.00000000  0.52230900  1
  In  In35  1  0.25018550  0.24934150  0.25037600  1
  In  In36  1  0.83261600  0.00000000  0.14609700  1
  In  In37  1  0.25018550  0.75065850  0.25037600  1
  In  In38  1  0.17112500  0.00000000  0.35558000  1
  In  In39  1  0.58589850  0.74248250  0.08282400  1
  In  In40  1  0.50379300  0.00000000  0.18921300  1
  In  In41  1  0.58589850  0.25751750  0.08282400  1
  In  In42  1  0.32868400  0.00000000  0.08283300  1
  In  In43  1  0.83381500  0.00000000  0.02043100  1
  In  In44  1  0.00012600  0.50000000  0.99380100  1
  In  In45  1  0.99608400  0.50000000  0.80977300  1
  In  In46  1  0.91982350  0.25942250  0.91827800  1
  In  In47  1  0.91982350  0.74057750  0.91827800  1
  In  In48  1  0.32901000  0.50000000  0.64476500  1
  In  In49  1  0.25008100  0.25017500  0.75000300  1
  In  In50  1  0.25008100  0.74982500  0.75000300  1
  In  In51  1  0.16059700  0.50000000  0.91837700  1
  In  In52  1  0.66754500  0.50000000  0.85602600  1
  In  In53  1  0.66232900  0.50000000  0.47809200  1
  In  In54  1  0.08360850  0.24974050  0.58340900  1
  In  In55  1  0.00443300  0.50000000  0.68886500  1
  In  In56  1  0.91681500  0.24985200  0.41686400  1
  In  In57  1  0.99553900  0.50000000  0.31154000  1
  In  In58  1  0.08360850  0.75025950  0.58340900  1
  In  In59  1  0.91681500  0.75014800  0.41686400  1
  In  In60  1  0.33787300  0.50000000  0.52230900  1
  In  In61  1  0.75018550  0.74934150  0.25037600  1
  In  In62  1  0.33261600  0.50000000  0.14609700  1
  In  In63  1  0.75018550  0.25065850  0.25037600  1
  In  In64  1  0.67112500  0.50000000  0.35558000  1
  In  In65  1  0.08589850  0.24248250  0.08282400  1
  In  In66  1  0.00379300  0.50000000  0.18921300  1
  In  In67  1  0.08589850  0.75751750  0.08282400  1
  In  In68  1  0.82868400  0.50000000  0.08283300  1
  In  In69  1  0.33381500  0.50000000  0.02043100  1
  S  S70  1  0.58041050  0.75977650  0.95663900  1
  S  S71  1  0.58041050  0.24022350  0.95663900  1
  S  S72  1  0.50007600  0.00000000  0.87593700  1
  S  S73  1  0.33952500  0.00000000  0.95651900  1
  S  S74  1  0.98665200  0.00000000  0.87603900  1
  S  S75  1  0.41126700  0.27172000  0.78998400  1
  S  S76  1  0.75693650  0.77119750  0.87593100  1
  S  S77  1  0.41126700  0.72828000  0.78998400  1
  S  S78  1  0.83385700  0.00000000  0.95451900  1
  S  S79  1  0.83621600  0.00000000  0.71207500  1
  S  S80  1  0.67892800  0.00000000  0.79084300  1
  S  S81  1  0.75693650  0.22880250  0.87593100  1
  S  S82  1  0.32192700  0.00000000  0.70876500  1
  S  S83  1  0.24495750  0.77091050  0.62360100  1
  S  S84  1  0.58866600  0.27121300  0.70960500  1
  S  S85  1  0.24495750  0.22908950  0.62360100  1
  S  S86  1  0.16437500  0.00000000  0.78776000  1
  S  S87  1  0.16935000  0.00000000  0.54552200  1
  S  S88  1  0.01167500  0.00000000  0.62438800  1
  S  S89  1  0.58866600  0.72878700  0.70960500  1
  S  S90  1  0.57827050  0.77117050  0.45689400  1
  S  S91  1  0.65526000  0.00000000  0.54202600  1
  S  S92  1  0.57827050  0.22882950  0.45689400  1
  S  S93  1  0.42196600  0.77125600  0.54285300  1
  S  S94  1  0.49754300  0.00000000  0.62094900  1
  S  S95  1  0.50268300  0.00000000  0.37885800  1
  S  S96  1  0.34499100  0.00000000  0.45770500  1
  S  S97  1  0.42196600  0.22874400  0.54285300  1
  S  S98  1  0.41179250  0.27078950  0.29027800  1
  S  S99  1  0.98863500  0.00000000  0.37532800  1
  S  S100  1  0.75525500  0.77117600  0.37617300  1
  S  S101  1  0.41179250  0.72921050  0.29027800  1
  S  S102  1  0.83080800  0.00000000  0.45421100  1
  S  S103  1  0.83591600  0.00000000  0.21303900  1
  S  S104  1  0.67807900  0.00000000  0.29111800  1
  S  S105  1  0.75525500  0.22882400  0.37617300  1
  S  S106  1  0.32157400  0.00000000  0.20874500  1
  S  S107  1  0.24464600  0.76674600  0.12539100  1
  S  S108  1  0.58869850  0.27086750  0.20952500  1
  S  S109  1  0.16411600  0.00000000  0.28748700  1
  S  S110  1  0.24464600  0.23325400  0.12539100  1
  S  S111  1  0.16662700  0.00000000  0.04642700  1
  S  S112  1  0.01064500  0.00000000  0.12529000  1
  S  S113  1  0.58869850  0.72913250  0.20952500  1
  S  S114  1  0.65533700  0.00000000  0.04356200  1
  S  S115  1  0.42250350  0.76743950  0.04346900  1
  S  S116  1  0.50019200  0.00000000  0.12071800  1
  S  S117  1  0.42250350  0.23256050  0.04346900  1
  S  S118  1  0.08041050  0.25977650  0.95663900  1
  S  S119  1  0.08041050  0.74022350  0.95663900  1
  S  S120  1  0.00007600  0.50000000  0.87593700  1
  S  S121  1  0.83952500  0.50000000  0.95651900  1
  S  S122  1  0.48665200  0.50000000  0.87603900  1
  S  S123  1  0.91126700  0.77172000  0.78998400  1
  S  S124  1  0.25693650  0.27119750  0.87593100  1
  S  S125  1  0.91126700  0.22828000  0.78998400  1
  S  S126  1  0.33385700  0.50000000  0.95451900  1
  S  S127  1  0.33621600  0.50000000  0.71207500  1
  S  S128  1  0.17892800  0.50000000  0.79084300  1
  S  S129  1  0.25693650  0.72880250  0.87593100  1
  S  S130  1  0.82192700  0.50000000  0.70876500  1
  S  S131  1  0.74495750  0.27091050  0.62360100  1
  S  S132  1  0.08866600  0.77121300  0.70960500  1
  S  S133  1  0.74495750  0.72908950  0.62360100  1
  S  S134  1  0.66437500  0.50000000  0.78776000  1
  S  S135  1  0.66935000  0.50000000  0.54552200  1
  S  S136  1  0.51167500  0.50000000  0.62438800  1
  S  S137  1  0.08866600  0.22878700  0.70960500  1
  S  S138  1  0.07827050  0.27117050  0.45689400  1
  S  S139  1  0.15526000  0.50000000  0.54202600  1
  S  S140  1  0.07827050  0.72882950  0.45689400  1
  S  S141  1  0.92196600  0.27125600  0.54285300  1
  S  S142  1  0.99754300  0.50000000  0.62094900  1
  S  S143  1  0.00268300  0.50000000  0.37885800  1
  S  S144  1  0.84499100  0.50000000  0.45770500  1
  S  S145  1  0.92196600  0.72874400  0.54285300  1
  S  S146  1  0.91179250  0.77078950  0.29027800  1
  S  S147  1  0.48863500  0.50000000  0.37532800  1
  S  S148  1  0.25525500  0.27117600  0.37617300  1
  S  S149  1  0.91179250  0.22921050  0.29027800  1
  S  S150  1  0.33080800  0.50000000  0.45421100  1
  S  S151  1  0.33591600  0.50000000  0.21303900  1
  S  S152  1  0.17807900  0.50000000  0.29111800  1
  S  S153  1  0.25525500  0.72882400  0.37617300  1
  S  S154  1  0.82157400  0.50000000  0.20874500  1
  S  S155  1  0.74464600  0.26674600  0.12539100  1
  S  S156  1  0.08869850  0.77086750  0.20952500  1
  S  S157  1  0.66411600  0.50000000  0.28748700  1
  S  S158  1  0.74464600  0.73325400  0.12539100  1
  S  S159  1  0.66662700  0.50000000  0.04642700  1
  S  S160  1  0.51064500  0.50000000  0.12529000  1
  S  S161  1  0.08869850  0.22913250  0.20952500  1
  S  S162  1  0.15533700  0.50000000  0.04356200  1
  S  S163  1  0.92250350  0.26743950  0.04346900  1
  S  S164  1  0.00019200  0.50000000  0.12071800  1
  S  S165  1  0.92250350  0.73256050  0.04346900  1
