# generated using pymatgen
data_Rb2Sn(GeO3)3
_symmetry_space_group_name_H-M   'P 1'
_cell_length_a   12.30153764
_cell_length_b   12.30153764
_cell_length_c   10.86291200
_cell_angle_alpha   90.00000000
_cell_angle_beta   90.00000000
_cell_angle_gamma   120.00000000
_symmetry_Int_Tables_number   1
_chemical_formula_structural   Rb2Sn(GeO3)3
_chemical_formula_sum   'Rb12 Sn6 Ge18 O54'
_cell_volume   1423.62528457
_cell_formula_units_Z   6
loop_
 _symmetry_equiv_pos_site_id
 _symmetry_equiv_pos_as_xyz
  1  'x, y, z'
loop_
 _atom_site_type_symbol
 _atom_site_label
 _atom_site_symmetry_multiplicity
 _atom_site_fract_x
 _atom_site_fract_y
 _atom_site_fract_z
 _atom_site_occupancy
  Rb  Rb0  1  0.65006733  0.64811467  0.01769900  1
  Rb  Rb1  1  0.34993267  0.99804733  0.48230100  1
  Rb  Rb2  1  0.35188533  0.00195267  0.01769900  1
  Rb  Rb3  1  0.64811467  0.99804733  0.98230100  1
  Rb  Rb4  1  0.34993267  0.35188533  0.98230100  1
  Rb  Rb5  1  0.65006733  0.00195267  0.51769900  1
  Rb  Rb6  1  0.99804733  0.64811467  0.51769900  1
  Rb  Rb7  1  0.99804733  0.34993267  0.01769900  1
  Rb  Rb8  1  0.35188533  0.34993267  0.51769900  1
  Rb  Rb9  1  0.00195267  0.35188533  0.48230100  1
  Rb  Rb10  1  0.64811467  0.65006733  0.48230100  1
  Rb  Rb11  1  0.00195267  0.65006733  0.98230100  1
  Sn  Sn12  1  0.33333333  0.66666667  0.99458600  1
  Sn  Sn13  1  0.66666667  0.33333333  0.00541400  1
  Sn  Sn14  1  0.00000000  0.00000000  0.50000000  1
  Sn  Sn15  1  0.66666667  0.33333333  0.50541400  1
  Sn  Sn16  1  0.00000000  0.00000000  0.00000000  1
  Sn  Sn17  1  0.33333333  0.66666667  0.49458600  1
  Ge  Ge18  1  0.54901233  0.71556567  0.73975600  1
  Ge  Ge19  1  0.00000000  0.17830150  0.25000000  1
  Ge  Ge20  1  0.17830150  0.00000000  0.25000000  1
  Ge  Ge21  1  0.54901233  0.83344667  0.23975600  1
  Ge  Ge22  1  0.28443433  0.83344667  0.73975600  1
  Ge  Ge23  1  0.16655333  0.71556567  0.23975600  1
  Ge  Ge24  1  0.28443433  0.45098767  0.23975600  1
  Ge  Ge25  1  0.71556567  0.54901233  0.76024400  1
  Ge  Ge26  1  0.16655333  0.45098767  0.73975600  1
  Ge  Ge27  1  0.45098767  0.16655333  0.76024400  1
  Ge  Ge28  1  0.00000000  0.82169850  0.75000000  1
  Ge  Ge29  1  0.83344667  0.28443433  0.76024400  1
  Ge  Ge30  1  0.71556567  0.16655333  0.26024400  1
  Ge  Ge31  1  0.83344667  0.54901233  0.26024400  1
  Ge  Ge32  1  0.45098767  0.28443433  0.26024400  1
  Ge  Ge33  1  0.82169850  0.00000000  0.75000000  1
  Ge  Ge34  1  0.82169850  0.82169850  0.25000000  1
  Ge  Ge35  1  0.17830150  0.17830150  0.75000000  1
  O  O36  1  0.15611933  0.06459567  0.11511900  1
  O  O37  1  0.81152233  0.45214467  0.38786800  1
  O  O38  1  0.62055300  0.62055300  0.75000000  1
  O  O39  1  0.50637533  0.22956067  0.61380100  1
  O  O40  1  0.62055300  0.00000000  0.25000000  1
  O  O41  1  0.64062233  0.45214467  0.88786800  1
  O  O42  1  0.09152367  0.93540433  0.38488100  1
  O  O43  1  0.27681467  0.77043933  0.88619900  1
  O  O44  1  0.22956067  0.72318533  0.38619900  1
  O  O45  1  0.54785533  0.18847767  0.88786800  1
  O  O46  1  0.66944633  0.79728667  0.20071000  1
  O  O47  1  0.35937767  0.54785533  0.11213200  1
  O  O48  1  0.12784033  0.79728667  0.70071000  1
  O  O49  1  0.20271333  0.87215967  0.20071000  1
  O  O50  1  0.33055367  0.20271333  0.79929000  1
  O  O51  1  0.49362467  0.77043933  0.38619900  1
  O  O52  1  0.06459567  0.15611933  0.38488100  1
  O  O53  1  0.77043933  0.49362467  0.11380100  1
  O  O54  1  0.37944700  0.37944700  0.25000000  1
  O  O55  1  0.87215967  0.20271333  0.29929000  1
  O  O56  1  0.93540433  0.84388067  0.61511900  1
  O  O57  1  0.33055367  0.12784033  0.29929000  1
  O  O58  1  0.15611933  0.09152367  0.61511900  1
  O  O59  1  0.27681467  0.50637533  0.38619900  1
  O  O60  1  0.90847633  0.06459567  0.61511900  1
  O  O61  1  0.64062233  0.18847767  0.38786800  1
  O  O62  1  0.09152367  0.15611933  0.88488100  1
  O  O63  1  0.12784033  0.33055367  0.20071000  1
  O  O64  1  0.84388067  0.93540433  0.88488100  1
  O  O65  1  0.93540433  0.09152367  0.11511900  1
  O  O66  1  0.45214467  0.81152233  0.11213200  1
  O  O67  1  0.81152233  0.35937767  0.88786800  1
  O  O68  1  0.84388067  0.90847633  0.38488100  1
  O  O69  1  0.35937767  0.81152233  0.61213200  1
  O  O70  1  0.45214467  0.64062233  0.61213200  1
  O  O71  1  0.37944700  0.00000000  0.75000000  1
  O  O72  1  0.72318533  0.49362467  0.61380100  1
  O  O73  1  0.87215967  0.66944633  0.79929000  1
  O  O74  1  0.54785533  0.35937767  0.38786800  1
  O  O75  1  0.66944633  0.87215967  0.70071000  1
  O  O76  1  0.00000000  0.37944700  0.75000000  1
  O  O77  1  0.06459567  0.90847633  0.88488100  1
  O  O78  1  0.20271333  0.33055367  0.70071000  1
  O  O79  1  0.18847767  0.64062233  0.11213200  1
  O  O80  1  0.79728667  0.12784033  0.79929000  1
  O  O81  1  0.18847767  0.54785533  0.61213200  1
  O  O82  1  0.22956067  0.50637533  0.88619900  1
  O  O83  1  0.77043933  0.27681467  0.61380100  1
  O  O84  1  0.50637533  0.27681467  0.11380100  1
  O  O85  1  0.79728667  0.66944633  0.29929000  1
  O  O86  1  0.49362467  0.72318533  0.88619900  1
  O  O87  1  0.72318533  0.22956067  0.11380100  1
  O  O88  1  0.00000000  0.62055300  0.25000000  1
  O  O89  1  0.90847633  0.84388067  0.11511900  1
