# generated using pymatgen
data_SiO2
_symmetry_space_group_name_H-M   'P 1'
_cell_length_a   13.92951200
_cell_length_b   18.33049000
_cell_length_c   9.80449500
_cell_angle_alpha   90.00000000
_cell_angle_beta   90.00000000
_cell_angle_gamma   90.00000000
_symmetry_Int_Tables_number   1
_chemical_formula_structural   SiO2
_chemical_formula_sum   'Si48 O96'
_cell_volume   2503.42857796
_cell_formula_units_Z   48
loop_
 _symmetry_equiv_pos_site_id
 _symmetry_equiv_pos_as_xyz
  1  'x, y, z'
loop_
 _atom_site_type_symbol
 _atom_site_label
 _atom_site_symmetry_multiplicity
 _atom_site_fract_x
 _atom_site_fract_y
 _atom_site_fract_z
 _atom_site_occupancy
  Si  Si0  1  0.57058200  0.91398100  0.37133500  1
  Si  Si1  1  0.42941800  0.91398100  0.62866500  1
  Si  Si2  1  0.57058200  0.58601900  0.12866500  1
  Si  Si3  1  0.42941800  0.58601900  0.87133500  1
  Si  Si4  1  0.42941800  0.08601900  0.62866500  1
  Si  Si5  1  0.57058200  0.08601900  0.37133500  1
  Si  Si6  1  0.42941800  0.41398100  0.87133500  1
  Si  Si7  1  0.57058200  0.41398100  0.12866500  1
  Si  Si8  1  0.53551550  0.82183950  0.84260900  1
  Si  Si9  1  0.46448450  0.82183950  0.15739100  1
  Si  Si10  1  0.53551550  0.67816050  0.65739100  1
  Si  Si11  1  0.46448450  0.67816050  0.34260900  1
  Si  Si12  1  0.46448450  0.17816050  0.15739100  1
  Si  Si13  1  0.53551550  0.17816050  0.84260900  1
  Si  Si14  1  0.46448450  0.32183950  0.34260900  1
  Si  Si15  1  0.53551550  0.32183950  0.65739100  1
  Si  Si16  1  0.24412300  0.19701900  0.12963800  1
  Si  Si17  1  0.75587700  0.19701900  0.87036200  1
  Si  Si18  1  0.74412300  0.80298100  0.37036200  1
  Si  Si19  1  0.25587700  0.80298100  0.62963800  1
  Si  Si20  1  0.75587700  0.80298100  0.87036200  1
  Si  Si21  1  0.24412300  0.80298100  0.12963800  1
  Si  Si22  1  0.25587700  0.19701900  0.62963800  1
  Si  Si23  1  0.74412300  0.19701900  0.37036200  1
  Si  Si24  1  0.07058200  0.41398100  0.37133500  1
  Si  Si25  1  0.92941800  0.41398100  0.62866500  1
  Si  Si26  1  0.07058200  0.08601900  0.12866500  1
  Si  Si27  1  0.92941800  0.08601900  0.87133500  1
  Si  Si28  1  0.92941800  0.58601900  0.62866500  1
  Si  Si29  1  0.07058200  0.58601900  0.37133500  1
  Si  Si30  1  0.92941800  0.91398100  0.87133500  1
  Si  Si31  1  0.07058200  0.91398100  0.12866500  1
  Si  Si32  1  0.03551550  0.32183950  0.84260900  1
  Si  Si33  1  0.96448450  0.32183950  0.15739100  1
  Si  Si34  1  0.03551550  0.17816050  0.65739100  1
  Si  Si35  1  0.96448450  0.17816050  0.34260900  1
  Si  Si36  1  0.96448450  0.67816050  0.15739100  1
  Si  Si37  1  0.03551550  0.67816050  0.84260900  1
  Si  Si38  1  0.96448450  0.82183950  0.34260900  1
  Si  Si39  1  0.03551550  0.82183950  0.65739100  1
  Si  Si40  1  0.74412300  0.69701900  0.12963800  1
  Si  Si41  1  0.25587700  0.69701900  0.87036200  1
  Si  Si42  1  0.24412300  0.30298100  0.37036200  1
  Si  Si43  1  0.75587700  0.30298100  0.62963800  1
  Si  Si44  1  0.25587700  0.30298100  0.87036200  1
  Si  Si45  1  0.74412300  0.30298100  0.12963800  1
  Si  Si46  1  0.75587700  0.69701900  0.62963800  1
  Si  Si47  1  0.24412300  0.69701900  0.37036200  1
  O  O48  1  0.52053150  0.89047550  0.22699400  1
  O  O49  1  0.47946850  0.89047550  0.77300600  1
  O  O50  1  0.52053150  0.60952450  0.27300600  1
  O  O51  1  0.47946850  0.60952450  0.72699400  1
  O  O52  1  0.47946850  0.10952450  0.77300600  1
  O  O53  1  0.52053150  0.10952450  0.22699400  1
  O  O54  1  0.47946850  0.39047550  0.72699400  1
  O  O55  1  0.52053150  0.39047550  0.27300600  1
  O  O56  1  0.50000000  0.89735600  0.50000000  1
  O  O57  1  0.50000000  0.60264400  0.00000000  1
  O  O58  1  0.50000000  0.10264400  0.50000000  1
  O  O59  1  0.50000000  0.39735600  0.00000000  1
  O  O60  1  0.59676900  0.00000000  0.36401800  1
  O  O61  1  0.40323100  0.00000000  0.63598200  1
  O  O62  1  0.09676900  0.00000000  0.13598200  1
  O  O63  1  0.90323100  0.00000000  0.86401800  1
  O  O64  1  0.66957150  0.86917750  0.39543400  1
  O  O65  1  0.33042850  0.86917750  0.60456600  1
  O  O66  1  0.16957150  0.13082250  0.10456600  1
  O  O67  1  0.83042850  0.13082250  0.89543400  1
  O  O68  1  0.33042850  0.13082250  0.60456600  1
  O  O69  1  0.66957150  0.13082250  0.39543400  1
  O  O70  1  0.83042850  0.86917750  0.89543400  1
  O  O71  1  0.16957150  0.86917750  0.10456600  1
  O  O72  1  0.65064200  0.83796000  0.83863400  1
  O  O73  1  0.34935800  0.83796000  0.16136600  1
  O  O74  1  0.65064200  0.66204000  0.66136600  1
  O  O75  1  0.34935800  0.66204000  0.33863400  1
  O  O76  1  0.34935800  0.16204000  0.16136600  1
  O  O77  1  0.65064200  0.16204000  0.83863400  1
  O  O78  1  0.34935800  0.33796000  0.33863400  1
  O  O79  1  0.65064200  0.33796000  0.66136600  1
  O  O80  1  0.51291500  0.75000000  0.75000000  1
  O  O81  1  0.48708500  0.75000000  0.25000000  1
  O  O82  1  0.48708500  0.25000000  0.25000000  1
  O  O83  1  0.51291500  0.25000000  0.75000000  1
  O  O84  1  0.50000000  0.81022500  0.00000000  1
  O  O85  1  0.50000000  0.68977500  0.50000000  1
  O  O86  1  0.50000000  0.18977500  0.00000000  1
  O  O87  1  0.50000000  0.31022500  0.50000000  1
  O  O88  1  0.25000000  0.25000000  0.00000000  1
  O  O89  1  0.25000000  0.75000000  0.00000000  1
  O  O90  1  0.25000000  0.25000000  0.50000000  1
  O  O91  1  0.25000000  0.75000000  0.50000000  1
  O  O92  1  0.70543700  0.75000000  0.25000000  1
  O  O93  1  0.29456300  0.75000000  0.75000000  1
  O  O94  1  0.29456300  0.25000000  0.75000000  1
  O  O95  1  0.70543700  0.25000000  0.25000000  1
  O  O96  1  0.02053150  0.39047550  0.22699400  1
  O  O97  1  0.97946850  0.39047550  0.77300600  1
  O  O98  1  0.02053150  0.10952450  0.27300600  1
  O  O99  1  0.97946850  0.10952450  0.72699400  1
  O  O100  1  0.97946850  0.60952450  0.77300600  1
  O  O101  1  0.02053150  0.60952450  0.22699400  1
  O  O102  1  0.97946850  0.89047550  0.72699400  1
  O  O103  1  0.02053150  0.89047550  0.27300600  1
  O  O104  1  0.00000000  0.39735600  0.50000000  1
  O  O105  1  0.00000000  0.10264400  0.00000000  1
  O  O106  1  0.00000000  0.60264400  0.50000000  1
  O  O107  1  0.00000000  0.89735600  0.00000000  1
  O  O108  1  0.09676900  0.50000000  0.36401800  1
  O  O109  1  0.90323100  0.50000000  0.63598200  1
  O  O110  1  0.59676900  0.50000000  0.13598200  1
  O  O111  1  0.40323100  0.50000000  0.86401800  1
  O  O112  1  0.16957150  0.36917750  0.39543400  1
  O  O113  1  0.83042850  0.36917750  0.60456600  1
  O  O114  1  0.66957150  0.63082250  0.10456600  1
  O  O115  1  0.33042850  0.63082250  0.89543400  1
  O  O116  1  0.83042850  0.63082250  0.60456600  1
  O  O117  1  0.16957150  0.63082250  0.39543400  1
  O  O118  1  0.33042850  0.36917750  0.89543400  1
  O  O119  1  0.66957150  0.36917750  0.10456600  1
  O  O120  1  0.15064200  0.33796000  0.83863400  1
  O  O121  1  0.84935800  0.33796000  0.16136600  1
  O  O122  1  0.15064200  0.16204000  0.66136600  1
  O  O123  1  0.84935800  0.16204000  0.33863400  1
  O  O124  1  0.84935800  0.66204000  0.16136600  1
  O  O125  1  0.15064200  0.66204000  0.83863400  1
  O  O126  1  0.84935800  0.83796000  0.33863400  1
  O  O127  1  0.15064200  0.83796000  0.66136600  1
  O  O128  1  0.01291500  0.25000000  0.75000000  1
  O  O129  1  0.98708500  0.25000000  0.25000000  1
  O  O130  1  0.98708500  0.75000000  0.25000000  1
  O  O131  1  0.01291500  0.75000000  0.75000000  1
  O  O132  1  0.00000000  0.31022500  0.00000000  1
  O  O133  1  0.00000000  0.18977500  0.50000000  1
  O  O134  1  0.00000000  0.68977500  0.00000000  1
  O  O135  1  0.00000000  0.81022500  0.50000000  1
  O  O136  1  0.75000000  0.75000000  0.00000000  1
  O  O137  1  0.75000000  0.25000000  0.00000000  1
  O  O138  1  0.75000000  0.75000000  0.50000000  1
  O  O139  1  0.75000000  0.25000000  0.50000000  1
  O  O140  1  0.20543700  0.25000000  0.25000000  1
  O  O141  1  0.79456300  0.25000000  0.75000000  1
  O  O142  1  0.79456300  0.75000000  0.75000000  1
  O  O143  1  0.20543700  0.75000000  0.25000000  1
