# generated using pymatgen
data_H4SO5
_symmetry_space_group_name_H-M   'P 1'
_cell_length_a   7.22967900
_cell_length_b   7.04961100
_cell_length_c   8.25980583
_cell_angle_alpha   90.00000000
_cell_angle_beta   106.78804801
_cell_angle_gamma   90.00000000
_symmetry_Int_Tables_number   1
_chemical_formula_structural   H4SO5
_chemical_formula_sum   'H16 S4 O20'
_cell_volume   403.03081446
_cell_formula_units_Z   4
loop_
 _symmetry_equiv_pos_site_id
 _symmetry_equiv_pos_as_xyz
  1  'x, y, z'
loop_
 _atom_site_type_symbol
 _atom_site_label
 _atom_site_symmetry_multiplicity
 _atom_site_fract_x
 _atom_site_fract_y
 _atom_site_fract_z
 _atom_site_occupancy
  H  H0  1  0.77549000  0.13758600  0.71873200  1
  H  H1  1  0.77549000  0.86241400  0.21873200  1
  H  H2  1  0.39468600  0.93347800  0.38970300  1
  H  H3  1  0.57968200  0.43056300  0.08180300  1
  H  H4  1  0.57968200  0.56943700  0.58180300  1
  H  H5  1  0.39468600  0.06652200  0.88970300  1
  H  H6  1  0.06979100  0.44327200  0.07788400  1
  H  H7  1  0.06979100  0.55672800  0.57788400  1
  H  H8  1  0.91239500  0.05720800  0.90807200  1
  H  H9  1  0.73943500  0.91705900  0.78810000  1
  H  H10  1  0.25051300  0.41760400  0.69382000  1
  H  H11  1  0.20960200  0.63145900  0.76748600  1
  H  H12  1  0.20960200  0.36854100  0.26748600  1
  H  H13  1  0.25051300  0.58239600  0.19382000  1
  H  H14  1  0.91239500  0.94279200  0.40807200  1
  H  H15  1  0.73943500  0.08294100  0.28810000  1
  S  S16  1  0.24449000  0.09546200  0.53470400  1
  S  S17  1  0.73898600  0.59313100  0.94981500  1
  S  S18  1  0.73898600  0.40686900  0.44981500  1
  S  S19  1  0.24449000  0.90453800  0.03470400  1
  O  O20  1  0.16328800  0.76466700  0.90318300  1
  O  O21  1  0.81792900  0.27310300  0.58713100  1
  O  O22  1  0.81792900  0.72689700  0.08713100  1
  O  O23  1  0.16328800  0.23533300  0.40318300  1
  O  O24  1  0.32314800  0.18513400  0.70282100  1
  O  O25  1  0.67098900  0.68650200  0.78311900  1
  O  O26  1  0.67098900  0.31349800  0.28311900  1
  O  O27  1  0.32314800  0.81486600  0.20282100  1
  O  O28  1  0.42964900  0.00133300  0.50243400  1
  O  O29  1  0.54645100  0.50435500  0.97341200  1
  O  O30  1  0.54645100  0.49564500  0.47341200  1
  O  O31  1  0.42964900  0.99866700  0.00243400  1
  O  O32  1  0.10713500  0.94204200  0.53647600  1
  O  O33  1  0.87229500  0.43451700  0.95298200  1
  O  O34  1  0.87229500  0.56548300  0.45298200  1
  O  O35  1  0.10713500  0.05795800  0.03647600  1
  O  O36  1  0.77725400  0.05261300  0.81928000  1
  O  O37  1  0.20757800  0.55219000  0.66388600  1
  O  O38  1  0.20757800  0.44781000  0.16388600  1
  O  O39  1  0.77725400  0.94738700  0.31928000  1
