# generated using pymatgen
data_Ni(HO)2
_symmetry_space_group_name_H-M   'P 1'
_cell_length_a   3.15830156
_cell_length_b   3.15830156
_cell_length_c   21.85506546
_cell_angle_alpha   90.00000000
_cell_angle_beta   90.00000000
_cell_angle_gamma   120.00000000
_symmetry_Int_Tables_number   1
_chemical_formula_structural   Ni(HO)2
_chemical_formula_sum   'Ni3 H6 O6'
_cell_volume   188.79475850
_cell_formula_units_Z   3
loop_
 _symmetry_equiv_pos_site_id
 _symmetry_equiv_pos_as_xyz
  1  'x, y, z'
loop_
 _atom_site_type_symbol
 _atom_site_label
 _atom_site_symmetry_multiplicity
 _atom_site_fract_x
 _atom_site_fract_y
 _atom_site_fract_z
 _atom_site_occupancy
  Ni  Ni0  1  0.33333333  0.66666667  0.66666667  1
  Ni  Ni1  1  1.00000000  1.00000000  0.00000000  1
  Ni  Ni2  1  0.66666667  0.33333333  0.33333333  1
  H  H3  1  0.66666667  0.33333333  0.90920108  1
  H  H4  1  0.66666667  0.33333333  0.75746558  1
  H  H5  1  0.33333333  0.66666667  0.24253442  1
  H  H6  1  0.33333333  0.66666667  0.09079892  1
  H  H7  1  0.00000000  0.00000000  0.57586775  1
  H  H8  1  0.00000000  0.00000000  0.42413225  1
  O  O9  1  0.66666667  0.33333333  0.95347775  1
  O  O10  1  0.66666667  0.33333333  0.71318892  1
  O  O11  1  0.33333333  0.66666667  0.28681108  1
  O  O12  1  0.33333333  0.66666667  0.04652225  1
  O  O13  1  0.00000000  0.00000000  0.62014442  1
  O  O14  1  0.00000000  0.00000000  0.37985558  1
