# generated using pymatgen
data_Pr2PbS4
_symmetry_space_group_name_H-M   'P 1'
_cell_length_a   8.74870000
_cell_length_b   8.74870000
_cell_length_c   8.72982800
_cell_angle_alpha   90.00000000
_cell_angle_beta   90.00000000
_cell_angle_gamma   90.00000000
_symmetry_Int_Tables_number   1
_chemical_formula_structural   Pr2PbS4
_chemical_formula_sum   'Pr8 Pb4 S16'
_cell_volume   668.17886742
_cell_formula_units_Z   4
loop_
 _symmetry_equiv_pos_site_id
 _symmetry_equiv_pos_as_xyz
  1  'x, y, z'
loop_
 _atom_site_type_symbol
 _atom_site_label
 _atom_site_symmetry_multiplicity
 _atom_site_fract_x
 _atom_site_fract_y
 _atom_site_fract_z
 _atom_site_occupancy
  Pr  Pr0  1  0.25000000  0.13247600  0.12500000  1
  Pr  Pr1  1  0.86752400  0.25000000  0.87500000  1
  Pr  Pr2  1  0.25000000  0.36752400  0.62500000  1
  Pr  Pr3  1  0.63247600  0.25000000  0.37500000  1
  Pr  Pr4  1  0.75000000  0.63247600  0.62500000  1
  Pr  Pr5  1  0.36752400  0.75000000  0.37500000  1
  Pr  Pr6  1  0.75000000  0.86752400  0.12500000  1
  Pr  Pr7  1  0.13247600  0.75000000  0.87500000  1
  Pb  Pb8  1  0.50000000  0.00000000  0.75000000  1
  Pb  Pb9  1  0.00000000  0.00000000  0.50000000  1
  Pb  Pb10  1  0.00000000  0.50000000  0.25000000  1
  Pb  Pb11  1  0.50000000  0.50000000  0.00000000  1
  S  S12  1  0.67240250  0.92445550  0.44151550  1
  S  S13  1  0.92445550  0.17240250  0.19151550  1
  S  S14  1  0.92445550  0.32759750  0.55848450  1
  S  S15  1  0.57554450  0.17240250  0.05848450  1
  S  S16  1  0.57554450  0.32759750  0.69151550  1
  S  S17  1  0.82759750  0.92445550  0.80848450  1
  S  S18  1  0.67240250  0.57554450  0.30848450  1
  S  S19  1  0.82759750  0.57554450  0.94151550  1
  S  S20  1  0.17240250  0.42445550  0.94151550  1
  S  S21  1  0.42445550  0.67240250  0.69151550  1
  S  S22  1  0.42445550  0.82759750  0.05848450  1
  S  S23  1  0.07554450  0.67240250  0.55848450  1
  S  S24  1  0.07554450  0.82759750  0.19151550  1
  S  S25  1  0.32759750  0.42445550  0.30848450  1
  S  S26  1  0.17240250  0.07554450  0.80848450  1
  S  S27  1  0.32759750  0.07554450  0.44151550  1
