# generated using pymatgen
data_K2La2Ti3O10
_symmetry_space_group_name_H-M   'P 1'
_cell_length_a   3.91119600
_cell_length_b   3.91119600
_cell_length_c   30.05761400
_cell_angle_alpha   90.00000000
_cell_angle_beta   90.00000000
_cell_angle_gamma   90.00000000
_symmetry_Int_Tables_number   1
_chemical_formula_structural   K2La2Ti3O10
_chemical_formula_sum   'K4 La4 Ti6 O20'
_cell_volume   459.80497204
_cell_formula_units_Z   2
loop_
 _symmetry_equiv_pos_site_id
 _symmetry_equiv_pos_as_xyz
  1  'x, y, z'
loop_
 _atom_site_type_symbol
 _atom_site_label
 _atom_site_symmetry_multiplicity
 _atom_site_fract_x
 _atom_site_fract_y
 _atom_site_fract_z
 _atom_site_occupancy
  K  K0  1  0.00000000  0.00000000  0.29225600  1
  K  K1  1  0.50000000  0.50000000  0.20774400  1
  K  K2  1  0.50000000  0.50000000  0.79225600  1
  K  K3  1  0.00000000  0.00000000  0.70774400  1
  La  La4  1  0.00000000  0.00000000  0.42844400  1
  La  La5  1  0.50000000  0.50000000  0.07155600  1
  La  La6  1  0.50000000  0.50000000  0.92844400  1
  La  La7  1  0.00000000  0.00000000  0.57155600  1
  Ti  Ti8  1  0.00000000  0.00000000  0.13990900  1
  Ti  Ti9  1  0.50000000  0.50000000  0.36009100  1
  Ti  Ti10  1  0.00000000  0.00000000  0.00000000  1
  Ti  Ti11  1  0.50000000  0.50000000  0.63990900  1
  Ti  Ti12  1  0.00000000  0.00000000  0.86009100  1
  Ti  Ti13  1  0.50000000  0.50000000  0.50000000  1
  O  O14  1  0.50000000  0.50000000  0.30140600  1
  O  O15  1  0.00000000  0.00000000  0.19859400  1
  O  O16  1  0.50000000  0.00000000  0.37349500  1
  O  O17  1  0.00000000  0.50000000  0.37349500  1
  O  O18  1  0.00000000  0.50000000  0.12650500  1
  O  O19  1  0.50000000  0.00000000  0.12650500  1
  O  O20  1  0.50000000  0.50000000  0.43575200  1
  O  O21  1  0.50000000  0.00000000  0.00000000  1
  O  O22  1  0.00000000  0.50000000  0.00000000  1
  O  O23  1  0.00000000  0.00000000  0.06424800  1
  O  O24  1  0.00000000  0.00000000  0.80140600  1
  O  O25  1  0.50000000  0.50000000  0.69859400  1
  O  O26  1  0.00000000  0.50000000  0.87349500  1
  O  O27  1  0.50000000  0.00000000  0.87349500  1
  O  O28  1  0.50000000  0.00000000  0.62650500  1
  O  O29  1  0.00000000  0.50000000  0.62650500  1
  O  O30  1  0.00000000  0.00000000  0.93575200  1
  O  O31  1  0.00000000  0.50000000  0.50000000  1
  O  O32  1  0.50000000  0.00000000  0.50000000  1
  O  O33  1  0.50000000  0.50000000  0.56424800  1
