# generated using pymatgen
data_Sm4Si2S3O7
_symmetry_space_group_name_H-M   'P 1'
_cell_length_a   11.92344800
_cell_length_b   11.92344800
_cell_length_c   14.03045000
_cell_angle_alpha   90.00000000
_cell_angle_beta   90.00000000
_cell_angle_gamma   90.00000000
_symmetry_Int_Tables_number   1
_chemical_formula_structural   Sm4Si2S3O7
_chemical_formula_sum   'Sm32 Si16 S24 O56'
_cell_volume   1994.68960516
_cell_formula_units_Z   8
loop_
 _symmetry_equiv_pos_site_id
 _symmetry_equiv_pos_as_xyz
  1  'x, y, z'
loop_
 _atom_site_type_symbol
 _atom_site_label
 _atom_site_symmetry_multiplicity
 _atom_site_fract_x
 _atom_site_fract_y
 _atom_site_fract_z
 _atom_site_occupancy
  Sm  Sm0  1  0.67172750  0.17172750  0.25000000  1
  Sm  Sm1  1  0.82827250  0.17172750  0.50000000  1
  Sm  Sm2  1  0.17172750  0.82827250  0.50000000  1
  Sm  Sm3  1  0.32827250  0.82827250  0.25000000  1
  Sm  Sm4  1  0.32827250  0.32827250  0.00000000  1
  Sm  Sm5  1  0.67172750  0.82827250  0.25000000  1
  Sm  Sm6  1  0.32827250  0.17172750  0.25000000  1
  Sm  Sm7  1  0.17172750  0.17172750  0.50000000  1
  Sm  Sm8  1  0.76360800  0.00000000  0.03237000  1
  Sm  Sm9  1  0.23639200  0.00000000  0.03237000  1
  Sm  Sm10  1  0.50000000  0.73639200  0.46763000  1
  Sm  Sm11  1  0.50000000  0.23639200  0.78237000  1
  Sm  Sm12  1  0.00000000  0.26360800  0.28237000  1
  Sm  Sm13  1  0.26360800  0.00000000  0.71763000  1
  Sm  Sm14  1  0.23639200  0.50000000  0.21763000  1
  Sm  Sm15  1  0.50000000  0.26360800  0.46763000  1
  Sm  Sm16  1  0.17172750  0.67172750  0.75000000  1
  Sm  Sm17  1  0.32827250  0.67172750  0.00000000  1
  Sm  Sm18  1  0.67172750  0.32827250  0.00000000  1
  Sm  Sm19  1  0.82827250  0.32827250  0.75000000  1
  Sm  Sm20  1  0.82827250  0.82827250  0.50000000  1
  Sm  Sm21  1  0.17172750  0.32827250  0.75000000  1
  Sm  Sm22  1  0.82827250  0.67172750  0.75000000  1
  Sm  Sm23  1  0.67172750  0.67172750  0.00000000  1
  Sm  Sm24  1  0.26360800  0.50000000  0.53237000  1
  Sm  Sm25  1  0.73639200  0.50000000  0.53237000  1
  Sm  Sm26  1  0.00000000  0.23639200  0.96763000  1
  Sm  Sm27  1  0.00000000  0.73639200  0.28237000  1
  Sm  Sm28  1  0.50000000  0.76360800  0.78237000  1
  Sm  Sm29  1  0.76360800  0.50000000  0.21763000  1
  Sm  Sm30  1  0.73639200  0.00000000  0.71763000  1
  Sm  Sm31  1  0.00000000  0.76360800  0.96763000  1
  Si  Si32  1  0.12456700  0.00000000  0.27789600  1
  Si  Si33  1  0.37543300  0.50000000  0.77789600  1
  Si  Si34  1  0.50000000  0.37543300  0.22210400  1
  Si  Si35  1  0.00000000  0.37543300  0.52789600  1
  Si  Si36  1  0.50000000  0.12456700  0.02789600  1
  Si  Si37  1  0.12456700  0.50000000  0.97210400  1
  Si  Si38  1  0.37543300  0.00000000  0.47210400  1
  Si  Si39  1  0.00000000  0.12456700  0.72210400  1
  Si  Si40  1  0.62456700  0.50000000  0.77789600  1
  Si  Si41  1  0.87543300  0.00000000  0.27789600  1
  Si  Si42  1  0.00000000  0.87543300  0.72210400  1
  Si  Si43  1  0.50000000  0.87543300  0.02789600  1
  Si  Si44  1  0.00000000  0.62456700  0.52789600  1
  Si  Si45  1  0.62456700  0.00000000  0.47210400  1
  Si  Si46  1  0.87543300  0.50000000  0.97210400  1
  Si  Si47  1  0.50000000  0.62456700  0.22210400  1
  S  S48  1  0.00000000  0.00000000  0.50000000  1
  S  S49  1  0.50000000  0.00000000  0.25000000  1
  S  S50  1  0.00000000  0.50000000  0.25000000  1
  S  S51  1  0.00000000  0.00000000  0.00000000  1
  S  S52  1  0.35222700  0.25000000  0.62500000  1
  S  S53  1  0.25000000  0.35222700  0.37500000  1
  S  S54  1  0.25000000  0.14777300  0.87500000  1
  S  S55  1  0.14777300  0.25000000  0.12500000  1
  S  S56  1  0.14777300  0.75000000  0.12500000  1
  S  S57  1  0.75000000  0.14777300  0.87500000  1
  S  S58  1  0.75000000  0.35222700  0.37500000  1
  S  S59  1  0.35222700  0.75000000  0.62500000  1
  S  S60  1  0.50000000  0.50000000  0.00000000  1
  S  S61  1  0.00000000  0.50000000  0.75000000  1
  S  S62  1  0.50000000  0.00000000  0.75000000  1
  S  S63  1  0.50000000  0.50000000  0.50000000  1
  S  S64  1  0.85222700  0.75000000  0.12500000  1
  S  S65  1  0.75000000  0.85222700  0.87500000  1
  S  S66  1  0.75000000  0.64777300  0.37500000  1
  S  S67  1  0.64777300  0.75000000  0.62500000  1
  S  S68  1  0.64777300  0.25000000  0.62500000  1
  S  S69  1  0.25000000  0.64777300  0.37500000  1
  S  S70  1  0.25000000  0.85222700  0.87500000  1
  S  S71  1  0.85222700  0.25000000  0.12500000  1
  O  O72  1  0.00000000  0.00000000  0.77263600  1
  O  O73  1  0.00000000  0.50000000  0.02263600  1
  O  O74  1  0.00000000  0.50000000  0.47736400  1
  O  O75  1  0.00000000  0.00000000  0.22736400  1
  O  O76  1  0.77063400  0.00000000  0.20047500  1
  O  O77  1  0.22936600  0.00000000  0.20047500  1
  O  O78  1  0.50000000  0.72936600  0.29952500  1
  O  O79  1  0.50000000  0.22936600  0.95047500  1
  O  O80  1  0.00000000  0.27063400  0.45047500  1
  O  O81  1  0.27063400  0.00000000  0.54952500  1
  O  O82  1  0.22936600  0.50000000  0.04952500  1
  O  O83  1  0.50000000  0.27063400  0.29952500  1
  O  O84  1  0.14089950  0.37918350  0.91787150  1
  O  O85  1  0.35910050  0.12081650  0.41787150  1
  O  O86  1  0.12081650  0.35910050  0.58212850  1
  O  O87  1  0.37918350  0.35910050  0.16787150  1
  O  O88  1  0.12081650  0.14089950  0.66787150  1
  O  O89  1  0.14089950  0.12081650  0.33212850  1
  O  O90  1  0.35910050  0.37918350  0.83212850  1
  O  O91  1  0.37918350  0.14089950  0.08212850  1
  O  O92  1  0.35910050  0.62081650  0.83212850  1
  O  O93  1  0.14089950  0.87918350  0.33212850  1
  O  O94  1  0.87918350  0.14089950  0.66787150  1
  O  O95  1  0.62081650  0.14089950  0.08212850  1
  O  O96  1  0.87918350  0.35910050  0.58212850  1
  O  O97  1  0.35910050  0.87918350  0.41787150  1
  O  O98  1  0.14089950  0.62081650  0.91787150  1
  O  O99  1  0.62081650  0.35910050  0.16787150  1
  O  O100  1  0.50000000  0.50000000  0.27263600  1
  O  O101  1  0.50000000  0.00000000  0.52263600  1
  O  O102  1  0.50000000  0.00000000  0.97736400  1
  O  O103  1  0.50000000  0.50000000  0.72736400  1
  O  O104  1  0.27063400  0.50000000  0.70047500  1
  O  O105  1  0.72936600  0.50000000  0.70047500  1
  O  O106  1  0.00000000  0.22936600  0.79952500  1
  O  O107  1  0.00000000  0.72936600  0.45047500  1
  O  O108  1  0.50000000  0.77063400  0.95047500  1
  O  O109  1  0.77063400  0.50000000  0.04952500  1
  O  O110  1  0.72936600  0.00000000  0.54952500  1
  O  O111  1  0.00000000  0.77063400  0.79952500  1
  O  O112  1  0.64089950  0.87918350  0.41787150  1
  O  O113  1  0.85910050  0.62081650  0.91787150  1
  O  O114  1  0.62081650  0.85910050  0.08212850  1
  O  O115  1  0.87918350  0.85910050  0.66787150  1
  O  O116  1  0.62081650  0.64089950  0.16787150  1
  O  O117  1  0.64089950  0.62081650  0.83212850  1
  O  O118  1  0.85910050  0.87918350  0.33212850  1
  O  O119  1  0.87918350  0.64089950  0.58212850  1
  O  O120  1  0.85910050  0.12081650  0.33212850  1
  O  O121  1  0.64089950  0.37918350  0.83212850  1
  O  O122  1  0.37918350  0.64089950  0.16787150  1
  O  O123  1  0.12081650  0.64089950  0.58212850  1
  O  O124  1  0.37918350  0.85910050  0.08212850  1
  O  O125  1  0.85910050  0.37918350  0.91787150  1
  O  O126  1  0.64089950  0.12081650  0.41787150  1
  O  O127  1  0.12081650  0.85910050  0.66787150  1
