# generated using pymatgen
data_AgH4WS4N
_symmetry_space_group_name_H-M   'P 1'
_cell_length_a   8.15231400
_cell_length_b   8.15231400
_cell_length_c   5.91995000
_cell_angle_alpha   90.00000000
_cell_angle_beta   90.00000000
_cell_angle_gamma   90.00000000
_symmetry_Int_Tables_number   1
_chemical_formula_structural   AgH4WS4N
_chemical_formula_sum   'Ag2 H8 W2 S8 N2'
_cell_volume   393.44120043
_cell_formula_units_Z   2
loop_
 _symmetry_equiv_pos_site_id
 _symmetry_equiv_pos_as_xyz
  1  'x, y, z'
loop_
 _atom_site_type_symbol
 _atom_site_label
 _atom_site_symmetry_multiplicity
 _atom_site_fract_x
 _atom_site_fract_y
 _atom_site_fract_z
 _atom_site_occupancy
  Ag  Ag0  1  0.50000000  0.00000000  0.75000000  1
  Ag  Ag1  1  0.00000000  0.50000000  0.25000000  1
  H  H2  1  0.89686300  0.01637100  0.40037100  1
  H  H3  1  0.10313700  0.98362900  0.40037100  1
  H  H4  1  0.48362900  0.39686300  0.09962900  1
  H  H5  1  0.51637100  0.60313700  0.09962900  1
  H  H6  1  0.39686300  0.51637100  0.90037100  1
  H  H7  1  0.60313700  0.48362900  0.90037100  1
  H  H8  1  0.98362900  0.89686300  0.59962900  1
  H  H9  1  0.01637100  0.10313700  0.59962900  1
  W  W10  1  0.50000000  0.00000000  0.25000000  1
  W  W11  1  0.00000000  0.50000000  0.75000000  1
  S  S12  1  0.61959400  0.19638300  0.45430200  1
  S  S13  1  0.38040600  0.80361700  0.45430200  1
  S  S14  1  0.30361700  0.11959400  0.04569800  1
  S  S15  1  0.69638300  0.88040600  0.04569800  1
  S  S16  1  0.11959400  0.69638300  0.95430200  1
  S  S17  1  0.88040600  0.30361700  0.95430200  1
  S  S18  1  0.80361700  0.61959400  0.54569800  1
  S  S19  1  0.19638300  0.38040600  0.54569800  1
  N  N20  1  0.00000000  0.00000000  0.50000000  1
  N  N21  1  0.50000000  0.50000000  0.00000000  1
