# generated using pymatgen
data_Mn(HO)2
_symmetry_space_group_name_H-M   'P 1'
_cell_length_a   5.84797261
_cell_length_b   3.37559535
_cell_length_c   4.79605233
_cell_angle_alpha   90.00000000
_cell_angle_beta   91.23653430
_cell_angle_gamma   90.00000000
_symmetry_Int_Tables_number   1
_chemical_formula_structural   Mn(HO)2
_chemical_formula_sum   'Mn2 H4 O4'
_cell_volume   94.65389203
_cell_formula_units_Z   2
loop_
 _symmetry_equiv_pos_site_id
 _symmetry_equiv_pos_as_xyz
  1  'x, y, z'
loop_
 _atom_site_type_symbol
 _atom_site_label
 _atom_site_symmetry_multiplicity
 _atom_site_fract_x
 _atom_site_fract_y
 _atom_site_fract_z
 _atom_site_occupancy
  Mn  Mn0  1  0.50000000  0.59450750  0.00000000  1
  Mn  Mn1  1  0.00000000  0.09450750  0.00000000  1
  H  H2  1  0.17352550  0.57561350  0.42795700  1
  H  H3  1  0.32647450  0.07561350  0.57204300  1
  H  H4  1  0.67352550  0.07561350  0.42795700  1
  H  H5  1  0.82647450  0.57561350  0.57204300  1
  O  O6  1  0.17167625  0.59299075  0.22519400  1
  O  O7  1  0.32832375  0.09299075  0.77480600  1
  O  O8  1  0.67167625  0.09299075  0.22519400  1
  O  O9  1  0.82832375  0.59299075  0.77480600  1
