# generated using pymatgen
data_Ca6Si2H6O13
_symmetry_space_group_name_H-M   'P 1'
_cell_length_a   10.10673812
_cell_length_b   10.10673812
_cell_length_c   7.55852000
_cell_angle_alpha   90.00000000
_cell_angle_beta   90.00000000
_cell_angle_gamma   120.00000000
_symmetry_Int_Tables_number   1
_chemical_formula_structural   Ca6Si2H6O13
_chemical_formula_sum   'Ca12 Si4 H12 O26'
_cell_volume   668.63548910
_cell_formula_units_Z   2
loop_
 _symmetry_equiv_pos_site_id
 _symmetry_equiv_pos_as_xyz
  1  'x, y, z'
loop_
 _atom_site_type_symbol
 _atom_site_label
 _atom_site_symmetry_multiplicity
 _atom_site_fract_x
 _atom_site_fract_y
 _atom_site_fract_z
 _atom_site_occupancy
  Ca  Ca0  1  0.04193933  0.37495467  0.37743100  1
  Ca  Ca1  1  0.33301533  0.95806067  0.37743100  1
  Ca  Ca2  1  0.04575233  0.38282067  0.87106200  1
  Ca  Ca3  1  0.33706833  0.95424767  0.87106200  1
  Ca  Ca4  1  0.38282067  0.33706833  0.12893800  1
  Ca  Ca5  1  0.37495467  0.33301533  0.62256900  1
  Ca  Ca6  1  0.61717933  0.66293167  0.87106200  1
  Ca  Ca7  1  0.62504533  0.66698467  0.37743100  1
  Ca  Ca8  1  0.95806067  0.62504533  0.62256900  1
  Ca  Ca9  1  0.66293167  0.04575233  0.12893800  1
  Ca  Ca10  1  0.95424767  0.61717933  0.12893800  1
  Ca  Ca11  1  0.66698467  0.04193933  0.62256900  1
  Si  Si12  1  0.33333333  0.66666667  0.09659800  1
  Si  Si13  1  0.33333333  0.66666667  0.65694000  1
  Si  Si14  1  0.66666667  0.33333333  0.90340200  1
  Si  Si15  1  0.66666667  0.33333333  0.34306000  1
  H  H16  1  0.99614233  0.83386567  0.37127500  1
  H  H17  1  0.00590433  0.82556167  0.87569300  1
  H  H18  1  0.17443833  0.18034267  0.87569300  1
  H  H19  1  0.16613433  0.16227667  0.37127500  1
  H  H20  1  0.16227667  0.99614233  0.62872500  1
  H  H21  1  0.18034267  0.00590433  0.12430700  1
  H  H22  1  0.83772333  0.00385767  0.37127500  1
  H  H23  1  0.81965733  0.99409567  0.87569300  1
  H  H24  1  0.83386567  0.83772333  0.62872500  1
  H  H25  1  0.82556167  0.81965733  0.12430700  1
  H  H26  1  0.99409567  0.17443833  0.12430700  1
  H  H27  1  0.00385767  0.16613433  0.62872500  1
  O  O28  1  0.06729333  0.79547067  0.36891600  1
  O  O29  1  0.07558533  0.78531167  0.88107500  1
  O  O30  1  0.15236033  0.55618567  0.14772800  1
  O  O31  1  0.15311533  0.55489967  0.60530800  1
  O  O32  1  0.40178433  0.84688467  0.60530800  1
  O  O33  1  0.40382533  0.84763967  0.14772800  1
  O  O34  1  0.33333333  0.66666667  0.87658900  1
  O  O35  1  0.21468833  0.29027367  0.88107500  1
  O  O36  1  0.20452933  0.27182267  0.36891600  1
  O  O37  1  0.44381433  0.59617467  0.14772800  1
  O  O38  1  0.44510033  0.59821567  0.60530800  1
  O  O39  1  0.70972633  0.92441467  0.88107500  1
  O  O40  1  0.27182267  0.06729333  0.63108400  1
  O  O41  1  0.29027367  0.07558533  0.11892500  1
  O  O42  1  0.72817733  0.93270667  0.36891600  1
  O  O43  1  0.55618567  0.40382533  0.85227200  1
  O  O44  1  0.55489967  0.40178433  0.39469200  1
  O  O45  1  0.78531167  0.70972633  0.11892500  1
  O  O46  1  0.79547067  0.72817733  0.63108400  1
  O  O47  1  0.66666667  0.33333333  0.12341100  1
  O  O48  1  0.59821567  0.15311533  0.39469200  1
  O  O49  1  0.59617467  0.15236033  0.85227200  1
  O  O50  1  0.84763967  0.44381433  0.85227200  1
  O  O51  1  0.84688467  0.44510033  0.39469200  1
  O  O52  1  0.92441467  0.21468833  0.11892500  1
  O  O53  1  0.93270667  0.20452933  0.63108400  1
