# generated using pymatgen
data_CaN6
_symmetry_space_group_name_H-M   'P 1'
_cell_length_a   5.98593400
_cell_length_b   11.13999400
_cell_length_c   11.53372600
_cell_angle_alpha   90.00000000
_cell_angle_beta   90.00000000
_cell_angle_gamma   90.00000000
_symmetry_Int_Tables_number   1
_chemical_formula_structural   CaN6
_chemical_formula_sum   'Ca8 N48'
_cell_volume   769.10655164
_cell_formula_units_Z   8
loop_
 _symmetry_equiv_pos_site_id
 _symmetry_equiv_pos_as_xyz
  1  'x, y, z'
loop_
 _atom_site_type_symbol
 _atom_site_label
 _atom_site_symmetry_multiplicity
 _atom_site_fract_x
 _atom_site_fract_y
 _atom_site_fract_z
 _atom_site_occupancy
  Ca  Ca0  1  0.00000000  0.00000000  0.00000000  1
  Ca  Ca1  1  0.25000000  0.75000000  0.75000000  1
  Ca  Ca2  1  0.00000000  0.50000000  0.50000000  1
  Ca  Ca3  1  0.25000000  0.25000000  0.25000000  1
  Ca  Ca4  1  0.50000000  0.00000000  0.50000000  1
  Ca  Ca5  1  0.75000000  0.75000000  0.25000000  1
  Ca  Ca6  1  0.50000000  0.50000000  0.00000000  1
  Ca  Ca7  1  0.75000000  0.25000000  0.75000000  1
  N  N8  1  0.90419200  0.81637750  0.87481050  1
  N  N9  1  0.90419200  0.68362250  0.62518950  1
  N  N10  1  0.75000000  0.75000000  0.62362800  1
  N  N11  1  0.75000000  0.75000000  0.87637200  1
  N  N12  1  0.00000000  0.00000000  0.62637200  1
  N  N13  1  0.50000000  0.00000000  0.87362800  1
  N  N14  1  0.15419200  0.56637750  0.87518950  1
  N  N15  1  0.15419200  0.93362250  0.62481050  1
  N  N16  1  0.34580800  0.56637750  0.62481050  1
  N  N17  1  0.34580800  0.93362250  0.87518950  1
  N  N18  1  0.59580800  0.68362250  0.87481050  1
  N  N19  1  0.59580800  0.81637750  0.62518950  1
  N  N20  1  0.90419200  0.31637750  0.37481050  1
  N  N21  1  0.90419200  0.18362250  0.12518950  1
  N  N22  1  0.75000000  0.25000000  0.12362800  1
  N  N23  1  0.75000000  0.25000000  0.37637200  1
  N  N24  1  0.00000000  0.50000000  0.12637200  1
  N  N25  1  0.50000000  0.50000000  0.37362800  1
  N  N26  1  0.15419200  0.06637750  0.37518950  1
  N  N27  1  0.15419200  0.43362250  0.12481050  1
  N  N28  1  0.34580800  0.06637750  0.12481050  1
  N  N29  1  0.34580800  0.43362250  0.37518950  1
  N  N30  1  0.59580800  0.18362250  0.37481050  1
  N  N31  1  0.59580800  0.31637750  0.12518950  1
  N  N32  1  0.40419200  0.81637750  0.37481050  1
  N  N33  1  0.40419200  0.68362250  0.12518950  1
  N  N34  1  0.25000000  0.75000000  0.12362800  1
  N  N35  1  0.25000000  0.75000000  0.37637200  1
  N  N36  1  0.50000000  0.00000000  0.12637200  1
  N  N37  1  0.00000000  0.00000000  0.37362800  1
  N  N38  1  0.65419200  0.56637750  0.37518950  1
  N  N39  1  0.65419200  0.93362250  0.12481050  1
  N  N40  1  0.84580800  0.56637750  0.12481050  1
  N  N41  1  0.84580800  0.93362250  0.37518950  1
  N  N42  1  0.09580800  0.68362250  0.37481050  1
  N  N43  1  0.09580800  0.81637750  0.12518950  1
  N  N44  1  0.40419200  0.31637750  0.87481050  1
  N  N45  1  0.40419200  0.18362250  0.62518950  1
  N  N46  1  0.25000000  0.25000000  0.62362800  1
  N  N47  1  0.25000000  0.25000000  0.87637200  1
  N  N48  1  0.50000000  0.50000000  0.62637200  1
  N  N49  1  0.00000000  0.50000000  0.87362800  1
  N  N50  1  0.65419200  0.06637750  0.87518950  1
  N  N51  1  0.65419200  0.43362250  0.62481050  1
  N  N52  1  0.84580800  0.06637750  0.62481050  1
  N  N53  1  0.84580800  0.43362250  0.87518950  1
  N  N54  1  0.09580800  0.18362250  0.87481050  1
  N  N55  1  0.09580800  0.31637750  0.62518950  1
