# generated using pymatgen
data_NaH9O5
_symmetry_space_group_name_H-M   'P 1'
_cell_length_a   4.19127600
_cell_length_b   7.96385756
_cell_length_c   9.27926585
_cell_angle_alpha   66.37194947
_cell_angle_beta   78.36825760
_cell_angle_gamma   76.32396380
_symmetry_Int_Tables_number   1
_chemical_formula_structural   NaH9O5
_chemical_formula_sum   'Na2 H18 O10'
_cell_volume   273.72534892
_cell_formula_units_Z   2
loop_
 _symmetry_equiv_pos_site_id
 _symmetry_equiv_pos_as_xyz
  1  'x, y, z'
loop_
 _atom_site_type_symbol
 _atom_site_label
 _atom_site_symmetry_multiplicity
 _atom_site_fract_x
 _atom_site_fract_y
 _atom_site_fract_z
 _atom_site_occupancy
  Na  Na0  1  0.53822400  0.76357100  0.12562900  1
  Na  Na1  1  0.45223900  0.27087900  0.81564200  1
  H  H2  1  0.81146300  0.98719400  0.41019300  1
  H  H3  1  0.94234600  0.18443700  0.37565600  1
  H  H4  1  0.43371700  0.81538200  0.62930200  1
  H  H5  1  0.71180600  0.35973000  0.17324000  1
  H  H6  1  0.53201900  0.48926700  0.01684300  1
  H  H7  1  0.06661900  0.49880100  0.97775400  1
  H  H8  1  0.26298100  0.64718800  0.82405400  1
  H  H9  1  0.57076700  0.09120600  0.16810100  1
  H  H10  1  0.19452700  0.08808000  0.18908100  1
  H  H11  1  0.83615700  0.91192700  0.78159100  1
  H  H12  1  0.46072400  0.90477600  0.79036600  1
  H  H13  1  0.05090600  0.53627800  0.31025800  1
  H  H14  1  0.97369100  0.69989300  0.37119900  1
  H  H15  1  0.03296900  0.16083500  0.74078900  1
  H  H16  1  0.91069800  0.56360800  0.62444300  1
  H  H17  1  0.05073000  0.29568700  0.55180300  1
  H  H18  1  0.34342200  0.24125500  0.39745900  1
  H  H19  1  0.02663100  0.74393200  0.62245000  1
  O  O20  1  0.82089900  0.11210200  0.32992900  1
  O  O21  1  0.22978200  0.83238600  0.69892400  1
  O  O22  1  0.70075100  0.48211400  0.08735600  1
  O  O23  1  0.28536000  0.50997000  0.90973800  1
  O  O24  1  0.40294000  0.07273700  0.11856400  1
  O  O25  1  0.61579500  0.94149900  0.83856800  1
  O  O26  1  0.00930800  0.67642500  0.27137300  1
  O  O27  1  0.00107800  0.29482600  0.68088000  1
  O  O28  1  0.10977200  0.29627600  0.41038400  1
  O  O29  1  0.89000600  0.69933500  0.56902900  1
