# generated using pymatgen
data_Ba3Bi2F12
_symmetry_space_group_name_H-M   'P 1'
_cell_length_a   4.40426800
_cell_length_b   4.45307845
_cell_length_c   17.84169911
_cell_angle_alpha   91.40573061
_cell_angle_beta   95.01309269
_cell_angle_gamma   119.10638210
_symmetry_Int_Tables_number   1
_chemical_formula_structural   Ba3Bi2F12
_chemical_formula_sum   'Ba3 Bi2 F12'
_cell_volume   303.65825129
_cell_formula_units_Z   1
loop_
 _symmetry_equiv_pos_site_id
 _symmetry_equiv_pos_as_xyz
  1  'x, y, z'
loop_
 _atom_site_type_symbol
 _atom_site_label
 _atom_site_symmetry_multiplicity
 _atom_site_fract_x
 _atom_site_fract_y
 _atom_site_fract_z
 _atom_site_occupancy
  Ba  Ba0  1  0.08813100  0.98538900  0.00578200  1
  Ba  Ba1  1  0.89732900  0.40409600  0.21171400  1
  Ba  Ba2  1  0.66332500  0.81601800  0.41668000  1
  Bi  Bi3  1  0.44558600  0.31024900  0.62080600  1
  Bi  Bi4  1  0.38333600  0.72405500  0.82121400  1
  F  F5  1  0.78909900  0.33956400  0.06266300  1
  F  F6  1  0.19672700  0.04733600  0.16153900  1
  F  F7  1  0.59491900  0.76213800  0.26468900  1
  F  F8  1  0.01810900  0.47346600  0.62636400  1
  F  F9  1  0.97111400  0.46234000  0.36792000  1
  F  F10  1  0.35056800  0.16740100  0.47804500  1
  F  F11  1  0.66440100  0.79234600  0.56286300  1
  F  F12  1  0.94022600  0.85168200  0.85244500  1
  F  F13  1  0.65611200  0.74320000  0.70654100  1
  F  F14  1  0.39825600  0.13362900  0.74718600  1
  F  F15  1  0.63727500  0.19654000  0.89166000  1
  F  F16  1  0.37548700  0.61055100  0.95189000  1
