# generated using pymatgen
data_Mo(PO3)4
_symmetry_space_group_name_H-M   'P 1'
_cell_length_a   15.26943400
_cell_length_b   7.41071800
_cell_length_c   9.60457699
_cell_angle_alpha   90.00000000
_cell_angle_beta   121.66541219
_cell_angle_gamma   90.00000000
_symmetry_Int_Tables_number   1
_chemical_formula_structural   Mo(PO3)4
_chemical_formula_sum   'Mo4 P16 O48'
_cell_volume   925.03130715
_cell_formula_units_Z   4
loop_
 _symmetry_equiv_pos_site_id
 _symmetry_equiv_pos_as_xyz
  1  'x, y, z'
loop_
 _atom_site_type_symbol
 _atom_site_label
 _atom_site_symmetry_multiplicity
 _atom_site_fract_x
 _atom_site_fract_y
 _atom_site_fract_z
 _atom_site_occupancy
  Mo  Mo0  1  0.00000000  0.14369800  0.25000000  1
  Mo  Mo1  1  0.00000000  0.85630200  0.75000000  1
  Mo  Mo2  1  0.50000000  0.64369800  0.25000000  1
  Mo  Mo3  1  0.50000000  0.35630200  0.75000000  1
  P  P4  1  0.62749850  0.93328650  0.13115500  1
  P  P5  1  0.35926650  0.67095050  0.82725500  1
  P  P6  1  0.37250150  0.06671350  0.86884500  1
  P  P7  1  0.87250150  0.43328650  0.36884500  1
  P  P8  1  0.14073350  0.17095050  0.67274500  1
  P  P9  1  0.64073350  0.32904950  0.17274500  1
  P  P10  1  0.12749850  0.56671350  0.63115500  1
  P  P11  1  0.85926650  0.82904950  0.32725500  1
  P  P12  1  0.12749850  0.43328650  0.13115500  1
  P  P13  1  0.85926650  0.17095050  0.82725500  1
  P  P14  1  0.87250150  0.56671350  0.86884500  1
  P  P15  1  0.37250150  0.93328650  0.36884500  1
  P  P16  1  0.64073350  0.67095050  0.67274500  1
  P  P17  1  0.14073350  0.82904950  0.17274500  1
  P  P18  1  0.62749850  0.06671350  0.63115500  1
  P  P19  1  0.35926650  0.32904950  0.32725500  1
  O  O20  1  0.85777950  0.62447650  0.27807600  1
  O  O21  1  0.24636150  0.61142650  0.69493900  1
  O  O22  1  0.92985950  0.06843750  0.79035100  1
  O  O23  1  0.90303400  0.30454600  0.27608800  1
  O  O24  1  0.75363850  0.38857350  0.30506100  1
  O  O25  1  0.61895600  0.35176500  0.00134700  1
  O  O26  1  0.11895600  0.14823500  0.50134700  1
  O  O27  1  0.09696600  0.30454600  0.22391200  1
  O  O28  1  0.92985950  0.93156250  0.29035100  1
  O  O29  1  0.35777950  0.87552350  0.77807600  1
  O  O30  1  0.09696600  0.69545400  0.72391200  1
  O  O31  1  0.07054000  0.43714900  0.95176100  1
  O  O32  1  0.64222050  0.12447650  0.22192400  1
  O  O33  1  0.92946000  0.56285100  0.04823900  1
  O  O34  1  0.07014050  0.93156250  0.20964900  1
  O  O35  1  0.88104400  0.85176500  0.49865300  1
  O  O36  1  0.25363850  0.11142650  0.80506100  1
  O  O37  1  0.14222050  0.37552350  0.72192400  1
  O  O38  1  0.92946000  0.43714900  0.54823900  1
  O  O39  1  0.07014050  0.06843750  0.70964900  1
  O  O40  1  0.90303400  0.69545400  0.77608800  1
  O  O41  1  0.38104400  0.64823500  0.99865300  1
  O  O42  1  0.07054000  0.56285100  0.45176100  1
  O  O43  1  0.74636150  0.88857350  0.19493900  1
  O  O44  1  0.35777950  0.12447650  0.27807600  1
  O  O45  1  0.74636150  0.11142650  0.69493900  1
  O  O46  1  0.42985950  0.56843750  0.79035100  1
  O  O47  1  0.40303400  0.80454600  0.27608800  1
  O  O48  1  0.25363850  0.88857350  0.30506100  1
  O  O49  1  0.11895600  0.85176500  0.00134700  1
  O  O50  1  0.61895600  0.64823500  0.50134700  1
  O  O51  1  0.59696600  0.80454600  0.22391200  1
  O  O52  1  0.42985950  0.43156250  0.29035100  1
  O  O53  1  0.85777950  0.37552350  0.77807600  1
  O  O54  1  0.59696600  0.19545400  0.72391200  1
  O  O55  1  0.57054000  0.93714900  0.95176100  1
  O  O56  1  0.14222050  0.62447650  0.22192400  1
  O  O57  1  0.42946000  0.06285100  0.04823900  1
  O  O58  1  0.57014050  0.43156250  0.20964900  1
  O  O59  1  0.38104400  0.35176500  0.49865300  1
  O  O60  1  0.75363850  0.61142650  0.80506100  1
  O  O61  1  0.64222050  0.87552350  0.72192400  1
  O  O62  1  0.42946000  0.93714900  0.54823900  1
  O  O63  1  0.57014050  0.56843750  0.70964900  1
  O  O64  1  0.40303400  0.19545400  0.77608800  1
  O  O65  1  0.88104400  0.14823500  0.99865300  1
  O  O66  1  0.57054000  0.06285100  0.45176100  1
  O  O67  1  0.24636150  0.38857350  0.19493900  1
