# generated using pymatgen
data_V6PbO11
_symmetry_space_group_name_H-M   'P 1'
_cell_length_a   5.93689611
_cell_length_b   5.93689611
_cell_length_c   13.58260400
_cell_angle_alpha   90.00000000
_cell_angle_beta   90.00000000
_cell_angle_gamma   120.00000000
_symmetry_Int_Tables_number   1
_chemical_formula_structural   V6PbO11
_chemical_formula_sum   'V12 Pb2 O22'
_cell_volume   414.60312257
_cell_formula_units_Z   2
loop_
 _symmetry_equiv_pos_site_id
 _symmetry_equiv_pos_as_xyz
  1  'x, y, z'
loop_
 _atom_site_type_symbol
 _atom_site_label
 _atom_site_symmetry_multiplicity
 _atom_site_fract_x
 _atom_site_fract_y
 _atom_site_fract_z
 _atom_site_occupancy
  V  V0  1  0.33333333  0.66666667  0.75531300  1
  V  V1  1  0.50170300  0.00340600  0.99643100  1
  V  V2  1  0.00000000  0.00000000  0.64605300  1
  V  V3  1  0.00340600  0.50170300  0.49643100  1
  V  V4  1  0.00000000  0.00000000  0.35187400  1
  V  V5  1  0.99659400  0.49829700  0.99643100  1
  V  V6  1  0.00000000  0.00000000  0.14605300  1
  V  V7  1  0.50170300  0.49829700  0.99643100  1
  V  V8  1  0.66666667  0.33333333  0.25531300  1
  V  V9  1  0.49829700  0.99659400  0.49643100  1
  V  V10  1  0.49829700  0.50170300  0.49643100  1
  V  V11  1  0.00000000  0.00000000  0.85187400  1
  Pb  Pb12  1  0.66666667  0.33333333  0.72111500  1
  Pb  Pb13  1  0.33333333  0.66666667  0.22111500  1
  O  O14  1  0.64600400  0.82300200  0.07837000  1
  O  O15  1  0.14791800  0.29583600  0.74920500  1
  O  O16  1  0.70416400  0.85208200  0.74920500  1
  O  O17  1  0.16995800  0.33991600  0.42411700  1
  O  O18  1  0.83004200  0.16995800  0.92411700  1
  O  O19  1  0.33991600  0.16995800  0.92411700  1
  O  O20  1  0.33333333  0.66666667  0.91516700  1
  O  O21  1  0.82300200  0.64600400  0.57837000  1
  O  O22  1  0.29583600  0.14791800  0.24920500  1
  O  O23  1  0.66008400  0.83004200  0.42411700  1
  O  O24  1  0.85208200  0.14791800  0.24920500  1
  O  O25  1  0.14791800  0.85208200  0.74920500  1
  O  O26  1  0.33333333  0.66666667  0.57900900  1
  O  O27  1  0.35399600  0.17699800  0.57837000  1
  O  O28  1  0.66666667  0.33333333  0.07900900  1
  O  O29  1  0.82300200  0.17699800  0.57837000  1
  O  O30  1  0.16995800  0.83004200  0.42411700  1
  O  O31  1  0.66666667  0.33333333  0.41516700  1
  O  O32  1  0.17699800  0.35399600  0.07837000  1
  O  O33  1  0.17699800  0.82300200  0.07837000  1
  O  O34  1  0.85208200  0.70416400  0.24920500  1
  O  O35  1  0.83004200  0.66008400  0.92411700  1
