# generated using pymatgen
data_Na2ThF6
_symmetry_space_group_name_H-M   'P 1'
_cell_length_a   6.82548800
_cell_length_b   11.94831600
_cell_length_c   6.98117211
_cell_angle_alpha   90.00000000
_cell_angle_beta   109.24907733
_cell_angle_gamma   90.00000000
_symmetry_Int_Tables_number   1
_chemical_formula_structural   Na2ThF6
_chemical_formula_sum   'Na8 Th4 F24'
_cell_volume   537.50702096
_cell_formula_units_Z   4
loop_
 _symmetry_equiv_pos_site_id
 _symmetry_equiv_pos_as_xyz
  1  'x, y, z'
loop_
 _atom_site_type_symbol
 _atom_site_label
 _atom_site_symmetry_multiplicity
 _atom_site_fract_x
 _atom_site_fract_y
 _atom_site_fract_z
 _atom_site_occupancy
  Na  Na0  1  0.50000000  0.58118500  0.25000000  1
  Na  Na1  1  0.00000000  0.75699400  0.25000000  1
  Na  Na2  1  0.00000000  0.91881500  0.75000000  1
  Na  Na3  1  0.50000000  0.74300600  0.75000000  1
  Na  Na4  1  0.00000000  0.08118500  0.25000000  1
  Na  Na5  1  0.50000000  0.25699400  0.25000000  1
  Na  Na6  1  0.50000000  0.41881500  0.75000000  1
  Na  Na7  1  0.00000000  0.24300600  0.75000000  1
  Th  Th8  1  0.50000000  0.90727000  0.25000000  1
  Th  Th9  1  0.00000000  0.59273000  0.75000000  1
  Th  Th10  1  0.00000000  0.40727000  0.25000000  1
  Th  Th11  1  0.50000000  0.09273000  0.75000000  1
  F  F12  1  0.10765650  0.57719150  0.11580300  1
  F  F13  1  0.14830750  0.91855450  0.12866000  1
  F  F14  1  0.64830750  0.58144550  0.62866000  1
  F  F15  1  0.61616850  0.75517550  0.12593700  1
  F  F16  1  0.35169250  0.58144550  0.87134000  1
  F  F17  1  0.60765650  0.92280850  0.61580300  1
  F  F18  1  0.39234350  0.92280850  0.88419700  1
  F  F19  1  0.11616850  0.74482450  0.62593700  1
  F  F20  1  0.89234350  0.57719150  0.38419700  1
  F  F21  1  0.88383150  0.74482450  0.87406300  1
  F  F22  1  0.85169250  0.91855450  0.37134000  1
  F  F23  1  0.38383150  0.75517550  0.37406300  1
  F  F24  1  0.60765650  0.07719150  0.11580300  1
  F  F25  1  0.64830750  0.41855450  0.12866000  1
  F  F26  1  0.14830750  0.08144550  0.62866000  1
  F  F27  1  0.11616850  0.25517550  0.12593700  1
  F  F28  1  0.85169250  0.08144550  0.87134000  1
  F  F29  1  0.10765650  0.42280850  0.61580300  1
  F  F30  1  0.89234350  0.42280850  0.88419700  1
  F  F31  1  0.61616850  0.24482450  0.62593700  1
  F  F32  1  0.39234350  0.07719150  0.38419700  1
  F  F33  1  0.38383150  0.24482450  0.87406300  1
  F  F34  1  0.35169250  0.41855450  0.37134000  1
  F  F35  1  0.88383150  0.25517550  0.37406300  1
