# generated using pymatgen
data_RbPrP3HO10
_symmetry_space_group_name_H-M   'P 1'
_cell_length_a   7.19857600
_cell_length_b   7.98370898
_cell_length_c   9.07175338
_cell_angle_alpha   70.67290835
_cell_angle_beta   73.19278346
_cell_angle_gamma   82.67487753
_symmetry_Int_Tables_number   1
_chemical_formula_structural   RbPrP3HO10
_chemical_formula_sum   'Rb2 Pr2 P6 H2 O20'
_cell_volume   470.67601263
_cell_formula_units_Z   2
loop_
 _symmetry_equiv_pos_site_id
 _symmetry_equiv_pos_as_xyz
  1  'x, y, z'
loop_
 _atom_site_type_symbol
 _atom_site_label
 _atom_site_symmetry_multiplicity
 _atom_site_fract_x
 _atom_site_fract_y
 _atom_site_fract_z
 _atom_site_occupancy
  Rb  Rb0  1  0.26447800  0.33359100  0.96476200  1
  Rb  Rb1  1  0.73552200  0.66640900  0.03523800  1
  Pr  Pr2  1  0.72358200  0.63417100  0.51467800  1
  Pr  Pr3  1  0.27641800  0.36582900  0.48532200  1
  P  P4  1  0.82757100  0.32068500  0.35472100  1
  P  P5  1  0.82888900  0.22146800  0.81064700  1
  P  P6  1  0.17111100  0.77853200  0.18935300  1
  P  P7  1  0.35227800  0.96233300  0.35661200  1
  P  P8  1  0.17242900  0.67931500  0.64527900  1
  P  P9  1  0.64772200  0.03766700  0.64338800  1
  H  H10  1  0.33386100  0.90463400  0.92781500  1
  H  H11  1  0.66613900  0.09536600  0.07218500  1
  O  O12  1  0.79494400  0.12690000  0.99945100  1
  O  O13  1  0.95233100  0.37245500  0.44464400  1
  O  O14  1  0.45619300  0.13921600  0.67444800  1
  O  O15  1  0.36621500  0.56749400  0.61657700  1
  O  O16  1  0.64199200  0.83921000  0.67879400  1
  O  O17  1  0.77205500  0.11260100  0.45925900  1
  O  O18  1  0.22385300  0.93834400  0.24578300  1
  O  O19  1  0.08281500  0.67195800  0.81636200  1
  O  O20  1  0.22794500  0.88739900  0.54074100  1
  O  O21  1  0.54380700  0.86078400  0.32555200  1
  O  O22  1  0.77614700  0.06165600  0.75421700  1
  O  O23  1  0.35800800  0.16079000  0.32120600  1
  O  O24  1  0.95617800  0.75210100  0.25257300  1
  O  O25  1  0.91718500  0.32804200  0.18363800  1
  O  O26  1  0.30871900  0.61882400  0.22790000  1
  O  O27  1  0.69128100  0.38117600  0.77210000  1
  O  O28  1  0.04766900  0.62754500  0.55535600  1
  O  O29  1  0.63378500  0.43250600  0.38342300  1
  O  O30  1  0.04382200  0.24789900  0.74742700  1
  O  O31  1  0.20505600  0.87310000  0.00054900  1
