# generated using pymatgen
data_H5IO6
_symmetry_space_group_name_H-M   'P 1'
_cell_length_a   5.03167500
_cell_length_b   19.29823600
_cell_length_c   5.80042462
_cell_angle_alpha   90.00000000
_cell_angle_beta   122.26722017
_cell_angle_gamma   90.00000000
_symmetry_Int_Tables_number   1
_chemical_formula_structural   H5IO6
_chemical_formula_sum   'H20 I4 O24'
_cell_volume   476.25353936
_cell_formula_units_Z   4
loop_
 _symmetry_equiv_pos_site_id
 _symmetry_equiv_pos_as_xyz
  1  'x, y, z'
loop_
 _atom_site_type_symbol
 _atom_site_label
 _atom_site_symmetry_multiplicity
 _atom_site_fract_x
 _atom_site_fract_y
 _atom_site_fract_z
 _atom_site_occupancy
  H  H0  1  0.34396800  0.25484200  0.16176300  1
  H  H1  1  0.34396800  0.74515800  0.66176300  1
  H  H2  1  0.64982300  0.24482600  0.84016700  1
  H  H3  1  0.64982300  0.75517400  0.34016700  1
  H  H4  1  0.86654300  0.31456800  0.37384000  1
  H  H5  1  0.86654300  0.68543200  0.87384000  1
  H  H6  1  0.13764300  0.18582900  0.63037100  1
  H  H7  1  0.13764300  0.81417100  0.13037100  1
  H  H8  1  0.90922800  0.45659400  0.32453400  1
  H  H9  1  0.90922800  0.54340600  0.82453400  1
  H  H10  1  0.08872300  0.01506900  0.84176200  1
  H  H11  1  0.08872300  0.98493100  0.34176200  1
  H  H12  1  0.58103100  0.38605500  0.60478400  1
  H  H13  1  0.58103100  0.61394500  0.10478400  1
  H  H14  1  0.41445500  0.11672600  0.39072000  1
  H  H15  1  0.41445500  0.88327400  0.89072000  1
  H  H16  1  0.40132600  0.43065600  0.98641100  1
  H  H17  1  0.40132600  0.56934400  0.48641100  1
  H  H18  1  0.59043100  0.06817400  0.00831600  1
  H  H19  1  0.59043100  0.93182600  0.50831600  1
  I  I20  1  0.11712700  0.36799200  0.15542300  1
  I  I21  1  0.11712700  0.63200800  0.65542300  1
  I  I22  1  0.87894600  0.13181500  0.84221700  1
  I  I23  1  0.87894600  0.86818500  0.34221700  1
  O  O24  1  0.43472000  0.30351400  0.19964100  1
  O  O25  1  0.43472000  0.69648600  0.69964100  1
  O  O26  1  0.56071400  0.19609600  0.79950900  1
  O  O27  1  0.56071400  0.80390400  0.29950900  1
  O  O28  1  0.78722600  0.32552200  0.86150100  1
  O  O29  1  0.78722600  0.67447800  0.36150100  1
  O  O30  1  0.20300200  0.17559500  0.13653300  1
  O  O31  1  0.20300200  0.82440500  0.63653300  1
  O  O32  1  0.09139700  0.31825400  0.43151900  1
  O  O33  1  0.09139700  0.68174600  0.93151900  1
  O  O34  1  0.91240200  0.18195200  0.57251200  1
  O  O35  1  0.91240200  0.81804800  0.07251200  1
  O  O36  1  0.82271800  0.43797000  0.14051100  1
  O  O37  1  0.82271800  0.56203000  0.64051100  1
  O  O38  1  0.17650100  0.06193800  0.86570400  1
  O  O39  1  0.17650100  0.93806200  0.36570400  1
  O  O40  1  0.45766000  0.41967300  0.44850600  1
  O  O41  1  0.45766000  0.58032700  0.94850600  1
  O  O42  1  0.53668000  0.08199000  0.54450200  1
  O  O43  1  0.53668000  0.91801000  0.04450200  1
  O  O44  1  0.17209400  0.42631800  0.91453100  1
  O  O45  1  0.17209400  0.57368200  0.41453100  1
  O  O46  1  0.81909700  0.07141400  0.07739200  1
  O  O47  1  0.81909700  0.92858600  0.57739200  1
