# generated using pymatgen
data_Cs5Ag4C8IN8
_symmetry_space_group_name_H-M   'P 1'
_cell_length_a   20.12679600
_cell_length_b   20.12679600
_cell_length_c   20.12679600
_cell_angle_alpha   90.00000000
_cell_angle_beta   90.00000000
_cell_angle_gamma   90.00000000
_symmetry_Int_Tables_number   1
_chemical_formula_structural   Cs5Ag4C8IN8
_chemical_formula_sum   'Cs60 Ag48 C96 I12 N96'
_cell_volume   8153.12187206
_cell_formula_units_Z   12
loop_
 _symmetry_equiv_pos_site_id
 _symmetry_equiv_pos_as_xyz
  1  'x, y, z'
loop_
 _atom_site_type_symbol
 _atom_site_label
 _atom_site_symmetry_multiplicity
 _atom_site_fract_x
 _atom_site_fract_y
 _atom_site_fract_z
 _atom_site_occupancy
  Cs  Cs0  1  0.93618800  0.56919600  0.13273500  1
  Cs  Cs1  1  0.56919600  0.13273500  0.93618800  1
  Cs  Cs2  1  0.63273500  0.56381200  0.43080400  1
  Cs  Cs3  1  0.18080400  0.31381200  0.38273500  1
  Cs  Cs4  1  0.68618800  0.11726500  0.18080400  1
  Cs  Cs5  1  0.61726500  0.31919600  0.31381200  1
  Cs  Cs6  1  0.56381200  0.43080400  0.63273500  1
  Cs  Cs7  1  0.37500000  0.50000000  0.75000000  1
  Cs  Cs8  1  0.50000000  0.75000000  0.37500000  1
  Cs  Cs9  1  0.93618800  0.43080400  0.36726500  1
  Cs  Cs10  1  0.06919600  0.36726500  0.06381200  1
  Cs  Cs11  1  0.06381200  0.06919600  0.36726500  1
  Cs  Cs12  1  0.43080400  0.63273500  0.56381200  1
  Cs  Cs13  1  0.18618800  0.38273500  0.81919600  1
  Cs  Cs14  1  0.31381200  0.61726500  0.31919600  1
  Cs  Cs15  1  0.50000000  0.25000000  0.12500000  1
  Cs  Cs16  1  0.75000000  0.37500000  0.50000000  1
  Cs  Cs17  1  0.11726500  0.18080400  0.68618800  1
  Cs  Cs18  1  0.13273500  0.93618800  0.56919600  1
  Cs  Cs19  1  0.25000000  0.12500000  0.50000000  1
  Cs  Cs20  1  0.38273500  0.81919600  0.18618800  1
  Cs  Cs21  1  0.12500000  0.50000000  0.25000000  1
  Cs  Cs22  1  0.31919600  0.31381200  0.61726500  1
  Cs  Cs23  1  0.36726500  0.06381200  0.06919600  1
  Cs  Cs24  1  0.81919600  0.18618800  0.38273500  1
  Cs  Cs25  1  0.18080400  0.68618800  0.11726500  1
  Cs  Cs26  1  0.36726500  0.93618800  0.43080400  1
  Cs  Cs27  1  0.38273500  0.18080400  0.31381200  1
  Cs  Cs28  1  0.31381200  0.38273500  0.18080400  1
  Cs  Cs29  1  0.43080400  0.36726500  0.93618800  1
  Cs  Cs30  1  0.43618800  0.06919600  0.63273500  1
  Cs  Cs31  1  0.06919600  0.63273500  0.43618800  1
  Cs  Cs32  1  0.13273500  0.06381200  0.93080400  1
  Cs  Cs33  1  0.68080400  0.81381200  0.88273500  1
  Cs  Cs34  1  0.18618800  0.61726500  0.68080400  1
  Cs  Cs35  1  0.11726500  0.81919600  0.81381200  1
  Cs  Cs36  1  0.06381200  0.93080400  0.13273500  1
  Cs  Cs37  1  0.87500000  0.00000000  0.25000000  1
  Cs  Cs38  1  0.00000000  0.25000000  0.87500000  1
  Cs  Cs39  1  0.43618800  0.93080400  0.86726500  1
  Cs  Cs40  1  0.56919600  0.86726500  0.56381200  1
  Cs  Cs41  1  0.56381200  0.56919600  0.86726500  1
  Cs  Cs42  1  0.93080400  0.13273500  0.06381200  1
  Cs  Cs43  1  0.68618800  0.88273500  0.31919600  1
  Cs  Cs44  1  0.81381200  0.11726500  0.81919600  1
  Cs  Cs45  1  0.00000000  0.75000000  0.62500000  1
  Cs  Cs46  1  0.25000000  0.87500000  0.00000000  1
  Cs  Cs47  1  0.61726500  0.68080400  0.18618800  1
  Cs  Cs48  1  0.63273500  0.43618800  0.06919600  1
  Cs  Cs49  1  0.75000000  0.62500000  0.00000000  1
  Cs  Cs50  1  0.88273500  0.31919600  0.68618800  1
  Cs  Cs51  1  0.62500000  0.00000000  0.75000000  1
  Cs  Cs52  1  0.81919600  0.81381200  0.11726500  1
  Cs  Cs53  1  0.86726500  0.56381200  0.56919600  1
  Cs  Cs54  1  0.31919600  0.68618800  0.88273500  1
  Cs  Cs55  1  0.68080400  0.18618800  0.61726500  1
  Cs  Cs56  1  0.86726500  0.43618800  0.93080400  1
  Cs  Cs57  1  0.88273500  0.68080400  0.81381200  1
  Cs  Cs58  1  0.81381200  0.88273500  0.68080400  1
  Cs  Cs59  1  0.93080400  0.86726500  0.43618800  1
  Ag  Ag60  1  0.21084450  0.21639950  0.08345250  1
  Ag  Ag61  1  0.53360050  0.96084450  0.16654750  1
  Ag  Ag62  1  0.66654750  0.96639950  0.03915550  1
  Ag  Ag63  1  0.46639950  0.46084450  0.33345250  1
  Ag  Ag64  1  0.28915550  0.78360050  0.58345250  1
  Ag  Ag65  1  0.28915550  0.21639950  0.91654750  1
  Ag  Ag66  1  0.53360050  0.03915550  0.33345250  1
  Ag  Ag67  1  0.28360050  0.91654750  0.71084450  1
  Ag  Ag68  1  0.58345250  0.28915550  0.78360050  1
  Ag  Ag69  1  0.03915550  0.66654750  0.96639950  1
  Ag  Ag70  1  0.96084450  0.16654750  0.53360050  1
  Ag  Ag71  1  0.46084450  0.33345250  0.46639950  1
  Ag  Ag72  1  0.08345250  0.21084450  0.21639950  1
  Ag  Ag73  1  0.71084450  0.28360050  0.91654750  1
  Ag  Ag74  1  0.78360050  0.58345250  0.28915550  1
  Ag  Ag75  1  0.03915550  0.33345250  0.53360050  1
  Ag  Ag76  1  0.33345250  0.46639950  0.46084450  1
  Ag  Ag77  1  0.91654750  0.28915550  0.21639950  1
  Ag  Ag78  1  0.21639950  0.91654750  0.28915550  1
  Ag  Ag79  1  0.96639950  0.03915550  0.66654750  1
  Ag  Ag80  1  0.91654750  0.71084450  0.28360050  1
  Ag  Ag81  1  0.16654750  0.53360050  0.96084450  1
  Ag  Ag82  1  0.21639950  0.08345250  0.21084450  1
  Ag  Ag83  1  0.33345250  0.53360050  0.03915550  1
  Ag  Ag84  1  0.71084450  0.71639950  0.58345250  1
  Ag  Ag85  1  0.03360050  0.46084450  0.66654750  1
  Ag  Ag86  1  0.16654750  0.46639950  0.53915550  1
  Ag  Ag87  1  0.96639950  0.96084450  0.83345250  1
  Ag  Ag88  1  0.78915550  0.28360050  0.08345250  1
  Ag  Ag89  1  0.78915550  0.71639950  0.41654750  1
  Ag  Ag90  1  0.03360050  0.53915550  0.83345250  1
  Ag  Ag91  1  0.78360050  0.41654750  0.21084450  1
  Ag  Ag92  1  0.08345250  0.78915550  0.28360050  1
  Ag  Ag93  1  0.53915550  0.16654750  0.46639950  1
  Ag  Ag94  1  0.46084450  0.66654750  0.03360050  1
  Ag  Ag95  1  0.96084450  0.83345250  0.96639950  1
  Ag  Ag96  1  0.58345250  0.71084450  0.71639950  1
  Ag  Ag97  1  0.21084450  0.78360050  0.41654750  1
  Ag  Ag98  1  0.28360050  0.08345250  0.78915550  1
  Ag  Ag99  1  0.53915550  0.83345250  0.03360050  1
  Ag  Ag100  1  0.83345250  0.96639950  0.96084450  1
  Ag  Ag101  1  0.41654750  0.78915550  0.71639950  1
  Ag  Ag102  1  0.71639950  0.41654750  0.78915550  1
  Ag  Ag103  1  0.46639950  0.53915550  0.16654750  1
  Ag  Ag104  1  0.41654750  0.21084450  0.78360050  1
  Ag  Ag105  1  0.66654750  0.03360050  0.46084450  1
  Ag  Ag106  1  0.71639950  0.58345250  0.71084450  1
  Ag  Ag107  1  0.83345250  0.03360050  0.53915550  1
  C  C108  1  0.96268600  0.04977300  0.88481500  1
  C  C109  1  0.21268600  0.86518500  0.20022700  1
  C  C110  1  0.38015700  0.79631500  0.53801600  1
  C  C111  1  0.13015700  0.28801600  0.54631500  1
  C  C112  1  0.13481500  0.29977300  0.21268600  1
  C  C113  1  0.54631500  0.86984300  0.21198400  1
  C  C114  1  0.54631500  0.13015700  0.28801600  1
  C  C115  1  0.36518500  0.29977300  0.78731400  1
  C  C116  1  0.45368500  0.36984300  0.28801600  1
  C  C117  1  0.88481500  0.96268600  0.04977300  1
  C  C118  1  0.04977300  0.11518500  0.53731400  1
  C  C119  1  0.45022700  0.11518500  0.46268600  1
  C  C120  1  0.20022700  0.21268600  0.86518500  1
  C  C121  1  0.53801600  0.38015700  0.79631500  1
  C  C122  1  0.21268600  0.13481500  0.29977300  1
  C  C123  1  0.71198400  0.95368500  0.13015700  1
  C  C124  1  0.78731400  0.36518500  0.29977300  1
  C  C125  1  0.86984300  0.21198400  0.54631500  1
  C  C126  1  0.61984300  0.29631500  0.96198400  1
  C  C127  1  0.46268600  0.45022700  0.11518500  1
  C  C128  1  0.04977300  0.88481500  0.96268600  1
  C  C129  1  0.95368500  0.13015700  0.71198400  1
  C  C130  1  0.38015700  0.20368500  0.96198400  1
  C  C131  1  0.70022700  0.28731400  0.13481500  1
  C  C132  1  0.28801600  0.54631500  0.13015700  1
  C  C133  1  0.29977300  0.78731400  0.36518500  1
  C  C134  1  0.36984300  0.28801600  0.45368500  1
  C  C135  1  0.20368500  0.96198400  0.38015700  1
  C  C136  1  0.11984300  0.20368500  0.03801600  1
  C  C137  1  0.95022700  0.38481500  0.53731400  1
  C  C138  1  0.11518500  0.53731400  0.04977300  1
  C  C139  1  0.28731400  0.13481500  0.70022700  1
  C  C140  1  0.53731400  0.95022700  0.38481500  1
  C  C141  1  0.96198400  0.38015700  0.20368500  1
  C  C142  1  0.86518500  0.20022700  0.21268600  1
  C  C143  1  0.29977300  0.21268600  0.13481500  1
  C  C144  1  0.11518500  0.46268600  0.45022700  1
  C  C145  1  0.21198400  0.54631500  0.86984300  1
  C  C146  1  0.53731400  0.04977300  0.11518500  1
  C  C147  1  0.20368500  0.03801600  0.11984300  1
  C  C148  1  0.79631500  0.53801600  0.38015700  1
  C  C149  1  0.38481500  0.53731400  0.95022700  1
  C  C150  1  0.28801600  0.45368500  0.36984300  1
  C  C151  1  0.03801600  0.11984300  0.20368500  1
  C  C152  1  0.13015700  0.71198400  0.95368500  1
  C  C153  1  0.29631500  0.96198400  0.61984300  1
  C  C154  1  0.96198400  0.61984300  0.29631500  1
  C  C155  1  0.13481500  0.70022700  0.28731400  1
  C  C156  1  0.46268600  0.54977300  0.38481500  1
  C  C157  1  0.71268600  0.36518500  0.70022700  1
  C  C158  1  0.88015700  0.29631500  0.03801600  1
  C  C159  1  0.63015700  0.78801600  0.04631500  1
  C  C160  1  0.63481500  0.79977300  0.71268600  1
  C  C161  1  0.04631500  0.36984300  0.71198400  1
  C  C162  1  0.04631500  0.63015700  0.78801600  1
  C  C163  1  0.86518500  0.79977300  0.28731400  1
  C  C164  1  0.95368500  0.86984300  0.78801600  1
  C  C165  1  0.38481500  0.46268600  0.54977300  1
  C  C166  1  0.54977300  0.61518500  0.03731400  1
  C  C167  1  0.95022700  0.61518500  0.96268600  1
  C  C168  1  0.70022700  0.71268600  0.36518500  1
  C  C169  1  0.03801600  0.88015700  0.29631500  1
  C  C170  1  0.71268600  0.63481500  0.79977300  1
  C  C171  1  0.21198400  0.45368500  0.63015700  1
  C  C172  1  0.28731400  0.86518500  0.79977300  1
  C  C173  1  0.36984300  0.71198400  0.04631500  1
  C  C174  1  0.11984300  0.79631500  0.46198400  1
  C  C175  1  0.96268600  0.95022700  0.61518500  1
  C  C176  1  0.54977300  0.38481500  0.46268600  1
  C  C177  1  0.45368500  0.63015700  0.21198400  1
  C  C178  1  0.88015700  0.70368500  0.46198400  1
  C  C179  1  0.20022700  0.78731400  0.63481500  1
  C  C180  1  0.78801600  0.04631500  0.63015700  1
  C  C181  1  0.79977300  0.28731400  0.86518500  1
  C  C182  1  0.86984300  0.78801600  0.95368500  1
  C  C183  1  0.70368500  0.46198400  0.88015700  1
  C  C184  1  0.61984300  0.70368500  0.53801600  1
  C  C185  1  0.45022700  0.88481500  0.03731400  1
  C  C186  1  0.61518500  0.03731400  0.54977300  1
  C  C187  1  0.78731400  0.63481500  0.20022700  1
  C  C188  1  0.03731400  0.45022700  0.88481500  1
  C  C189  1  0.46198400  0.88015700  0.70368500  1
  C  C190  1  0.36518500  0.70022700  0.71268600  1
  C  C191  1  0.79977300  0.71268600  0.63481500  1
  C  C192  1  0.61518500  0.96268600  0.95022700  1
  C  C193  1  0.71198400  0.04631500  0.36984300  1
  C  C194  1  0.03731400  0.54977300  0.61518500  1
  C  C195  1  0.70368500  0.53801600  0.61984300  1
  C  C196  1  0.29631500  0.03801600  0.88015700  1
  C  C197  1  0.88481500  0.03731400  0.45022700  1
  C  C198  1  0.78801600  0.95368500  0.86984300  1
  C  C199  1  0.53801600  0.61984300  0.70368500  1
  C  C200  1  0.63015700  0.21198400  0.45368500  1
  C  C201  1  0.79631500  0.46198400  0.11984300  1
  C  C202  1  0.46198400  0.11984300  0.79631500  1
  C  C203  1  0.63481500  0.20022700  0.78731400  1
  I  I204  1  0.75000000  0.12500000  0.00000000  1
  I  I205  1  0.12500000  0.00000000  0.75000000  1
  I  I206  1  0.37500000  0.00000000  0.25000000  1
  I  I207  1  0.00000000  0.75000000  0.12500000  1
  I  I208  1  0.00000000  0.25000000  0.37500000  1
  I  I209  1  0.25000000  0.37500000  0.00000000  1
  I  I210  1  0.25000000  0.62500000  0.50000000  1
  I  I211  1  0.62500000  0.50000000  0.25000000  1
  I  I212  1  0.87500000  0.50000000  0.75000000  1
  I  I213  1  0.50000000  0.25000000  0.62500000  1
  I  I214  1  0.50000000  0.75000000  0.87500000  1
  I  I215  1  0.75000000  0.87500000  0.50000000  1
  N  N216  1  0.51291850  0.43233150  0.80469050  1
  N  N217  1  0.55469050  0.18233150  0.26291850  1
  N  N218  1  0.33676650  0.64953050  0.70891650  1
  N  N219  1  0.29108350  0.16323350  0.64953050  1
  N  N220  1  0.35046950  0.79108350  0.33676650  1
  N  N221  1  0.64953050  0.29108350  0.16323350  1
  N  N222  1  0.26291850  0.44530950  0.31766850  1
  N  N223  1  0.44530950  0.31766850  0.26291850  1
  N  N224  1  0.41323350  0.54108350  0.89953050  1
  N  N225  1  0.45891650  0.60046950  0.41323350  1
  N  N226  1  0.79108350  0.33676650  0.35046950  1
  N  N227  1  0.33676650  0.35046950  0.79108350  1
  N  N228  1  0.20891650  0.16323350  0.35046950  1
  N  N229  1  0.06766850  0.19530950  0.01291850  1
  N  N230  1  0.19530950  0.98708150  0.43233150  1
  N  N231  1  0.64953050  0.70891650  0.33676650  1
  N  N232  1  0.56766850  0.30469050  0.98708150  1
  N  N233  1  0.08676650  0.54108350  0.10046950  1
  N  N234  1  0.41323350  0.45891650  0.60046950  1
  N  N235  1  0.30469050  0.98708150  0.56766850  1
  N  N236  1  0.10046950  0.08676650  0.54108350  1
  N  N237  1  0.54108350  0.10046950  0.08676650  1
  N  N238  1  0.35046950  0.20891650  0.16323350  1
  N  N239  1  0.89953050  0.41323350  0.54108350  1
  N  N240  1  0.23708150  0.55469050  0.81766850  1
  N  N241  1  0.39953050  0.08676650  0.45891650  1
  N  N242  1  0.45891650  0.39953050  0.08676650  1
  N  N243  1  0.73708150  0.94530950  0.18233150  1
  N  N244  1  0.08676650  0.45891650  0.39953050  1
  N  N245  1  0.26291850  0.55469050  0.18233150  1
  N  N246  1  0.70891650  0.33676650  0.64953050  1
  N  N247  1  0.98708150  0.56766850  0.30469050  1
  N  N248  1  0.54108350  0.89953050  0.41323350  1
  N  N249  1  0.19530950  0.01291850  0.06766850  1
  N  N250  1  0.94530950  0.18233150  0.73708150  1
  N  N251  1  0.98708150  0.43233150  0.19530950  1
  N  N252  1  0.55469050  0.81766850  0.23708150  1
  N  N253  1  0.43233150  0.19530950  0.98708150  1
  N  N254  1  0.18233150  0.73708150  0.94530950  1
  N  N255  1  0.31766850  0.26291850  0.44530950  1
  N  N256  1  0.60046950  0.41323350  0.45891650  1
  N  N257  1  0.43233150  0.80469050  0.51291850  1
  N  N258  1  0.81766850  0.23708150  0.55469050  1
  N  N259  1  0.18233150  0.26291850  0.55469050  1
  N  N260  1  0.16323350  0.35046950  0.20891650  1
  N  N261  1  0.01291850  0.06766850  0.19530950  1
  N  N262  1  0.16323350  0.64953050  0.29108350  1
  N  N263  1  0.80469050  0.51291850  0.43233150  1
  N  N264  1  0.01291850  0.93233150  0.30469050  1
  N  N265  1  0.05469050  0.68233150  0.76291850  1
  N  N266  1  0.83676650  0.14953050  0.20891650  1
  N  N267  1  0.79108350  0.66323350  0.14953050  1
  N  N268  1  0.85046950  0.29108350  0.83676650  1
  N  N269  1  0.14953050  0.79108350  0.66323350  1
  N  N270  1  0.76291850  0.94530950  0.81766850  1
  N  N271  1  0.94530950  0.81766850  0.76291850  1
  N  N272  1  0.91323350  0.04108350  0.39953050  1
  N  N273  1  0.95891650  0.10046950  0.91323350  1
  N  N274  1  0.29108350  0.83676650  0.85046950  1
  N  N275  1  0.83676650  0.85046950  0.29108350  1
  N  N276  1  0.70891650  0.66323350  0.85046950  1
  N  N277  1  0.56766850  0.69530950  0.51291850  1
  N  N278  1  0.69530950  0.48708150  0.93233150  1
  N  N279  1  0.14953050  0.20891650  0.83676650  1
  N  N280  1  0.06766850  0.80469050  0.48708150  1
  N  N281  1  0.58676650  0.04108350  0.60046950  1
  N  N282  1  0.91323350  0.95891650  0.10046950  1
  N  N283  1  0.80469050  0.48708150  0.06766850  1
  N  N284  1  0.60046950  0.58676650  0.04108350  1
  N  N285  1  0.04108350  0.60046950  0.58676650  1
  N  N286  1  0.85046950  0.70891650  0.66323350  1
  N  N287  1  0.39953050  0.91323350  0.04108350  1
  N  N288  1  0.73708150  0.05469050  0.31766850  1
  N  N289  1  0.89953050  0.58676650  0.95891650  1
  N  N290  1  0.95891650  0.89953050  0.58676650  1
  N  N291  1  0.23708150  0.44530950  0.68233150  1
  N  N292  1  0.58676650  0.95891650  0.89953050  1
  N  N293  1  0.76291850  0.05469050  0.68233150  1
  N  N294  1  0.20891650  0.83676650  0.14953050  1
  N  N295  1  0.48708150  0.06766850  0.80469050  1
  N  N296  1  0.04108350  0.39953050  0.91323350  1
  N  N297  1  0.69530950  0.51291850  0.56766850  1
  N  N298  1  0.44530950  0.68233150  0.23708150  1
  N  N299  1  0.48708150  0.93233150  0.69530950  1
  N  N300  1  0.05469050  0.31766850  0.73708150  1
  N  N301  1  0.93233150  0.69530950  0.48708150  1
  N  N302  1  0.68233150  0.23708150  0.44530950  1
  N  N303  1  0.81766850  0.76291850  0.94530950  1
  N  N304  1  0.10046950  0.91323350  0.95891650  1
  N  N305  1  0.93233150  0.30469050  0.01291850  1
  N  N306  1  0.31766850  0.73708150  0.05469050  1
  N  N307  1  0.68233150  0.76291850  0.05469050  1
  N  N308  1  0.66323350  0.85046950  0.70891650  1
  N  N309  1  0.51291850  0.56766850  0.69530950  1
  N  N310  1  0.66323350  0.14953050  0.79108350  1
  N  N311  1  0.30469050  0.01291850  0.93233150  1
