# generated using pymatgen
data_Fe4H14O13
_symmetry_space_group_name_H-M   'P 1'
_cell_length_a   6.69491200
_cell_length_b   6.72492043
_cell_length_c   6.73278306
_cell_angle_alpha   109.25426167
_cell_angle_beta   109.57336593
_cell_angle_gamma   109.19308019
_symmetry_Int_Tables_number   1
_chemical_formula_structural   Fe4H14O13
_chemical_formula_sum   'Fe4 H14 O13'
_cell_volume   234.47093505
_cell_formula_units_Z   1
loop_
 _symmetry_equiv_pos_site_id
 _symmetry_equiv_pos_as_xyz
  1  'x, y, z'
loop_
 _atom_site_type_symbol
 _atom_site_label
 _atom_site_symmetry_multiplicity
 _atom_site_fract_x
 _atom_site_fract_y
 _atom_site_fract_z
 _atom_site_occupancy
  Fe  Fe0  1  0.50003200  0.00857700  0.00255500  1
  Fe  Fe1  1  0.99405900  0.99871600  0.49628900  1
  Fe  Fe2  1  0.49545400  0.49369800  0.49420400  1
  Fe  Fe3  1  0.99236400  0.49960000  0.00076300  1
  H  H4  1  0.18935200  0.73650300  0.55315900  1
  H  H5  1  0.80003300  0.25851500  0.44777700  1
  H  H6  1  0.94636100  0.63305900  0.68708000  1
  H  H7  1  0.04579200  0.36433600  0.31830200  1
  H  H8  1  0.33999700  0.57815200  0.91367700  1
  H  H9  1  0.64826700  0.57655900  0.22450100  1
  H  H10  1  0.54696600  0.31219300  0.85824500  1
  H  H11  1  0.24061700  0.19231700  0.04283600  1
  H  H12  1  0.11965200  0.94417800  0.17642100  1
  H  H13  1  0.75385800  0.81162900  0.94309000  1
  H  H14  1  0.88286800  0.06294700  0.82109200  1
  H  H15  1  0.54258600  0.93280200  0.59929800  1
  H  H16  1  0.46043200  0.87054900  0.32886400  1
  H  H17  1  0.39055200  0.15026900  0.54470400  1
  O  O18  1  0.19027500  0.86745500  0.68010000  1
  O  O19  1  0.81571500  0.14384400  0.32081700  1
  O  O20  1  0.81734500  0.49761900  0.67896800  1
  O  O21  1  0.17424700  0.49751300  0.32228600  1
  O  O22  1  0.31052200  0.69782600  0.01322900  1
  O  O23  1  0.32976800  0.27032800  0.60135300  1
  O  O24  1  0.68799600  0.69485900  0.38519800  1
  O  O25  1  0.67754100  0.31139500  0.98532400  1
  O  O26  1  0.36023200  0.18308800  0.17299700  1
  O  O27  1  0.98706400  0.81656000  0.17224600  1
  O  O28  1  0.62237700  0.81070500  0.81352000  1
  O  O29  1  0.01210800  0.18934000  0.82079900  1
  O  O30  1  0.50356200  0.99574500  0.48805000  1
