# generated using pymatgen
data_K2OsNCl5
_symmetry_space_group_name_H-M   'P 1'
_cell_length_a   6.92383100
_cell_length_b   9.95967900
_cell_length_c   13.43600100
_cell_angle_alpha   90.00000000
_cell_angle_beta   90.00000000
_cell_angle_gamma   90.00000000
_symmetry_Int_Tables_number   1
_chemical_formula_structural   K2OsNCl5
_chemical_formula_sum   'K8 Os4 N4 Cl20'
_cell_volume   926.53499621
_cell_formula_units_Z   4
loop_
 _symmetry_equiv_pos_site_id
 _symmetry_equiv_pos_as_xyz
  1  'x, y, z'
loop_
 _atom_site_type_symbol
 _atom_site_label
 _atom_site_symmetry_multiplicity
 _atom_site_fract_x
 _atom_site_fract_y
 _atom_site_fract_z
 _atom_site_occupancy
  K  K0  1  0.83043800  0.50093300  0.64540400  1
  K  K1  1  0.33043800  0.00093300  0.85459600  1
  K  K2  1  0.66956200  0.50093300  0.14540400  1
  K  K3  1  0.16956200  0.00093300  0.35459600  1
  K  K4  1  0.16956200  0.49906700  0.35459600  1
  K  K5  1  0.66956200  0.99906700  0.14540400  1
  K  K6  1  0.33043800  0.49906700  0.85459600  1
  K  K7  1  0.83043800  0.99906700  0.64540400  1
  Os  Os8  1  0.32980400  0.25000000  0.59266200  1
  Os  Os9  1  0.67019600  0.75000000  0.40733800  1
  Os  Os10  1  0.82980400  0.75000000  0.90733800  1
  Os  Os11  1  0.17019600  0.25000000  0.09266200  1
  N  N12  1  0.01788500  0.25000000  0.99669600  1
  N  N13  1  0.98211500  0.75000000  0.00330400  1
  N  N14  1  0.48211500  0.25000000  0.49669600  1
  N  N15  1  0.51788500  0.75000000  0.50330400  1
  Cl  Cl16  1  0.46529300  0.25000000  0.00028200  1
  Cl  Cl17  1  0.59653600  0.75000000  0.75197800  1
  Cl  Cl18  1  0.90346400  0.75000000  0.25197800  1
  Cl  Cl19  1  0.69133000  0.51118900  0.39372100  1
  Cl  Cl20  1  0.07178800  0.75000000  0.78020000  1
  Cl  Cl21  1  0.53470700  0.75000000  0.99971800  1
  Cl  Cl22  1  0.42821200  0.75000000  0.28020000  1
  Cl  Cl23  1  0.03470700  0.25000000  0.50028200  1
  Cl  Cl24  1  0.40346400  0.25000000  0.24802200  1
  Cl  Cl25  1  0.80867000  0.98881100  0.89372100  1
  Cl  Cl26  1  0.96529300  0.75000000  0.49971800  1
  Cl  Cl27  1  0.09653600  0.25000000  0.74802200  1
  Cl  Cl28  1  0.80867000  0.51118900  0.89372100  1
  Cl  Cl29  1  0.19133000  0.48881100  0.10627900  1
  Cl  Cl30  1  0.92821200  0.25000000  0.21980000  1
  Cl  Cl31  1  0.30867000  0.48881100  0.60627900  1
  Cl  Cl32  1  0.57178800  0.25000000  0.71980000  1
  Cl  Cl33  1  0.19133000  0.01118900  0.10627900  1
  Cl  Cl34  1  0.69133000  0.98881100  0.39372100  1
  Cl  Cl35  1  0.30867000  0.01118900  0.60627900  1
