# generated using pymatgen
data_Ti2Cu(PO5)2
_symmetry_space_group_name_H-M   'P 1'
_cell_length_a   7.14600800
_cell_length_b   7.92127200
_cell_length_c   7.38910720
_cell_angle_alpha   90.00000000
_cell_angle_beta   119.42151025
_cell_angle_gamma   90.00000000
_symmetry_Int_Tables_number   1
_chemical_formula_structural   Ti2Cu(PO5)2
_chemical_formula_sum   'Ti4 Cu2 P4 O20'
_cell_volume   364.32018347
_cell_formula_units_Z   2
loop_
 _symmetry_equiv_pos_site_id
 _symmetry_equiv_pos_as_xyz
  1  'x, y, z'
loop_
 _atom_site_type_symbol
 _atom_site_label
 _atom_site_symmetry_multiplicity
 _atom_site_fract_x
 _atom_site_fract_y
 _atom_site_fract_z
 _atom_site_occupancy
  Ti  Ti0  1  0.26219500  0.71838700  0.96499200  1
  Ti  Ti1  1  0.73780500  0.21838700  0.53500800  1
  Ti  Ti2  1  0.73780500  0.28161300  0.03500800  1
  Ti  Ti3  1  0.26219500  0.78161300  0.46499200  1
  Cu  Cu4  1  0.00000000  0.50000000  0.50000000  1
  Cu  Cu5  1  0.00000000  0.00000000  0.00000000  1
  P  P6  1  0.24985600  0.40254300  0.25333100  1
  P  P7  1  0.75014400  0.90254300  0.24666900  1
  P  P8  1  0.75014400  0.59745700  0.74666900  1
  P  P9  1  0.24985600  0.09745700  0.75333100  1
  O  O10  1  0.05606300  0.21159100  0.62442500  1
  O  O11  1  0.94393700  0.71159100  0.87557500  1
  O  O12  1  0.94393700  0.78840900  0.37557500  1
  O  O13  1  0.05606300  0.28840900  0.12442500  1
  O  O14  1  0.30964300  0.51083000  0.11562000  1
  O  O15  1  0.69035700  0.01083000  0.38438000  1
  O  O16  1  0.69035700  0.48917000  0.88438000  1
  O  O17  1  0.30964300  0.98917000  0.61562000  1
  O  O18  1  0.44149600  0.29168800  0.40027700  1
  O  O19  1  0.55850400  0.79168800  0.09972300  1
  O  O20  1  0.77589500  0.14674600  0.77606600  1
  O  O21  1  0.22410500  0.64674600  0.72393400  1
  O  O22  1  0.22410500  0.85325400  0.22393400  1
  O  O23  1  0.77589500  0.35325400  0.27606600  1
  O  O24  1  0.81229500  0.02827600  0.12055000  1
  O  O25  1  0.18770500  0.52827600  0.37945000  1
  O  O26  1  0.18770500  0.97172400  0.87945000  1
  O  O27  1  0.81229500  0.47172400  0.62055000  1
  O  O28  1  0.44149600  0.20831200  0.90027700  1
  O  O29  1  0.55850400  0.70831200  0.59972300  1
