# generated using pymatgen
data_Yb(HoS2)2
_symmetry_space_group_name_H-M   'P 1'
_cell_length_a   8.31962800
_cell_length_b   8.31962800
_cell_length_c   8.29679000
_cell_angle_alpha   90.00000000
_cell_angle_beta   90.00000000
_cell_angle_gamma   90.00000000
_symmetry_Int_Tables_number   1
_chemical_formula_structural   Yb(HoS2)2
_chemical_formula_sum   'Yb4 Ho8 S16'
_cell_volume   574.27235945
_cell_formula_units_Z   4
loop_
 _symmetry_equiv_pos_site_id
 _symmetry_equiv_pos_as_xyz
  1  'x, y, z'
loop_
 _atom_site_type_symbol
 _atom_site_label
 _atom_site_symmetry_multiplicity
 _atom_site_fract_x
 _atom_site_fract_y
 _atom_site_fract_z
 _atom_site_occupancy
  Yb  Yb0  1  0.50000000  0.50000000  0.50000000  1
  Yb  Yb1  1  0.50000000  0.00000000  0.25000000  1
  Yb  Yb2  1  0.00000000  0.00000000  0.00000000  1
  Yb  Yb3  1  0.00000000  0.50000000  0.75000000  1
  Ho  Ho4  1  0.37279700  0.25000000  0.87500000  1
  Ho  Ho5  1  0.12720300  0.25000000  0.37500000  1
  Ho  Ho6  1  0.75000000  0.37279700  0.12500000  1
  Ho  Ho7  1  0.75000000  0.12720300  0.62500000  1
  Ho  Ho8  1  0.87279700  0.75000000  0.37500000  1
  Ho  Ho9  1  0.62720300  0.75000000  0.87500000  1
  Ho  Ho10  1  0.25000000  0.87279700  0.62500000  1
  Ho  Ho11  1  0.25000000  0.62720300  0.12500000  1
  S  S12  1  0.57358400  0.67621900  0.19285400  1
  S  S13  1  0.67621900  0.07358400  0.94285400  1
  S  S14  1  0.82378100  0.07358400  0.30714600  1
  S  S15  1  0.67621900  0.42641600  0.80714600  1
  S  S16  1  0.92641600  0.82378100  0.69285400  1
  S  S17  1  0.07358400  0.32378100  0.05714600  1
  S  S18  1  0.42641600  0.17621900  0.55714600  1
  S  S19  1  0.82378100  0.42641600  0.44285400  1
  S  S20  1  0.07358400  0.17621900  0.69285400  1
  S  S21  1  0.17621900  0.57358400  0.44285400  1
  S  S22  1  0.32378100  0.57358400  0.80714600  1
  S  S23  1  0.17621900  0.92641600  0.30714600  1
  S  S24  1  0.42641600  0.32378100  0.19285400  1
  S  S25  1  0.57358400  0.82378100  0.55714600  1
  S  S26  1  0.92641600  0.67621900  0.05714600  1
  S  S27  1  0.32378100  0.92641600  0.94285400  1
