# generated using pymatgen
data_TiSi4(NCl7)2
_symmetry_space_group_name_H-M   'P 1'
_cell_length_a   12.56449400
_cell_length_b   12.87873700
_cell_length_c   14.97232300
_cell_angle_alpha   90.00000000
_cell_angle_beta   90.00000000
_cell_angle_gamma   90.00000000
_symmetry_Int_Tables_number   1
_chemical_formula_structural   TiSi4(NCl7)2
_chemical_formula_sum   'Ti4 Si16 N8 Cl56'
_cell_volume   2422.74365786
_cell_formula_units_Z   4
loop_
 _symmetry_equiv_pos_site_id
 _symmetry_equiv_pos_as_xyz
  1  'x, y, z'
loop_
 _atom_site_type_symbol
 _atom_site_label
 _atom_site_symmetry_multiplicity
 _atom_site_fract_x
 _atom_site_fract_y
 _atom_site_fract_z
 _atom_site_occupancy
  Ti  Ti0  1  0.26556700  0.79046200  0.20803300  1
  Ti  Ti1  1  0.73443300  0.29046200  0.29196700  1
  Ti  Ti2  1  0.76556700  0.70953800  0.79196700  1
  Ti  Ti3  1  0.23443300  0.20953800  0.70803300  1
  Si  Si4  1  0.42447100  0.93216000  0.33542500  1
  Si  Si5  1  0.92447100  0.56784000  0.66457500  1
  Si  Si6  1  0.48045500  0.22171000  0.72214900  1
  Si  Si7  1  0.88526900  0.13819600  0.41942700  1
  Si  Si8  1  0.57552900  0.43216000  0.16457500  1
  Si  Si9  1  0.61473100  0.86180400  0.91942700  1
  Si  Si10  1  0.07552900  0.06784000  0.83542500  1
  Si  Si11  1  0.98045500  0.27829000  0.27785100  1
  Si  Si12  1  0.83340700  0.77102600  0.59726700  1
  Si  Si13  1  0.11473100  0.63819600  0.08057300  1
  Si  Si14  1  0.33340700  0.72897400  0.40273300  1
  Si  Si15  1  0.66659300  0.22897400  0.09726700  1
  Si  Si16  1  0.51954500  0.72171000  0.77785100  1
  Si  Si17  1  0.16659300  0.27102600  0.90273300  1
  Si  Si18  1  0.38526900  0.36180400  0.58057300  1
  Si  Si19  1  0.01954500  0.77829000  0.22214900  1
  N  N20  1  0.37314000  0.27394000  0.66748800  1
  N  N21  1  0.12686000  0.72606000  0.16748800  1
  N  N22  1  0.62686000  0.77394000  0.83251200  1
  N  N23  1  0.65643100  0.32427000  0.17713800  1
  N  N24  1  0.34356900  0.82427000  0.32286200  1
  N  N25  1  0.84356900  0.67573000  0.67713800  1
  N  N26  1  0.87314000  0.22606000  0.33251200  1
  N  N27  1  0.15643100  0.17573000  0.82286200  1
  Cl  Cl28  1  0.90905600  0.37266700  0.18283200  1
  Cl  Cl29  1  0.23972900  0.22427600  0.01772300  1
  Cl  Cl30  1  0.52629500  0.15713100  0.06752400  1
  Cl  Cl31  1  0.42617100  0.82649700  0.71225200  1
  Cl  Cl32  1  0.49863800  0.93107800  0.45755100  1
  Cl  Cl33  1  0.57343700  0.12778100  0.64483700  1
  Cl  Cl34  1  0.95994400  0.06584900  0.73918100  1
  Cl  Cl35  1  0.73236900  0.43681600  0.36749600  1
  Cl  Cl36  1  0.26763100  0.93681600  0.13250400  1
  Cl  Cl37  1  0.45994400  0.43415100  0.26081900  1
  Cl  Cl38  1  0.59094400  0.62733300  0.68283200  1
  Cl  Cl39  1  0.50136200  0.43107800  0.04244900  1
  Cl  Cl40  1  0.18386700  0.49900100  0.11216300  1
  Cl  Cl41  1  0.88307300  0.80435300  0.86275700  1
  Cl  Cl42  1  0.68138300  0.80687500  0.03462900  1
  Cl  Cl43  1  0.26027100  0.77572400  0.51772300  1
  Cl  Cl44  1  0.54005600  0.93415100  0.23918100  1
  Cl  Cl45  1  0.33923100  0.06758400  0.32947800  1
  Cl  Cl46  1  0.40905600  0.12733300  0.81716800  1
  Cl  Cl47  1  0.09094400  0.87266700  0.31716800  1
  Cl  Cl48  1  0.57382900  0.32649700  0.78774800  1
  Cl  Cl49  1  0.92656300  0.87221900  0.14483700  1
  Cl  Cl50  1  0.83923100  0.43241600  0.67052200  1
  Cl  Cl51  1  0.45736800  0.88958300  0.94688600  1
  Cl  Cl52  1  0.04263200  0.11041700  0.44688600  1
  Cl  Cl53  1  0.81861700  0.19312500  0.53462900  1
  Cl  Cl54  1  0.61692700  0.19564700  0.36275700  1
  Cl  Cl55  1  0.23632200  0.61867900  0.34323800  1
  Cl  Cl56  1  0.99863800  0.56892200  0.54244900  1
  Cl  Cl57  1  0.23236900  0.06318400  0.63250400  1
  Cl  Cl58  1  0.04005600  0.56584900  0.76081900  1
  Cl  Cl59  1  0.18138300  0.69312500  0.96537100  1
  Cl  Cl60  1  0.76027100  0.72427600  0.48227700  1
  Cl  Cl61  1  0.47370500  0.65713100  0.43247600  1
  Cl  Cl62  1  0.76367800  0.11867900  0.15676200  1
  Cl  Cl63  1  0.54263200  0.38958300  0.55311400  1
  Cl  Cl64  1  0.02629500  0.34286900  0.93247600  1
  Cl  Cl65  1  0.73632200  0.88132100  0.65676200  1
  Cl  Cl66  1  0.38307300  0.69564700  0.13724300  1
  Cl  Cl67  1  0.68386700  0.00099900  0.88783700  1
  Cl  Cl68  1  0.11692700  0.30435300  0.63724300  1
  Cl  Cl69  1  0.31861700  0.30687500  0.46537100  1
  Cl  Cl70  1  0.42656300  0.62778100  0.85516300  1
  Cl  Cl71  1  0.95736800  0.61041700  0.05311400  1
  Cl  Cl72  1  0.97370500  0.84286900  0.56752400  1
  Cl  Cl73  1  0.76763100  0.56318400  0.86749600  1
  Cl  Cl74  1  0.07382900  0.17350300  0.21225200  1
  Cl  Cl75  1  0.26367800  0.38132100  0.84323800  1
  Cl  Cl76  1  0.31613300  0.50099900  0.61216300  1
  Cl  Cl77  1  0.92617100  0.67350300  0.28774800  1
  Cl  Cl78  1  0.66076900  0.56758400  0.17052200  1
  Cl  Cl79  1  0.16076900  0.93241600  0.82947800  1
  Cl  Cl80  1  0.81613300  0.99900100  0.38783700  1
  Cl  Cl81  1  0.73972900  0.27572400  0.98227700  1
  Cl  Cl82  1  0.00136200  0.06892200  0.95755100  1
  Cl  Cl83  1  0.07343700  0.37221900  0.35516300  1
