# generated using pymatgen
data_H3ClO5
_symmetry_space_group_name_H-M   'P 1'
_cell_length_a   5.66957700
_cell_length_b   7.53070000
_cell_length_c   9.67274600
_cell_angle_alpha   90.00000000
_cell_angle_beta   90.00000000
_cell_angle_gamma   90.00000000
_symmetry_Int_Tables_number   1
_chemical_formula_structural   H3ClO5
_chemical_formula_sum   'H12 Cl4 O20'
_cell_volume   412.98643648
_cell_formula_units_Z   4
loop_
 _symmetry_equiv_pos_site_id
 _symmetry_equiv_pos_as_xyz
  1  'x, y, z'
loop_
 _atom_site_type_symbol
 _atom_site_label
 _atom_site_symmetry_multiplicity
 _atom_site_fract_x
 _atom_site_fract_y
 _atom_site_fract_z
 _atom_site_occupancy
  H  H0  1  0.47523600  0.62233600  0.27346700  1
  H  H1  1  0.47523600  0.87766400  0.77346700  1
  H  H2  1  0.97523600  0.37766400  0.72653300  1
  H  H3  1  0.97523600  0.12233600  0.22653300  1
  H  H4  1  0.21236400  0.78958200  0.74027800  1
  H  H5  1  0.22876700  0.96440600  0.84290400  1
  H  H6  1  0.21236400  0.71041800  0.24027800  1
  H  H7  1  0.22876700  0.53559400  0.34290400  1
  H  H8  1  0.71236400  0.21041800  0.25972200  1
  H  H9  1  0.72876700  0.03559400  0.15709600  1
  H  H10  1  0.71236400  0.28958200  0.75972200  1
  H  H11  1  0.72876700  0.46440600  0.65709600  1
  Cl  Cl12  1  0.77409800  0.70665700  0.09407800  1
  Cl  Cl13  1  0.77409800  0.79334300  0.59407800  1
  Cl  Cl14  1  0.27409800  0.29334300  0.90592200  1
  Cl  Cl15  1  0.27409800  0.20665700  0.40592200  1
  O  O16  1  0.71997400  0.58439900  0.21007700  1
  O  O17  1  0.71997400  0.91560100  0.71007700  1
  O  O18  1  0.21997400  0.41560100  0.78992300  1
  O  O19  1  0.21997400  0.08439900  0.28992300  1
  O  O20  1  0.74601100  0.61817400  0.96452400  1
  O  O21  1  0.74601100  0.88182600  0.46452400  1
  O  O22  1  0.24601100  0.38182600  0.03547600  1
  O  O23  1  0.24601100  0.11817400  0.53547600  1
  O  O24  1  0.60909000  0.85943600  0.10323000  1
  O  O25  1  0.01505300  0.72625400  0.61156100  1
  O  O26  1  0.10909000  0.14056400  0.89677000  1
  O  O27  1  0.51505300  0.27374600  0.38843900  1
  O  O28  1  0.51505300  0.22625400  0.88843900  1
  O  O29  1  0.10909000  0.35943600  0.39677000  1
  O  O30  1  0.01505300  0.77374600  0.11156100  1
  O  O31  1  0.60909000  0.64056400  0.60323000  1
  O  O32  1  0.31033600  0.84949700  0.81266500  1
  O  O33  1  0.31033600  0.65050300  0.31266500  1
  O  O34  1  0.81033600  0.15050300  0.18733500  1
  O  O35  1  0.81033600  0.34949700  0.68733500  1
