# generated using pymatgen
data_AlBiSeCl4
_symmetry_space_group_name_H-M   'P 1'
_cell_length_a   12.25449600
_cell_length_b   12.25449600
_cell_length_c   11.42066400
_cell_angle_alpha   90.00000000
_cell_angle_beta   90.00000000
_cell_angle_gamma   90.00000000
_symmetry_Int_Tables_number   1
_chemical_formula_structural   AlBiSeCl4
_chemical_formula_sum   'Al8 Bi8 Se8 Cl32'
_cell_volume   1715.07163134
_cell_formula_units_Z   8
loop_
 _symmetry_equiv_pos_site_id
 _symmetry_equiv_pos_as_xyz
  1  'x, y, z'
loop_
 _atom_site_type_symbol
 _atom_site_label
 _atom_site_symmetry_multiplicity
 _atom_site_fract_x
 _atom_site_fract_y
 _atom_site_fract_z
 _atom_site_occupancy
  Al  Al0  1  0.42771000  0.30241700  0.28562000  1
  Al  Al1  1  0.19758300  0.92771000  0.21438000  1
  Al  Al2  1  0.07229000  0.19758300  0.78562000  1
  Al  Al3  1  0.30241700  0.57229000  0.71438000  1
  Al  Al4  1  0.92771000  0.80241700  0.78562000  1
  Al  Al5  1  0.69758300  0.42771000  0.71438000  1
  Al  Al6  1  0.57229000  0.69758300  0.28562000  1
  Al  Al7  1  0.80241700  0.07229000  0.21438000  1
  Bi  Bi8  1  0.15621300  0.55932400  0.37069600  1
  Bi  Bi9  1  0.84378700  0.44067600  0.37069600  1
  Bi  Bi10  1  0.94067600  0.65621300  0.12930400  1
  Bi  Bi11  1  0.05932400  0.34378700  0.12930400  1
  Bi  Bi12  1  0.65621300  0.05932400  0.87069600  1
  Bi  Bi13  1  0.34378700  0.94067600  0.87069600  1
  Bi  Bi14  1  0.44067600  0.15621300  0.62930400  1
  Bi  Bi15  1  0.55932400  0.84378700  0.62930400  1
  Se  Se16  1  0.44471450  0.14634150  0.87952850  1
  Se  Se17  1  0.14634150  0.55528550  0.12047150  1
  Se  Se18  1  0.05528550  0.35365850  0.37952850  1
  Se  Se19  1  0.35365850  0.94471450  0.62047150  1
  Se  Se20  1  0.94471450  0.64634150  0.37952850  1
  Se  Se21  1  0.64634150  0.05528550  0.62047150  1
  Se  Se22  1  0.55528550  0.85365850  0.87952850  1
  Se  Se23  1  0.85365850  0.44471450  0.12047150  1
  Cl  Cl24  1  0.64057300  0.05094700  0.13677100  1
  Cl  Cl25  1  0.35942700  0.94905300  0.13677100  1
  Cl  Cl26  1  0.15118200  0.10736500  0.92558200  1
  Cl  Cl27  1  0.31871850  0.29938050  0.13589850  1
  Cl  Cl28  1  0.91855350  0.13489850  0.72957450  1
  Cl  Cl29  1  0.34881800  0.39263500  0.42558200  1
  Cl  Cl30  1  0.39263500  0.65118200  0.57441800  1
  Cl  Cl31  1  0.44905300  0.14057300  0.36322900  1
  Cl  Cl32  1  0.13489850  0.08144650  0.27042550  1
  Cl  Cl33  1  0.20061950  0.81871850  0.36410150  1
  Cl  Cl34  1  0.58144650  0.36510150  0.22957450  1
  Cl  Cl35  1  0.10736500  0.84881800  0.07441800  1
  Cl  Cl36  1  0.18128150  0.20061950  0.63589850  1
  Cl  Cl37  1  0.55094700  0.85942700  0.36322900  1
  Cl  Cl38  1  0.36510150  0.41855350  0.77042550  1
  Cl  Cl39  1  0.29938050  0.68128150  0.86410150  1
  Cl  Cl40  1  0.14057300  0.55094700  0.63677100  1
  Cl  Cl41  1  0.85942700  0.44905300  0.63677100  1
  Cl  Cl42  1  0.65118200  0.60736500  0.42558200  1
  Cl  Cl43  1  0.81871850  0.79938050  0.63589850  1
  Cl  Cl44  1  0.41855350  0.63489850  0.22957450  1
  Cl  Cl45  1  0.84881800  0.89263500  0.92558200  1
  Cl  Cl46  1  0.89263500  0.15118200  0.07441800  1
  Cl  Cl47  1  0.94905300  0.64057300  0.86322900  1
  Cl  Cl48  1  0.63489850  0.58144650  0.77042550  1
  Cl  Cl49  1  0.70061950  0.31871850  0.86410150  1
  Cl  Cl50  1  0.08144650  0.86510150  0.72957450  1
  Cl  Cl51  1  0.60736500  0.34881800  0.57441800  1
  Cl  Cl52  1  0.68128150  0.70061950  0.13589850  1
  Cl  Cl53  1  0.05094700  0.35942700  0.86322900  1
  Cl  Cl54  1  0.86510150  0.91855350  0.27042550  1
  Cl  Cl55  1  0.79938050  0.18128150  0.36410150  1
