# generated using pymatgen
data_CsTi(PS4)2
_symmetry_space_group_name_H-M   'P 1'
_cell_length_a   22.40564200
_cell_length_b   7.13195600
_cell_length_c   17.58933670
_cell_angle_alpha   90.00000000
_cell_angle_beta   98.60679157
_cell_angle_gamma   90.00000000
_symmetry_Int_Tables_number   1
_chemical_formula_structural   CsTi(PS4)2
_chemical_formula_sum   'Cs8 Ti8 P16 S64'
_cell_volume   2779.05422350
_cell_formula_units_Z   8
loop_
 _symmetry_equiv_pos_site_id
 _symmetry_equiv_pos_as_xyz
  1  'x, y, z'
loop_
 _atom_site_type_symbol
 _atom_site_label
 _atom_site_symmetry_multiplicity
 _atom_site_fract_x
 _atom_site_fract_y
 _atom_site_fract_z
 _atom_site_occupancy
  Cs  Cs0  1  0.58787550  0.71030250  0.64914200  1
  Cs  Cs1  1  0.74708200  0.76526100  0.38190700  1
  Cs  Cs2  1  0.74708200  0.23473900  0.88190700  1
  Cs  Cs3  1  0.58787550  0.28969750  0.14914200  1
  Cs  Cs4  1  0.08787550  0.21030250  0.64914200  1
  Cs  Cs5  1  0.24708200  0.26526100  0.38190700  1
  Cs  Cs6  1  0.24708200  0.73473900  0.88190700  1
  Cs  Cs7  1  0.08787550  0.78969750  0.14914200  1
  Ti  Ti8  1  0.50328800  0.84325000  0.89808700  1
  Ti  Ti9  1  0.85233550  0.12408150  0.15418400  1
  Ti  Ti10  1  0.50328800  0.15675000  0.39808700  1
  Ti  Ti11  1  0.85233550  0.87591850  0.65418400  1
  Ti  Ti12  1  0.00328800  0.34325000  0.89808700  1
  Ti  Ti13  1  0.35233550  0.62408150  0.15418400  1
  Ti  Ti14  1  0.00328800  0.65675000  0.39808700  1
  Ti  Ti15  1  0.35233550  0.37591850  0.65418400  1
  P  P16  1  0.93099150  0.64693650  0.78981300  1
  P  P17  1  0.92350450  0.82387050  0.51558400  1
  P  P18  1  0.92350450  0.17612950  0.01558400  1
  P  P19  1  0.63882900  0.27040500  0.39852200  1
  P  P20  1  0.63882900  0.72959500  0.89852200  1
  P  P21  1  0.73403150  0.13540150  0.64108100  1
  P  P22  1  0.93099150  0.35306350  0.28981300  1
  P  P23  1  0.73403150  0.86459850  0.14108100  1
  P  P24  1  0.43099150  0.14693650  0.78981300  1
  P  P25  1  0.42350450  0.32387050  0.51558400  1
  P  P26  1  0.42350450  0.67612950  0.01558400  1
  P  P27  1  0.13882900  0.77040500  0.39852200  1
  P  P28  1  0.13882900  0.22959500  0.89852200  1
  P  P29  1  0.23403150  0.63540150  0.64108100  1
  P  P30  1  0.43099150  0.85306350  0.28981300  1
  P  P31  1  0.23403150  0.36459850  0.14108100  1
  S  S32  1  0.74288000  0.13516100  0.10173100  1
  S  S33  1  0.66102800  0.19466100  0.68563100  1
  S  S34  1  0.66562150  0.43549650  0.50263700  1
  S  S35  1  0.74288000  0.86483900  0.60173100  1
  S  S36  1  0.96836450  0.60255250  0.26129700  1
  S  S37  1  0.51071600  0.22223700  0.53598500  1
  S  S38  1  0.70447000  0.74301000  0.83644800  1
  S  S39  1  0.56272300  0.42052800  0.35561600  1
  S  S40  1  0.66562150  0.56450350  0.00263700  1
  S  S41  1  0.81859700  0.17103500  0.70488300  1
  S  S42  1  0.83869900  0.34120900  0.25695400  1
  S  S43  1  0.95921050  0.65458450  0.90623800  1
  S  S44  1  0.96836450  0.39744750  0.76129700  1
  S  S45  1  0.90655100  0.06950400  0.56978900  1
  S  S46  1  0.83869900  0.65879100  0.75695400  1
  S  S47  1  0.60404800  0.01776000  0.42875900  1
  S  S48  1  0.56272300  0.57947200  0.85561600  1
  S  S49  1  0.51071600  0.77776300  0.03598500  1
  S  S50  1  0.95480950  0.13118350  0.22617800  1
  S  S51  1  0.86541200  0.36115400  0.05617200  1
  S  S52  1  0.74762550  0.33554050  0.55070400  1
  S  S53  1  0.66102800  0.80533900  0.18563100  1
  S  S54  1  0.74762550  0.66445950  0.05070400  1
  S  S55  1  0.86541200  0.63884600  0.55617200  1
  S  S56  1  0.91155100  0.84643400  0.39807700  1
  S  S57  1  0.70447000  0.25699000  0.33644800  1
  S  S58  1  0.95921050  0.34541550  0.40623800  1
  S  S59  1  0.81859700  0.82896500  0.20488300  1
  S  S60  1  0.90655100  0.93049600  0.06978900  1
  S  S61  1  0.95480950  0.86881650  0.72617800  1
  S  S62  1  0.60404800  0.98224000  0.92875900  1
  S  S63  1  0.91155100  0.15356600  0.89807700  1
  S  S64  1  0.24288000  0.63516100  0.10173100  1
  S  S65  1  0.16102800  0.69466100  0.68563100  1
  S  S66  1  0.16562150  0.93549650  0.50263700  1
  S  S67  1  0.24288000  0.36483900  0.60173100  1
  S  S68  1  0.46836450  0.10255250  0.26129700  1
  S  S69  1  0.01071600  0.72223700  0.53598500  1
  S  S70  1  0.20447000  0.24301000  0.83644800  1
  S  S71  1  0.06272300  0.92052800  0.35561600  1
  S  S72  1  0.16562150  0.06450350  0.00263700  1
  S  S73  1  0.31859700  0.67103500  0.70488300  1
  S  S74  1  0.33869900  0.84120900  0.25695400  1
  S  S75  1  0.45921050  0.15458450  0.90623800  1
  S  S76  1  0.46836450  0.89744750  0.76129700  1
  S  S77  1  0.40655100  0.56950400  0.56978900  1
  S  S78  1  0.33869900  0.15879100  0.75695400  1
  S  S79  1  0.10404800  0.51776000  0.42875900  1
  S  S80  1  0.06272300  0.07947200  0.85561600  1
  S  S81  1  0.01071600  0.27776300  0.03598500  1
  S  S82  1  0.45480950  0.63118350  0.22617800  1
  S  S83  1  0.36541200  0.86115400  0.05617200  1
  S  S84  1  0.24762550  0.83554050  0.55070400  1
  S  S85  1  0.16102800  0.30533900  0.18563100  1
  S  S86  1  0.24762550  0.16445950  0.05070400  1
  S  S87  1  0.36541200  0.13884600  0.55617200  1
  S  S88  1  0.41155100  0.34643400  0.39807700  1
  S  S89  1  0.20447000  0.75699000  0.33644800  1
  S  S90  1  0.45921050  0.84541550  0.40623800  1
  S  S91  1  0.31859700  0.32896500  0.20488300  1
  S  S92  1  0.40655100  0.43049600  0.06978900  1
  S  S93  1  0.45480950  0.36881650  0.72617800  1
  S  S94  1  0.10404800  0.48224000  0.92875900  1
  S  S95  1  0.41155100  0.65356600  0.89807700  1
