# generated using pymatgen
data_Li5TiAs3
_symmetry_space_group_name_H-M   'P 1'
_cell_length_a   13.52433800
_cell_length_b   6.08352400
_cell_length_c   8.51528984
_cell_angle_alpha   90.00000000
_cell_angle_beta   108.32037085
_cell_angle_gamma   90.00000000
_symmetry_Int_Tables_number   1
_chemical_formula_structural   Li5TiAs3
_chemical_formula_sum   'Li20 Ti4 As12'
_cell_volume   665.09006813
_cell_formula_units_Z   4
loop_
 _symmetry_equiv_pos_site_id
 _symmetry_equiv_pos_as_xyz
  1  'x, y, z'
loop_
 _atom_site_type_symbol
 _atom_site_label
 _atom_site_symmetry_multiplicity
 _atom_site_fract_x
 _atom_site_fract_y
 _atom_site_fract_z
 _atom_site_occupancy
  Li  Li0  1  0.67243200  0.25660700  0.07666700  1
  Li  Li1  1  0.82756800  0.75660700  0.42333300  1
  Li  Li2  1  0.67117050  0.24449350  0.59636500  1
  Li  Li3  1  0.67243200  0.74339300  0.57666700  1
  Li  Li4  1  0.82882950  0.74449350  0.90363500  1
  Li  Li5  1  0.00000000  0.26939900  0.25000000  1
  Li  Li6  1  0.67117050  0.75550650  0.09636500  1
  Li  Li7  1  0.82882950  0.25550650  0.40363500  1
  Li  Li8  1  0.00000000  0.73060100  0.75000000  1
  Li  Li9  1  0.82756800  0.24339300  0.92333300  1
  Li  Li10  1  0.17243200  0.75660700  0.07666700  1
  Li  Li11  1  0.32756800  0.25660700  0.42333300  1
  Li  Li12  1  0.17117050  0.74449350  0.59636500  1
  Li  Li13  1  0.17243200  0.24339300  0.57666700  1
  Li  Li14  1  0.32882950  0.24449350  0.90363500  1
  Li  Li15  1  0.50000000  0.76939900  0.25000000  1
  Li  Li16  1  0.17117050  0.25550650  0.09636500  1
  Li  Li17  1  0.32882950  0.75550650  0.40363500  1
  Li  Li18  1  0.50000000  0.23060100  0.75000000  1
  Li  Li19  1  0.32756800  0.74339300  0.92333300  1
  Ti  Ti20  1  0.00000000  0.23472300  0.75000000  1
  Ti  Ti21  1  0.00000000  0.76527700  0.25000000  1
  Ti  Ti22  1  0.50000000  0.73472300  0.75000000  1
  Ti  Ti23  1  0.50000000  0.26527700  0.25000000  1
  As  As24  1  0.00000000  0.00000000  0.50000000  1
  As  As25  1  0.65527750  0.96804150  0.82689000  1
  As  As26  1  0.00000000  0.00000000  0.00000000  1
  As  As27  1  0.84472250  0.53195850  0.17311000  1
  As  As28  1  0.65527750  0.03195850  0.32689000  1
  As  As29  1  0.84472250  0.46804150  0.67311000  1
  As  As30  1  0.50000000  0.50000000  0.50000000  1
  As  As31  1  0.15527750  0.46804150  0.82689000  1
  As  As32  1  0.50000000  0.50000000  0.00000000  1
  As  As33  1  0.34472250  0.03195850  0.17311000  1
  As  As34  1  0.15527750  0.53195850  0.32689000  1
  As  As35  1  0.34472250  0.96804150  0.67311000  1
