# generated using pymatgen
data_Bi2PbSe4
_symmetry_space_group_name_H-M   'P 1'
_cell_length_a   4.24509633
_cell_length_b   4.24509633
_cell_length_c   40.18536784
_cell_angle_alpha   90.00000000
_cell_angle_beta   90.00000000
_cell_angle_gamma   120.00000000
_symmetry_Int_Tables_number   1
_chemical_formula_structural   Bi2PbSe4
_chemical_formula_sum   'Bi6 Pb3 Se12'
_cell_volume   627.15325266
_cell_formula_units_Z   3
loop_
 _symmetry_equiv_pos_site_id
 _symmetry_equiv_pos_as_xyz
  1  'x, y, z'
loop_
 _atom_site_type_symbol
 _atom_site_label
 _atom_site_symmetry_multiplicity
 _atom_site_fract_x
 _atom_site_fract_y
 _atom_site_fract_z
 _atom_site_occupancy
  Bi  Bi0  1  0.33333333  0.66666667  0.23892167  1
  Bi  Bi1  1  0.33333333  0.66666667  0.09441167  1
  Bi  Bi2  1  0.00000000  0.00000000  0.57225500  1
  Bi  Bi3  1  0.00000000  0.00000000  0.42774500  1
  Bi  Bi4  1  0.66666667  0.33333333  0.90558833  1
  Bi  Bi5  1  0.66666667  0.33333333  0.76107833  1
  Pb  Pb6  1  0.00000000  0.00000000  0.00000000  1
  Pb  Pb7  1  0.66666667  0.33333333  0.33333333  1
  Pb  Pb8  1  0.33333333  0.66666667  0.66666667  1
  Se  Se9  1  0.66666667  0.33333333  0.20094833  1
  Se  Se10  1  0.66666667  0.33333333  0.04641633  1
  Se  Se11  1  0.00000000  0.00000000  0.28691700  1
  Se  Se12  1  0.00000000  0.00000000  0.13238500  1
  Se  Se13  1  0.33333333  0.66666667  0.53428167  1
  Se  Se14  1  0.33333333  0.66666667  0.37974967  1
  Se  Se15  1  0.66666667  0.33333333  0.62025033  1
  Se  Se16  1  0.66666667  0.33333333  0.46571833  1
  Se  Se17  1  0.00000000  0.00000000  0.86761500  1
  Se  Se18  1  0.00000000  0.00000000  0.71308300  1
  Se  Se19  1  0.33333333  0.66666667  0.95358367  1
  Se  Se20  1  0.33333333  0.66666667  0.79905167  1
