# generated using pymatgen
data_Ca4Bi6O13
_symmetry_space_group_name_H-M   'P 1'
_cell_length_a   3.71279200
_cell_length_b   4.61111617
_cell_length_c   23.69861222
_cell_angle_alpha   91.54777953
_cell_angle_beta   90.84704020
_cell_angle_gamma   90.16948512
_symmetry_Int_Tables_number   1
_chemical_formula_structural   Ca4Bi6O13
_chemical_formula_sum   'Ca4 Bi6 O13'
_cell_volume   405.52833619
_cell_formula_units_Z   1
loop_
 _symmetry_equiv_pos_site_id
 _symmetry_equiv_pos_as_xyz
  1  'x, y, z'
loop_
 _atom_site_type_symbol
 _atom_site_label
 _atom_site_symmetry_multiplicity
 _atom_site_fract_x
 _atom_site_fract_y
 _atom_site_fract_z
 _atom_site_occupancy
  Ca  Ca0  1  0.75085000  0.09677900  0.94553000  1
  Ca  Ca1  1  0.68981000  0.08420700  0.79769900  1
  Ca  Ca2  1  0.22384700  0.59181100  0.87367400  1
  Ca  Ca3  1  0.16553200  0.57471700  0.72168200  1
  Bi  Bi4  1  0.55844200  0.06088500  0.63677400  1
  Bi  Bi5  1  0.37776700  0.09911600  0.40739600  1
  Bi  Bi6  1  0.15077000  0.00975600  0.17154500  1
  Bi  Bi7  1  0.13806100  0.50999000  0.53764900  1
  Bi  Bi8  1  0.87526200  0.45897600  0.30202400  1
  Bi  Bi9  1  0.55543700  0.40645400  0.06730000  1
  O  O10  1  0.12111200  0.07372000  0.57054500  1
  O  O11  1  0.84385700  0.06028800  0.35267200  1
  O  O12  1  0.62448900  0.99194900  0.11747600  1
  O  O13  1  0.17102100  0.07310400  0.70882500  1
  O  O14  1  0.66847500  0.58209900  0.77626000  1
  O  O15  1  0.19940500  0.09095800  0.85618200  1
  O  O16  1  0.22823100  0.16170700  0.00921800  1
  O  O17  1  0.72736000  0.60259700  0.92477600  1
  O  O18  1  0.59980000  0.38358700  0.48550200  1
  O  O19  1  0.32716200  0.24671800  0.25572400  1
  O  O20  1  0.46125300  0.56530400  0.62602000  1
  O  O21  1  0.32565800  0.51612100  0.36915000  1
  O  O22  1  0.14440100  0.43915600  0.13437700  1
