# generated using pymatgen
data_K3NbHOF7
_symmetry_space_group_name_H-M   'P 1'
_cell_length_a   8.88324200
_cell_length_b   14.36660000
_cell_length_c   7.00351154
_cell_angle_alpha   90.00000000
_cell_angle_beta   93.64605189
_cell_angle_gamma   90.00000000
_symmetry_Int_Tables_number   1
_chemical_formula_structural   K3NbHOF7
_chemical_formula_sum   'K12 Nb4 H4 O4 F28'
_cell_volume   891.99293078
_cell_formula_units_Z   4
loop_
 _symmetry_equiv_pos_site_id
 _symmetry_equiv_pos_as_xyz
  1  'x, y, z'
loop_
 _atom_site_type_symbol
 _atom_site_label
 _atom_site_symmetry_multiplicity
 _atom_site_fract_x
 _atom_site_fract_y
 _atom_site_fract_z
 _atom_site_occupancy
  K  K0  1  0.50000000  0.15943900  0.25000000  1
  K  K1  1  0.50000000  0.84056100  0.75000000  1
  K  K2  1  0.22937250  0.09646150  0.71443200  1
  K  K3  1  0.77062750  0.09646150  0.78556800  1
  K  K4  1  0.77062750  0.90353850  0.28556800  1
  K  K5  1  0.22937250  0.90353850  0.21443200  1
  K  K6  1  0.00000000  0.65943900  0.25000000  1
  K  K7  1  0.00000000  0.34056100  0.75000000  1
  K  K8  1  0.72937250  0.59646150  0.71443200  1
  K  K9  1  0.27062750  0.59646150  0.78556800  1
  K  K10  1  0.27062750  0.40353850  0.28556800  1
  K  K11  1  0.72937250  0.40353850  0.21443200  1
  Nb  Nb12  1  0.50000000  0.66574700  0.25000000  1
  Nb  Nb13  1  0.50000000  0.33425300  0.75000000  1
  Nb  Nb14  1  0.00000000  0.16574700  0.25000000  1
  Nb  Nb15  1  0.00000000  0.83425300  0.75000000  1
  H  H16  1  0.50000000  0.00000000  0.50000000  1
  H  H17  1  0.50000000  0.00000000  0.00000000  1
  H  H18  1  0.00000000  0.50000000  0.50000000  1
  H  H19  1  0.00000000  0.50000000  0.00000000  1
  O  O20  1  0.50000000  0.54122800  0.25000000  1
  O  O21  1  0.50000000  0.45877200  0.75000000  1
  O  O22  1  0.00000000  0.04122800  0.25000000  1
  O  O23  1  0.00000000  0.95877200  0.75000000  1
  F  F24  1  0.50000000  0.81306800  0.25000000  1
  F  F25  1  0.50000000  0.18693200  0.75000000  1
  F  F26  1  0.21652900  0.18207700  0.33546900  1
  F  F27  1  0.78347100  0.18207700  0.16453100  1
  F  F28  1  0.78347100  0.81792300  0.66453100  1
  F  F29  1  0.21652900  0.81792300  0.83546900  1
  F  F30  1  0.54767850  0.68167350  0.97570700  1
  F  F31  1  0.45232150  0.68167350  0.52429300  1
  F  F32  1  0.45232150  0.31832650  0.02429300  1
  F  F33  1  0.54767850  0.31832650  0.47570700  1
  F  F34  1  0.37990350  0.02593850  0.02121700  1
  F  F35  1  0.62009650  0.02593850  0.47878300  1
  F  F36  1  0.62009650  0.97406150  0.97878300  1
  F  F37  1  0.37990350  0.97406150  0.52121700  1
  F  F38  1  0.00000000  0.31306800  0.25000000  1
  F  F39  1  0.00000000  0.68693200  0.75000000  1
  F  F40  1  0.71652900  0.68207700  0.33546900  1
  F  F41  1  0.28347100  0.68207700  0.16453100  1
  F  F42  1  0.28347100  0.31792300  0.66453100  1
  F  F43  1  0.71652900  0.31792300  0.83546900  1
  F  F44  1  0.04767850  0.18167350  0.97570700  1
  F  F45  1  0.95232150  0.18167350  0.52429300  1
  F  F46  1  0.95232150  0.81832650  0.02429300  1
  F  F47  1  0.04767850  0.81832650  0.47570700  1
  F  F48  1  0.87990350  0.52593850  0.02121700  1
  F  F49  1  0.12009650  0.52593850  0.47878300  1
  F  F50  1  0.12009650  0.47406150  0.97878300  1
  F  F51  1  0.87990350  0.47406150  0.52121700  1
