# generated using pymatgen
data_BaMg(CO3)2
_symmetry_space_group_name_H-M   'P 1'
_cell_length_a   5.09104389
_cell_length_b   5.09104389
_cell_length_c   16.94434246
_cell_angle_alpha   90.00000000
_cell_angle_beta   90.00000000
_cell_angle_gamma   120.00000000
_symmetry_Int_Tables_number   1
_chemical_formula_structural   BaMg(CO3)2
_chemical_formula_sum   'Ba3 Mg3 C6 O18'
_cell_volume   380.33740149
_cell_formula_units_Z   3
loop_
 _symmetry_equiv_pos_site_id
 _symmetry_equiv_pos_as_xyz
  1  'x, y, z'
loop_
 _atom_site_type_symbol
 _atom_site_label
 _atom_site_symmetry_multiplicity
 _atom_site_fract_x
 _atom_site_fract_y
 _atom_site_fract_z
 _atom_site_occupancy
  Ba  Ba0  1  0.00000000  0.00000000  0.00000000  1
  Ba  Ba1  1  0.66666667  0.33333333  0.33333333  1
  Ba  Ba2  1  0.33333333  0.66666667  0.66666667  1
  Mg  Mg3  1  0.33333333  0.66666667  0.16666667  1
  Mg  Mg4  1  1.00000000  1.00000000  0.50000000  1
  Mg  Mg5  1  0.66666667  0.33333333  0.83333333  1
  C  C6  1  0.66666667  0.33333333  0.09333633  1
  C  C7  1  0.00000000  0.00000000  0.23999700  1
  C  C8  1  0.33333333  0.66666667  0.42666967  1
  C  C9  1  0.66666667  0.33333333  0.57333033  1
  C  C10  1  0.00000000  0.00000000  0.76000300  1
  C  C11  1  0.33333333  0.66666667  0.90666367  1
  O  O12  1  0.51974900  0.48025100  0.09107000  1
  O  O13  1  0.96050200  0.48025100  0.09107000  1
  O  O14  1  0.14691767  0.29383533  0.24226333  1
  O  O15  1  0.14691767  0.85308233  0.24226333  1
  O  O16  1  0.70616467  0.85308233  0.24226333  1
  O  O17  1  0.51974900  0.03949800  0.09107000  1
  O  O18  1  0.18641567  0.81358433  0.42440333  1
  O  O19  1  0.62716867  0.81358433  0.42440333  1
  O  O20  1  0.81358433  0.62716867  0.57559667  1
  O  O21  1  0.81358433  0.18641567  0.57559667  1
  O  O22  1  0.37283133  0.18641567  0.57559667  1
  O  O23  1  0.18641567  0.37283133  0.42440333  1
  O  O24  1  0.85308233  0.14691767  0.75773667  1
  O  O25  1  0.29383533  0.14691767  0.75773667  1
  O  O26  1  0.48025100  0.96050200  0.90893000  1
  O  O27  1  0.48025100  0.51974900  0.90893000  1
  O  O28  1  0.03949800  0.51974900  0.90893000  1
  O  O29  1  0.85308233  0.70616467  0.75773667  1
