# generated using pymatgen
data_Na3V2P2O10F
_symmetry_space_group_name_H-M   'P 1'
_cell_length_a   6.47986597
_cell_length_b   10.63429517
_cell_length_c   6.48215294
_cell_angle_alpha   90.00000000
_cell_angle_beta   90.07319201
_cell_angle_gamma   90.00000000
_symmetry_Int_Tables_number   1
_chemical_formula_structural   Na3V2P2O10F
_chemical_formula_sum   'Na6 V4 P4 O20 F2'
_cell_volume   446.67706441
_cell_formula_units_Z   2
loop_
 _symmetry_equiv_pos_site_id
 _symmetry_equiv_pos_as_xyz
  1  'x, y, z'
loop_
 _atom_site_type_symbol
 _atom_site_label
 _atom_site_symmetry_multiplicity
 _atom_site_fract_x
 _atom_site_fract_y
 _atom_site_fract_z
 _atom_site_occupancy
  Na  Na0  1  0.18416325  0.00000000  0.75215958  1
  Na  Na1  1  0.68415710  0.50000000  0.24958758  1
  Na  Na2  1  0.24063671  0.00000000  0.23294952  1
  Na  Na3  1  0.75912327  0.00000000  0.22572674  1
  Na  Na4  1  0.25060912  0.50000000  0.68569674  1
  Na  Na5  1  0.73598473  0.50000000  0.73679960  1
  V  V6  1  0.50300378  0.19888365  0.50600861  1
  V  V7  1  0.00487900  0.69830418  0.00572065  1
  V  V8  1  0.00487900  0.30169582  0.00572065  1
  V  V9  1  0.50300378  0.80111635  0.50600861  1
  P  P10  1  0.99739372  0.25041004  0.49788464  1
  P  P11  1  0.49808449  0.75067679  0.99806865  1
  P  P12  1  0.49808449  0.24932321  0.99806865  1
  P  P13  1  0.99739372  0.74958996  0.49788464  1
  O  O14  1  0.99601817  0.33945290  0.30886381  1
  O  O15  1  0.18894607  0.16252210  0.49843794  1
  O  O16  1  0.80785909  0.16123691  0.49815235  1
  O  O17  1  0.51025545  0.35649770  0.50593300  1
  O  O18  1  0.99947014  0.33738816  0.69011116  1
  O  O19  1  0.49509510  0.83906768  0.80803429  1
  O  O20  1  0.49509510  0.16093232  0.80803429  1
  O  O21  1  0.69000623  0.66314255  0.99855599  1
  O  O22  1  0.30892982  0.66125613  0.99811055  1
  O  O23  1  0.01201780  0.85586150  0.00739074  1
  O  O24  1  0.01201780  0.14413850  0.00739074  1
  O  O25  1  0.69000623  0.33685745  0.99855599  1
  O  O26  1  0.30892982  0.33874387  0.99811055  1
  O  O27  1  0.50094040  0.83791661  0.19037245  1
  O  O28  1  0.50094040  0.16208339  0.19037245  1
  O  O29  1  0.99601817  0.66054710  0.30886381  1
  O  O30  1  0.51025545  0.64350230  0.50593300  1
  O  O31  1  0.18894607  0.83747790  0.49843794  1
  O  O32  1  0.80785909  0.83876309  0.49815235  1
  O  O33  1  0.99947014  0.66261184  0.69011116  1
  F  F34  1  0.49206791  0.00000000  0.49303109  1
  F  F35  1  0.99215330  0.50000000  0.99203274  1
