# generated using pymatgen
data_CdH8C2S2(BrN2)2
_symmetry_space_group_name_H-M   'P 1'
_cell_length_a   6.12160000
_cell_length_b   13.17260100
_cell_length_c   13.81066600
_cell_angle_alpha   90.00000000
_cell_angle_beta   90.00000000
_cell_angle_gamma   90.00000000
_symmetry_Int_Tables_number   1
_chemical_formula_structural   CdH8C2S2(BrN2)2
_chemical_formula_sum   'Cd4 H32 C8 S8 Br8 N16'
_cell_volume   1113.65611953
_cell_formula_units_Z   4
loop_
 _symmetry_equiv_pos_site_id
 _symmetry_equiv_pos_as_xyz
  1  'x, y, z'
loop_
 _atom_site_type_symbol
 _atom_site_label
 _atom_site_symmetry_multiplicity
 _atom_site_fract_x
 _atom_site_fract_y
 _atom_site_fract_z
 _atom_site_occupancy
  Cd  Cd0  1  0.71767600  0.15501300  0.25000000  1
  Cd  Cd1  1  0.78232400  0.65501300  0.25000000  1
  Cd  Cd2  1  0.28232400  0.84498700  0.75000000  1
  Cd  Cd3  1  0.21767600  0.34498700  0.75000000  1
  H  H4  1  0.61829100  0.12306400  0.65163000  1
  H  H5  1  0.88170900  0.62306400  0.84837000  1
  H  H6  1  0.38170900  0.87693600  0.15163000  1
  H  H7  1  0.11829100  0.37693600  0.34837000  1
  H  H8  1  0.38170900  0.87693600  0.34837000  1
  H  H9  1  0.11829100  0.37693600  0.15163000  1
  H  H10  1  0.61829100  0.12306400  0.84837000  1
  H  H11  1  0.88170900  0.62306400  0.65163000  1
  H  H12  1  0.89093800  0.10434400  0.61691800  1
  H  H13  1  0.60906200  0.60434400  0.88308200  1
  H  H14  1  0.10906200  0.89565600  0.11691800  1
  H  H15  1  0.39093800  0.39565600  0.38308200  1
  H  H16  1  0.10906200  0.89565600  0.38308200  1
  H  H17  1  0.39093800  0.39565600  0.11691800  1
  H  H18  1  0.89093800  0.10434400  0.88308200  1
  H  H19  1  0.60906200  0.60434400  0.61691800  1
  H  H20  1  0.35103100  0.14211400  0.54356800  1
  H  H21  1  0.14896900  0.64211400  0.95643200  1
  H  H22  1  0.64896900  0.85788600  0.04356800  1
  H  H23  1  0.85103100  0.35788600  0.45643200  1
  H  H24  1  0.64896900  0.85788600  0.45643200  1
  H  H25  1  0.85103100  0.35788600  0.04356800  1
  H  H26  1  0.35103100  0.14211400  0.95643200  1
  H  H27  1  0.14896900  0.64211400  0.54356800  1
  H  H28  1  0.39792300  0.13803500  0.41848100  1
  H  H29  1  0.10207700  0.63803500  0.08151900  1
  H  H30  1  0.60207700  0.86196500  0.91848100  1
  H  H31  1  0.89792300  0.36196500  0.58151900  1
  H  H32  1  0.60207700  0.86196500  0.58151900  1
  H  H33  1  0.89792300  0.36196500  0.91848100  1
  H  H34  1  0.39792300  0.13803500  0.08151900  1
  H  H35  1  0.10207700  0.63803500  0.41848100  1
  C  C36  1  0.66945400  0.11995600  0.50555500  1
  C  C37  1  0.83054600  0.61995600  0.99444500  1
  C  C38  1  0.33054600  0.88004400  0.00555500  1
  C  C39  1  0.16945400  0.38004400  0.49444500  1
  C  C40  1  0.33054600  0.88004400  0.49444500  1
  C  C41  1  0.16945400  0.38004400  0.00555500  1
  C  C42  1  0.66945400  0.11995600  0.99444500  1
  C  C43  1  0.83054600  0.61995600  0.50555500  1
  S  S44  1  0.86618400  0.10441200  0.41764100  1
  S  S45  1  0.63381600  0.60441200  0.08235900  1
  S  S46  1  0.13381600  0.89558800  0.91764100  1
  S  S47  1  0.36618400  0.39558800  0.58235900  1
  S  S48  1  0.13381600  0.89558800  0.58235900  1
  S  S49  1  0.36618400  0.39558800  0.91764100  1
  S  S50  1  0.86618400  0.10441200  0.08235900  1
  S  S51  1  0.63381600  0.60441200  0.41764100  1
  Br  Br52  1  0.74482500  0.36127500  0.25000000  1
  Br  Br53  1  0.75517500  0.86127500  0.25000000  1
  Br  Br54  1  0.25517500  0.63872500  0.75000000  1
  Br  Br55  1  0.24482500  0.13872500  0.75000000  1
  Br  Br56  1  0.28628200  0.12247100  0.25000000  1
  Br  Br57  1  0.21371800  0.62247100  0.25000000  1
  Br  Br58  1  0.71371800  0.87752900  0.75000000  1
  Br  Br59  1  0.78628200  0.37752900  0.75000000  1
  N  N60  1  0.73230700  0.11631900  0.59811700  1
  N  N61  1  0.76769300  0.61631900  0.90188300  1
  N  N62  1  0.26769300  0.88368100  0.09811700  1
  N  N63  1  0.23230700  0.38368100  0.40188300  1
  N  N64  1  0.26769300  0.88368100  0.40188300  1
  N  N65  1  0.23230700  0.38368100  0.09811700  1
  N  N66  1  0.73230700  0.11631900  0.90188300  1
  N  N67  1  0.76769300  0.61631900  0.59811700  1
  N  N68  1  0.45786400  0.13558800  0.48742900  1
  N  N69  1  0.04213600  0.63558800  0.01257100  1
  N  N70  1  0.54213600  0.86441200  0.98742900  1
  N  N71  1  0.95786400  0.36441200  0.51257100  1
  N  N72  1  0.54213600  0.86441200  0.51257100  1
  N  N73  1  0.95786400  0.36441200  0.98742900  1
  N  N74  1  0.45786400  0.13558800  0.01257100  1
  N  N75  1  0.04213600  0.63558800  0.48742900  1
