# generated using pymatgen
data_Gd2PbS4
_symmetry_space_group_name_H-M   'P 1'
_cell_length_a   8.59259200
_cell_length_b   8.59259200
_cell_length_c   8.54730200
_cell_angle_alpha   90.00000000
_cell_angle_beta   90.00000000
_cell_angle_gamma   90.00000000
_symmetry_Int_Tables_number   1
_chemical_formula_structural   Gd2PbS4
_chemical_formula_sum   'Gd8 Pb4 S16'
_cell_volume   631.06984828
_cell_formula_units_Z   4
loop_
 _symmetry_equiv_pos_site_id
 _symmetry_equiv_pos_as_xyz
  1  'x, y, z'
loop_
 _atom_site_type_symbol
 _atom_site_label
 _atom_site_symmetry_multiplicity
 _atom_site_fract_x
 _atom_site_fract_y
 _atom_site_fract_z
 _atom_site_occupancy
  Gd  Gd0  1  0.36935700  0.25000000  0.87500000  1
  Gd  Gd1  1  0.13064300  0.25000000  0.37500000  1
  Gd  Gd2  1  0.75000000  0.36935700  0.12500000  1
  Gd  Gd3  1  0.75000000  0.13064300  0.62500000  1
  Gd  Gd4  1  0.86935700  0.75000000  0.37500000  1
  Gd  Gd5  1  0.63064300  0.75000000  0.87500000  1
  Gd  Gd6  1  0.25000000  0.86935700  0.62500000  1
  Gd  Gd7  1  0.25000000  0.63064300  0.12500000  1
  Pb  Pb8  1  0.50000000  0.50000000  0.50000000  1
  Pb  Pb9  1  0.50000000  0.00000000  0.25000000  1
  Pb  Pb10  1  0.00000000  0.00000000  0.00000000  1
  Pb  Pb11  1  0.00000000  0.50000000  0.75000000  1
  S  S12  1  0.82792050  0.07330950  0.31440950  1
  S  S13  1  0.67207950  0.07330950  0.93559050  1
  S  S14  1  0.67207950  0.42669050  0.81440950  1
  S  S15  1  0.07330950  0.32792050  0.06440950  1
  S  S16  1  0.92669050  0.82792050  0.68559050  1
  S  S17  1  0.57330950  0.67207950  0.18559050  1
  S  S18  1  0.42669050  0.17207950  0.56440950  1
  S  S19  1  0.82792050  0.42669050  0.43559050  1
  S  S20  1  0.32792050  0.57330950  0.81440950  1
  S  S21  1  0.17207950  0.57330950  0.43559050  1
  S  S22  1  0.17207950  0.92669050  0.31440950  1
  S  S23  1  0.57330950  0.82792050  0.56440950  1
  S  S24  1  0.42669050  0.32792050  0.18559050  1
  S  S25  1  0.07330950  0.17207950  0.68559050  1
  S  S26  1  0.92669050  0.67207950  0.06440950  1
  S  S27  1  0.32792050  0.92669050  0.93559050  1
