# generated using pymatgen
data_Yb(DyS2)2
_symmetry_space_group_name_H-M   'P 1'
_cell_length_a   8.34973000
_cell_length_b   8.34973000
_cell_length_c   8.32981200
_cell_angle_alpha   90.00000000
_cell_angle_beta   90.00000000
_cell_angle_gamma   90.00000000
_symmetry_Int_Tables_number   1
_chemical_formula_structural   Yb(DyS2)2
_chemical_formula_sum   'Yb4 Dy8 S16'
_cell_volume   580.73775865
_cell_formula_units_Z   4
loop_
 _symmetry_equiv_pos_site_id
 _symmetry_equiv_pos_as_xyz
  1  'x, y, z'
loop_
 _atom_site_type_symbol
 _atom_site_label
 _atom_site_symmetry_multiplicity
 _atom_site_fract_x
 _atom_site_fract_y
 _atom_site_fract_z
 _atom_site_occupancy
  Yb  Yb0  1  0.00000000  0.00000000  0.50000000  1
  Yb  Yb1  1  0.50000000  0.00000000  0.75000000  1
  Yb  Yb2  1  0.50000000  0.50000000  0.00000000  1
  Yb  Yb3  1  0.00000000  0.50000000  0.25000000  1
  Dy  Dy4  1  0.87255000  0.75000000  0.87500000  1
  Dy  Dy5  1  0.75000000  0.37255000  0.62500000  1
  Dy  Dy6  1  0.62745000  0.75000000  0.37500000  1
  Dy  Dy7  1  0.75000000  0.12745000  0.12500000  1
  Dy  Dy8  1  0.37255000  0.25000000  0.37500000  1
  Dy  Dy9  1  0.25000000  0.87255000  0.12500000  1
  Dy  Dy10  1  0.12745000  0.25000000  0.87500000  1
  Dy  Dy11  1  0.25000000  0.62745000  0.62500000  1
  S  S12  1  0.07329000  0.17691300  0.19301200  1
  S  S13  1  0.82308700  0.42671000  0.94301200  1
  S  S14  1  0.07329000  0.32308700  0.55698800  1
  S  S15  1  0.67691300  0.07329000  0.44301200  1
  S  S16  1  0.67691300  0.42671000  0.30698800  1
  S  S17  1  0.42671000  0.32308700  0.69301200  1
  S  S18  1  0.82308700  0.07329000  0.80698800  1
  S  S19  1  0.42671000  0.17691300  0.05698800  1
  S  S20  1  0.57329000  0.67691300  0.69301200  1
  S  S21  1  0.32308700  0.92671000  0.44301200  1
  S  S22  1  0.57329000  0.82308700  0.05698800  1
  S  S23  1  0.17691300  0.57329000  0.94301200  1
  S  S24  1  0.17691300  0.92671000  0.80698800  1
  S  S25  1  0.92671000  0.82308700  0.19301200  1
  S  S26  1  0.32308700  0.57329000  0.30698800  1
  S  S27  1  0.92671000  0.67691300  0.55698800  1
