# generated using pymatgen
data_BaS2
_symmetry_space_group_name_H-M   'P 1'
_cell_length_a   9.33818200
_cell_length_b   4.83751200
_cell_length_c   9.11994073
_cell_angle_alpha   90.00000000
_cell_angle_beta   117.82473611
_cell_angle_gamma   90.00000000
_symmetry_Int_Tables_number   1
_chemical_formula_structural   BaS2
_chemical_formula_sum   'Ba4 S8'
_cell_volume   364.34691163
_cell_formula_units_Z   4
loop_
 _symmetry_equiv_pos_site_id
 _symmetry_equiv_pos_as_xyz
  1  'x, y, z'
loop_
 _atom_site_type_symbol
 _atom_site_label
 _atom_site_symmetry_multiplicity
 _atom_site_fract_x
 _atom_site_fract_y
 _atom_site_fract_z
 _atom_site_occupancy
  Ba  Ba0  1  0.50000000  0.35896200  0.25000000  1
  Ba  Ba1  1  0.50000000  0.64103800  0.75000000  1
  Ba  Ba2  1  0.00000000  0.85896200  0.25000000  1
  Ba  Ba3  1  0.00000000  0.14103800  0.75000000  1
  S  S4  1  0.83893700  0.35574100  0.97988400  1
  S  S5  1  0.66106300  0.85574100  0.52011600  1
  S  S6  1  0.33893700  0.14425900  0.47988400  1
  S  S7  1  0.16106300  0.64425900  0.02011600  1
  S  S8  1  0.33893700  0.85574100  0.97988400  1
  S  S9  1  0.16106300  0.35574100  0.52011600  1
  S  S10  1  0.83893700  0.64425900  0.47988400  1
  S  S11  1  0.66106300  0.14425900  0.02011600  1
