# generated using pymatgen
data_K3Cr4PO16
_symmetry_space_group_name_H-M   'P 1'
_cell_length_a   9.70177600
_cell_length_b   12.02593600
_cell_length_c   15.09081888
_cell_angle_alpha   90.00000000
_cell_angle_beta   105.92524380
_cell_angle_gamma   90.00000000
_symmetry_Int_Tables_number   1
_chemical_formula_structural   K3Cr4PO16
_chemical_formula_sum   'K12 Cr16 P4 O64'
_cell_volume   1693.11577997
_cell_formula_units_Z   4
loop_
 _symmetry_equiv_pos_site_id
 _symmetry_equiv_pos_as_xyz
  1  'x, y, z'
loop_
 _atom_site_type_symbol
 _atom_site_label
 _atom_site_symmetry_multiplicity
 _atom_site_fract_x
 _atom_site_fract_y
 _atom_site_fract_z
 _atom_site_occupancy
  K  K0  1  0.71305600  0.96447000  0.17229800  1
  K  K1  1  0.71305600  0.03553000  0.67229800  1
  K  K2  1  0.18737250  0.98994950  0.66214700  1
  K  K3  1  0.18737250  0.01005050  0.16214700  1
  K  K4  1  0.64352200  0.77538400  0.89017600  1
  K  K5  1  0.64352200  0.22461600  0.39017600  1
  K  K6  1  0.21305600  0.46447000  0.17229800  1
  K  K7  1  0.21305600  0.53553000  0.67229800  1
  K  K8  1  0.68737250  0.48994950  0.66214700  1
  K  K9  1  0.68737250  0.51005050  0.16214700  1
  K  K10  1  0.14352200  0.27538400  0.89017600  1
  K  K11  1  0.14352200  0.72461600  0.39017600  1
  Cr  Cr12  1  0.44415050  0.23688750  0.14233800  1
  Cr  Cr13  1  0.33735800  0.93944200  0.93242800  1
  Cr  Cr14  1  0.44884250  0.72837550  0.26280400  1
  Cr  Cr15  1  0.82986600  0.06241700  0.95884200  1
  Cr  Cr16  1  0.33735800  0.06055800  0.43242800  1
  Cr  Cr17  1  0.44884250  0.27162450  0.76280400  1
  Cr  Cr18  1  0.44415050  0.76311250  0.64233800  1
  Cr  Cr19  1  0.82986600  0.93758300  0.45884200  1
  Cr  Cr20  1  0.94415050  0.73688750  0.14233800  1
  Cr  Cr21  1  0.83735800  0.43944200  0.93242800  1
  Cr  Cr22  1  0.94884250  0.22837550  0.26280400  1
  Cr  Cr23  1  0.32986600  0.56241700  0.95884200  1
  Cr  Cr24  1  0.83735800  0.56055800  0.43242800  1
  Cr  Cr25  1  0.94884250  0.77162450  0.76280400  1
  Cr  Cr26  1  0.94415050  0.26311250  0.64233800  1
  Cr  Cr27  1  0.32986600  0.43758300  0.45884200  1
  P  P28  1  0.62035300  0.26812200  0.98314600  1
  P  P29  1  0.62035300  0.73187800  0.48314600  1
  P  P30  1  0.12035300  0.76812200  0.98314600  1
  P  P31  1  0.12035300  0.23187800  0.48314600  1
  O  O32  1  0.28053500  0.76250900  0.23603600  1
  O  O33  1  0.27332550  0.76705050  0.59044800  1
  O  O34  1  0.87265750  0.03004250  0.54000900  1
  O  O35  1  0.49338100  0.88421700  0.68788000  1
  O  O36  1  0.53873750  0.81984150  0.22332100  1
  O  O37  1  0.49338100  0.11578300  0.18788000  1
  O  O38  1  0.74753750  0.00339150  0.86188600  1
  O  O39  1  0.54652000  0.72553400  0.56048100  1
  O  O40  1  0.87265750  0.96995750  0.04000900  1
  O  O41  1  0.27332550  0.23294950  0.09044800  1
  O  O42  1  0.74753750  0.99660850  0.36188600  1
  O  O43  1  0.46910250  0.39433350  0.72189900  1
  O  O44  1  0.28414250  0.93340750  0.40978200  1
  O  O45  1  0.47544450  0.66799150  0.72215100  1
  O  O46  1  0.53873750  0.18015850  0.72332100  1
  O  O47  1  0.32934450  0.12795150  0.33767000  1
  O  O48  1  0.71030950  0.16113150  0.99610100  1
  O  O49  1  0.28414250  0.06659250  0.90978200  1
  O  O50  1  0.49909550  0.06430350  0.50099700  1
  O  O51  1  0.50480400  0.26967600  0.89033500  1
  O  O52  1  0.47320500  0.37352900  0.45064900  1
  O  O53  1  0.71030950  0.83886850  0.49610100  1
  O  O54  1  0.21593700  0.12650500  0.49427500  1
  O  O55  1  0.54652000  0.27446600  0.06048100  1
  O  O56  1  0.32934450  0.87204850  0.83767000  1
  O  O57  1  0.47320500  0.62647100  0.95064900  1
  O  O58  1  0.50480400  0.73032400  0.39033500  1
  O  O59  1  0.28053500  0.23749100  0.73603600  1
  O  O60  1  0.47544450  0.33200850  0.22215100  1
  O  O61  1  0.46910250  0.60566650  0.22189900  1
  O  O62  1  0.49909550  0.93569650  0.00099700  1
  O  O63  1  0.21593700  0.87349500  0.99427500  1
  O  O64  1  0.78053500  0.26250900  0.23603600  1
  O  O65  1  0.77332550  0.26705050  0.59044800  1
  O  O66  1  0.37265750  0.53004250  0.54000900  1
  O  O67  1  0.99338100  0.38421700  0.68788000  1
  O  O68  1  0.03873750  0.31984150  0.22332100  1
  O  O69  1  0.99338100  0.61578300  0.18788000  1
  O  O70  1  0.24753750  0.50339150  0.86188600  1
  O  O71  1  0.04652000  0.22553400  0.56048100  1
  O  O72  1  0.37265750  0.46995750  0.04000900  1
  O  O73  1  0.77332550  0.73294950  0.09044800  1
  O  O74  1  0.24753750  0.49660850  0.36188600  1
  O  O75  1  0.96910250  0.89433350  0.72189900  1
  O  O76  1  0.78414250  0.43340750  0.40978200  1
  O  O77  1  0.97544450  0.16799150  0.72215100  1
  O  O78  1  0.03873750  0.68015850  0.72332100  1
  O  O79  1  0.82934450  0.62795150  0.33767000  1
  O  O80  1  0.21030950  0.66113150  0.99610100  1
  O  O81  1  0.78414250  0.56659250  0.90978200  1
  O  O82  1  0.99909550  0.56430350  0.50099700  1
  O  O83  1  0.00480400  0.76967600  0.89033500  1
  O  O84  1  0.97320500  0.87352900  0.45064900  1
  O  O85  1  0.21030950  0.33886850  0.49610100  1
  O  O86  1  0.71593700  0.62650500  0.49427500  1
  O  O87  1  0.04652000  0.77446600  0.06048100  1
  O  O88  1  0.82934450  0.37204850  0.83767000  1
  O  O89  1  0.97320500  0.12647100  0.95064900  1
  O  O90  1  0.00480400  0.23032400  0.39033500  1
  O  O91  1  0.78053500  0.73749100  0.73603600  1
  O  O92  1  0.97544450  0.83200850  0.22215100  1
  O  O93  1  0.96910250  0.10566650  0.22189900  1
  O  O94  1  0.99909550  0.43569650  0.00099700  1
  O  O95  1  0.71593700  0.37349500  0.99427500  1
