# generated using pymatgen
data_Cs3Sb2N3(O3F2)3
_symmetry_space_group_name_H-M   'P 1'
_cell_length_a   22.47191800
_cell_length_b   7.66033400
_cell_length_c   9.98315342
_cell_angle_alpha   90.00000000
_cell_angle_beta   90.31765171
_cell_angle_gamma   90.00000000
_symmetry_Int_Tables_number   1
_chemical_formula_structural   Cs3Sb2N3(O3F2)3
_chemical_formula_sum   'Cs12 Sb8 N12 O36 F24'
_cell_volume   1718.49755425
_cell_formula_units_Z   4
loop_
 _symmetry_equiv_pos_site_id
 _symmetry_equiv_pos_as_xyz
  1  'x, y, z'
loop_
 _atom_site_type_symbol
 _atom_site_label
 _atom_site_symmetry_multiplicity
 _atom_site_fract_x
 _atom_site_fract_y
 _atom_site_fract_z
 _atom_site_occupancy
  Cs  Cs0  1  0.68756050  0.86856650  0.34045300  1
  Cs  Cs1  1  0.81243950  0.63143350  0.65954700  1
  Cs  Cs2  1  0.68756050  0.13143350  0.84045300  1
  Cs  Cs3  1  0.00000000  0.50000000  0.50000000  1
  Cs  Cs4  1  0.81243950  0.36856650  0.15954700  1
  Cs  Cs5  1  0.00000000  0.50000000  0.00000000  1
  Cs  Cs6  1  0.18756050  0.36856650  0.34045300  1
  Cs  Cs7  1  0.31243950  0.13143350  0.65954700  1
  Cs  Cs8  1  0.18756050  0.63143350  0.84045300  1
  Cs  Cs9  1  0.50000000  0.00000000  0.50000000  1
  Cs  Cs10  1  0.31243950  0.86856650  0.15954700  1
  Cs  Cs11  1  0.50000000  0.00000000  0.00000000  1
  Sb  Sb12  1  0.88616250  0.85019850  0.28280600  1
  Sb  Sb13  1  0.61383750  0.35019850  0.21719400  1
  Sb  Sb14  1  0.88616250  0.14980150  0.78280600  1
  Sb  Sb15  1  0.61383750  0.64980150  0.71719400  1
  Sb  Sb16  1  0.38616250  0.35019850  0.28280600  1
  Sb  Sb17  1  0.11383750  0.85019850  0.21719400  1
  Sb  Sb18  1  0.38616250  0.64980150  0.78280600  1
  Sb  Sb19  1  0.11383750  0.14980150  0.71719400  1
  N  N20  1  0.00000000  0.88364300  0.75000000  1
  N  N21  1  0.81417900  0.13521600  0.50465600  1
  N  N22  1  0.00000000  0.11635700  0.25000000  1
  N  N23  1  0.68582100  0.36478400  0.49534400  1
  N  N24  1  0.81417900  0.86478400  0.00465600  1
  N  N25  1  0.68582100  0.63521600  0.99534400  1
  N  N26  1  0.50000000  0.38364300  0.75000000  1
  N  N27  1  0.31417900  0.63521600  0.50465600  1
  N  N28  1  0.50000000  0.61635700  0.25000000  1
  N  N29  1  0.18582100  0.86478400  0.49534400  1
  N  N30  1  0.31417900  0.36478400  0.00465600  1
  N  N31  1  0.18582100  0.13521600  0.99534400  1
  O  O32  1  0.95436800  0.80386400  0.79057300  1
  O  O33  1  0.80811650  0.09432150  0.38085200  1
  O  O34  1  0.80811650  0.90567850  0.88085200  1
  O  O35  1  0.54563200  0.30386400  0.70942700  1
  O  O36  1  0.78712950  0.04920650  0.59315400  1
  O  O37  1  0.00000000  0.94644600  0.25000000  1
  O  O38  1  0.65169550  0.76094850  0.96272600  1
  O  O39  1  0.95436800  0.19613600  0.29057300  1
  O  O40  1  0.71287050  0.45079350  0.40684600  1
  O  O41  1  0.54563200  0.69613600  0.20942700  1
  O  O42  1  0.78712950  0.95079350  0.09315400  1
  O  O43  1  0.84830450  0.73905150  0.03727400  1
  O  O44  1  0.69188350  0.40567850  0.61914800  1
  O  O45  1  0.71287050  0.54920650  0.90684600  1
  O  O46  1  0.65169550  0.23905150  0.46272600  1
  O  O47  1  0.84830450  0.26094850  0.53727400  1
  O  O48  1  0.00000000  0.05355400  0.75000000  1
  O  O49  1  0.69188350  0.59432150  0.11914800  1
  O  O50  1  0.45436800  0.30386400  0.79057300  1
  O  O51  1  0.30811650  0.59432150  0.38085200  1
  O  O52  1  0.30811650  0.40567850  0.88085200  1
  O  O53  1  0.04563200  0.80386400  0.70942700  1
  O  O54  1  0.28712950  0.54920650  0.59315400  1
  O  O55  1  0.50000000  0.44644600  0.25000000  1
  O  O56  1  0.15169550  0.26094850  0.96272600  1
  O  O57  1  0.45436800  0.69613600  0.29057300  1
  O  O58  1  0.21287050  0.95079350  0.40684600  1
  O  O59  1  0.04563200  0.19613600  0.20942700  1
  O  O60  1  0.28712950  0.45079350  0.09315400  1
  O  O61  1  0.34830450  0.23905150  0.03727400  1
  O  O62  1  0.19188350  0.90567850  0.61914800  1
  O  O63  1  0.21287050  0.04920650  0.90684600  1
  O  O64  1  0.15169550  0.73905150  0.46272600  1
  O  O65  1  0.34830450  0.76094850  0.53727400  1
  O  O66  1  0.50000000  0.55355400  0.75000000  1
  O  O67  1  0.19188350  0.09432150  0.11914800  1
  F  F68  1  0.91085400  0.16828800  0.97430600  1
  F  F69  1  0.91085400  0.83171200  0.47430600  1
  F  F70  1  0.68239850  0.79565450  0.65877300  1
  F  F71  1  0.92776000  0.62432400  0.25004500  1
  F  F72  1  0.68239850  0.20434550  0.15877300  1
  F  F73  1  0.58914600  0.66828800  0.52569400  1
  F  F74  1  0.92776000  0.37567600  0.75004500  1
  F  F75  1  0.81760150  0.70434550  0.34122700  1
  F  F76  1  0.57224000  0.87567600  0.74995500  1
  F  F77  1  0.81760150  0.29565450  0.84122700  1
  F  F78  1  0.57224000  0.12432400  0.24995500  1
  F  F79  1  0.58914600  0.33171200  0.02569400  1
  F  F80  1  0.41085400  0.66828800  0.97430600  1
  F  F81  1  0.41085400  0.33171200  0.47430600  1
  F  F82  1  0.18239850  0.29565450  0.65877300  1
  F  F83  1  0.42776000  0.12432400  0.25004500  1
  F  F84  1  0.18239850  0.70434550  0.15877300  1
  F  F85  1  0.08914600  0.16828800  0.52569400  1
  F  F86  1  0.42776000  0.87567600  0.75004500  1
  F  F87  1  0.31760150  0.20434550  0.34122700  1
  F  F88  1  0.07224000  0.37567600  0.74995500  1
  F  F89  1  0.31760150  0.79565450  0.84122700  1
  F  F90  1  0.07224000  0.62432400  0.24995500  1
  F  F91  1  0.08914600  0.83171200  0.02569400  1
