# generated using pymatgen
data_LaTiNbBi2O9
_symmetry_space_group_name_H-M   'P 1'
_cell_length_a   5.46544200
_cell_length_b   5.46697100
_cell_length_c   25.38180000
_cell_angle_alpha   90.00000000
_cell_angle_beta   90.00000000
_cell_angle_gamma   90.00000000
_symmetry_Int_Tables_number   1
_chemical_formula_structural   LaTiNbBi2O9
_chemical_formula_sum   'La4 Ti4 Nb4 Bi8 O36'
_cell_volume   758.39328276
_cell_formula_units_Z   4
loop_
 _symmetry_equiv_pos_site_id
 _symmetry_equiv_pos_as_xyz
  1  'x, y, z'
loop_
 _atom_site_type_symbol
 _atom_site_label
 _atom_site_symmetry_multiplicity
 _atom_site_fract_x
 _atom_site_fract_y
 _atom_site_fract_z
 _atom_site_occupancy
  La  La0  1  0.50000000  0.50000000  0.00000000  1
  La  La1  1  0.50000000  0.00000000  0.50000000  1
  La  La2  1  0.00000000  0.00000000  0.00000000  1
  La  La3  1  0.00000000  0.50000000  0.50000000  1
  Ti  Ti4  1  0.00354000  0.50000000  0.08757900  1
  Ti  Ti5  1  0.49646000  0.50000000  0.58757900  1
  Ti  Ti6  1  0.99646000  0.50000000  0.91242100  1
  Ti  Ti7  1  0.50354000  0.50000000  0.41242100  1
  Nb  Nb8  1  0.99876400  0.00000000  0.58869700  1
  Nb  Nb9  1  0.49876400  0.00000000  0.91130300  1
  Nb  Nb10  1  0.00123600  0.00000000  0.41130300  1
  Nb  Nb11  1  0.50123600  0.00000000  0.08869700  1
  Bi  Bi12  1  0.50176700  0.50000000  0.19981900  1
  Bi  Bi13  1  0.48662400  0.00000000  0.69991700  1
  Bi  Bi14  1  0.51337600  0.00000000  0.30008300  1
  Bi  Bi15  1  0.01337600  0.00000000  0.19991700  1
  Bi  Bi16  1  0.99823300  0.50000000  0.69981900  1
  Bi  Bi17  1  0.49823300  0.50000000  0.80018100  1
  Bi  Bi18  1  0.00176700  0.50000000  0.30018100  1
  Bi  Bi19  1  0.98662400  0.00000000  0.80008300  1
  O  O20  1  0.74904000  0.25346500  0.07480800  1
  O  O21  1  0.75727700  0.74966600  0.24955400  1
  O  O22  1  0.00000000  0.00000000  0.50000000  1
  O  O23  1  0.25727700  0.25033400  0.25044600  1
  O  O24  1  0.25096000  0.74653500  0.92519200  1
  O  O25  1  0.74638600  0.75076200  0.42655700  1
  O  O26  1  0.75096000  0.25346500  0.57480800  1
  O  O27  1  0.25727700  0.74966600  0.25044600  1
  O  O28  1  0.25361400  0.24923800  0.57344300  1
  O  O29  1  0.00443800  0.00000000  0.66320000  1
  O  O30  1  0.49556200  0.00000000  0.16320000  1
  O  O31  1  0.25361400  0.75076200  0.57344300  1
  O  O32  1  0.50000000  0.50000000  0.50000000  1
  O  O33  1  0.75361400  0.24923800  0.92655700  1
  O  O34  1  0.24904000  0.25346500  0.42519200  1
  O  O35  1  0.75727700  0.25033400  0.24955400  1
  O  O36  1  0.01776200  0.50000000  0.15928500  1
  O  O37  1  0.24904000  0.74653500  0.42519200  1
  O  O38  1  0.75096000  0.74653500  0.57480800  1
  O  O39  1  0.48223800  0.50000000  0.65928500  1
  O  O40  1  0.24272300  0.74966600  0.75044600  1
  O  O41  1  0.74272300  0.25033400  0.74955400  1
  O  O42  1  0.24638600  0.24923800  0.07344300  1
  O  O43  1  0.99556200  0.00000000  0.33680000  1
  O  O44  1  0.50443800  0.00000000  0.83680000  1
  O  O45  1  0.00000000  0.50000000  0.00000000  1
  O  O46  1  0.51776200  0.50000000  0.34071500  1
  O  O47  1  0.24638600  0.75076200  0.07344300  1
  O  O48  1  0.98223800  0.50000000  0.84071500  1
  O  O49  1  0.25096000  0.25346500  0.92519200  1
  O  O50  1  0.50000000  0.00000000  0.00000000  1
  O  O51  1  0.75361400  0.75076200  0.92655700  1
  O  O52  1  0.74638600  0.24923800  0.42655700  1
  O  O53  1  0.74904000  0.74653500  0.07480800  1
  O  O54  1  0.74272300  0.74966600  0.74955400  1
  O  O55  1  0.24272300  0.25033400  0.75044600  1
