# generated using pymatgen
data_NaAl3Tl2(SiO4)3
_symmetry_space_group_name_H-M   'P 1'
_cell_length_a   12.55092700
_cell_length_b   12.55092700
_cell_length_c   12.42000100
_cell_angle_alpha   90.00000000
_cell_angle_beta   90.00000000
_cell_angle_gamma   90.00000000
_symmetry_Int_Tables_number   1
_chemical_formula_structural   NaAl3Tl2(SiO4)3
_chemical_formula_sum   'Na4 Al12 Tl8 Si12 O48'
_cell_volume   1956.47020303
_cell_formula_units_Z   4
loop_
 _symmetry_equiv_pos_site_id
 _symmetry_equiv_pos_as_xyz
  1  'x, y, z'
loop_
 _atom_site_type_symbol
 _atom_site_label
 _atom_site_symmetry_multiplicity
 _atom_site_fract_x
 _atom_site_fract_y
 _atom_site_fract_z
 _atom_site_occupancy
  Na  Na0  1  0.00000000  0.39148700  0.56812100  1
  Na  Na1  1  0.39148700  0.00000000  0.56812100  1
  Na  Na2  1  0.00000000  0.60851300  0.56812100  1
  Na  Na3  1  0.60851300  0.00000000  0.56812100  1
  Al  Al4  1  0.00000000  0.62851000  0.18288900  1
  Al  Al5  1  0.37149000  0.00000000  0.18288900  1
  Al  Al6  1  0.62851000  0.00000000  0.18288900  1
  Al  Al7  1  0.00000000  0.37149000  0.18288900  1
  Al  Al8  1  0.00000000  0.18080000  0.63067900  1
  Al  Al9  1  0.18080000  0.00000000  0.63067900  1
  Al  Al10  1  0.00000000  0.81920000  0.63067900  1
  Al  Al11  1  0.81920000  0.00000000  0.63067900  1
  Al  Al12  1  0.00000000  0.62491600  0.82085900  1
  Al  Al13  1  0.62491600  0.00000000  0.82085900  1
  Al  Al14  1  0.37508400  0.00000000  0.82085900  1
  Al  Al15  1  0.00000000  0.37508400  0.82085900  1
  Tl  Tl16  1  0.25089600  0.25089600  0.24681300  1
  Tl  Tl17  1  0.25089600  0.74910400  0.24681300  1
  Tl  Tl18  1  0.74910400  0.25089600  0.24681300  1
  Tl  Tl19  1  0.74910400  0.74910400  0.24681300  1
  Tl  Tl20  1  0.24470800  0.24470800  0.74544800  1
  Tl  Tl21  1  0.24470800  0.75529200  0.74544800  1
  Tl  Tl22  1  0.75529200  0.24470800  0.74544800  1
  Tl  Tl23  1  0.75529200  0.75529200  0.74544800  1
  Si  Si24  1  0.62631200  0.18922100  0.00255500  1
  Si  Si25  1  0.18922100  0.62631200  0.00255500  1
  Si  Si26  1  0.81077900  0.62631200  0.00255500  1
  Si  Si27  1  0.00000000  0.18142500  0.37442000  1
  Si  Si28  1  0.18142500  0.00000000  0.37442000  1
  Si  Si29  1  0.00000000  0.81857500  0.37442000  1
  Si  Si30  1  0.81857500  0.00000000  0.37442000  1
  Si  Si31  1  0.18922100  0.37368800  0.00255500  1
  Si  Si32  1  0.37368800  0.18922100  0.00255500  1
  Si  Si33  1  0.37368800  0.81077900  0.00255500  1
  Si  Si34  1  0.62631200  0.81077900  0.00255500  1
  Si  Si35  1  0.81077900  0.37368800  0.00255500  1
  O  O36  1  0.29965500  0.29965500  0.00277700  1
  O  O37  1  0.50000000  0.22657900  0.00597300  1
  O  O38  1  0.29965500  0.70034500  0.00277700  1
  O  O39  1  0.70034500  0.29965500  0.00277700  1
  O  O40  1  0.77342100  0.50000000  0.00597300  1
  O  O41  1  0.70034500  0.70034500  0.00277700  1
  O  O42  1  0.12077200  0.34326800  0.11068800  1
  O  O43  1  0.34326800  0.12077200  0.11068800  1
  O  O44  1  0.34326800  0.87922800  0.11068800  1
  O  O45  1  0.87922800  0.34326800  0.11068800  1
  O  O46  1  0.12077200  0.65673200  0.11068800  1
  O  O47  1  0.65673200  0.12077200  0.11068800  1
  O  O48  1  0.65673200  0.87922800  0.11068800  1
  O  O49  1  0.87922800  0.65673200  0.11068800  1
  O  O50  1  0.00000000  0.50000000  0.23185500  1
  O  O51  1  0.50000000  0.00000000  0.23185500  1
  O  O52  1  0.00000000  0.27547200  0.28655100  1
  O  O53  1  0.27547200  0.00000000  0.28655100  1
  O  O54  1  0.00000000  0.72452800  0.28655100  1
  O  O55  1  0.72452800  0.00000000  0.28655100  1
  O  O56  1  0.10702400  0.10702400  0.35613500  1
  O  O57  1  0.10702400  0.89297600  0.35613500  1
  O  O58  1  0.89297600  0.10702400  0.35613500  1
  O  O59  1  0.89297600  0.89297600  0.35613500  1
  O  O60  1  0.00000000  0.23221100  0.49450300  1
  O  O61  1  0.23221100  0.00000000  0.49450300  1
  O  O62  1  0.00000000  0.76778900  0.49450300  1
  O  O63  1  0.76778900  0.00000000  0.49450300  1
  O  O64  1  0.11865200  0.11865200  0.65438800  1
  O  O65  1  0.11865200  0.88134800  0.65438800  1
  O  O66  1  0.88134800  0.11865200  0.65438800  1
  O  O67  1  0.88134800  0.88134800  0.65438800  1
  O  O68  1  0.00000000  0.29375000  0.70938300  1
  O  O69  1  0.00000000  0.70625000  0.70938300  1
  O  O70  1  0.29375000  0.00000000  0.70938300  1
  O  O71  1  0.70625000  0.00000000  0.70938300  1
  O  O72  1  0.00000000  0.50000000  0.75680100  1
  O  O73  1  0.50000000  0.00000000  0.75680100  1
  O  O74  1  0.11947000  0.34982500  0.89512300  1
  O  O75  1  0.34982500  0.11947000  0.89512300  1
  O  O76  1  0.34982500  0.88053000  0.89512300  1
  O  O77  1  0.88053000  0.34982500  0.89512300  1
  O  O78  1  0.11947000  0.65017500  0.89512300  1
  O  O79  1  0.65017500  0.11947000  0.89512300  1
  O  O80  1  0.65017500  0.88053000  0.89512300  1
  O  O81  1  0.88053000  0.65017500  0.89512300  1
  O  O82  1  0.22657900  0.50000000  0.00597300  1
  O  O83  1  0.50000000  0.77342100  0.00597300  1
