# generated using pymatgen
data_Ba(H8O5)2
_symmetry_space_group_name_H-M   'P 1'
_cell_length_a   9.20893800
_cell_length_b   9.21156800
_cell_length_c   11.36485871
_cell_angle_alpha   90.00000000
_cell_angle_beta   90.02025165
_cell_angle_gamma   90.00000000
_symmetry_Int_Tables_number   1
_chemical_formula_structural   Ba(H8O5)2
_chemical_formula_sum   'Ba4 H64 O40'
_cell_volume   964.06679575
_cell_formula_units_Z   4
loop_
 _symmetry_equiv_pos_site_id
 _symmetry_equiv_pos_as_xyz
  1  'x, y, z'
loop_
 _atom_site_type_symbol
 _atom_site_label
 _atom_site_symmetry_multiplicity
 _atom_site_fract_x
 _atom_site_fract_y
 _atom_site_fract_z
 _atom_site_occupancy
  Ba  Ba0  1  0.50000000  0.50186300  0.75000000  1
  Ba  Ba1  1  0.50000000  0.49813700  0.25000000  1
  Ba  Ba2  1  0.00000000  0.00186300  0.75000000  1
  Ba  Ba3  1  0.00000000  0.99813700  0.25000000  1
  H  H4  1  0.33840450  0.93634550  0.65187300  1
  H  H5  1  0.24076500  0.90622700  0.53761400  1
  H  H6  1  0.65586800  0.06127800  0.64307000  1
  H  H7  1  0.74751400  0.20800300  0.62807000  1
  H  H8  1  0.43279250  0.16091650  0.65174700  1
  H  H9  1  0.40589400  0.25989500  0.53818100  1
  H  H10  1  0.70674450  0.75274650  0.62769400  1
  H  H11  1  0.55904000  0.84321800  0.64353000  1
  H  H12  1  0.55904000  0.15678200  0.14353000  1
  H  H13  1  0.70674450  0.24725350  0.12769400  1
  H  H14  1  0.43279250  0.83908350  0.15174700  1
  H  H15  1  0.40589400  0.74010500  0.03818100  1
  H  H16  1  0.33840450  0.06365450  0.15187300  1
  H  H17  1  0.24076500  0.09377300  0.03761400  1
  H  H18  1  0.65586800  0.93872200  0.14307000  1
  H  H19  1  0.74751400  0.79199700  0.12807000  1
  H  H20  1  0.66159550  0.06365450  0.34812700  1
  H  H21  1  0.75923500  0.09377300  0.46238600  1
  H  H22  1  0.34413200  0.93872200  0.35693000  1
  H  H23  1  0.25248600  0.79199700  0.37193000  1
  H  H24  1  0.56720750  0.83908350  0.34825300  1
  H  H25  1  0.59410600  0.74010500  0.46181900  1
  H  H26  1  0.29325550  0.24725350  0.37230600  1
  H  H27  1  0.44096000  0.15678200  0.35647000  1
  H  H28  1  0.29325550  0.75274650  0.87230600  1
  H  H29  1  0.44096000  0.84321800  0.85647000  1
  H  H30  1  0.56720750  0.16091650  0.84825300  1
  H  H31  1  0.59410600  0.25989500  0.96181900  1
  H  H32  1  0.66159550  0.93634550  0.84812700  1
  H  H33  1  0.75923500  0.90622700  0.96238600  1
  H  H34  1  0.25248600  0.20800300  0.87193000  1
  H  H35  1  0.34413200  0.06127800  0.85693000  1
  H  H36  1  0.83840450  0.43634550  0.65187300  1
  H  H37  1  0.74076500  0.40622700  0.53761400  1
  H  H38  1  0.15586800  0.56127800  0.64307000  1
  H  H39  1  0.24751400  0.70800300  0.62807000  1
  H  H40  1  0.93279250  0.66091650  0.65174700  1
  H  H41  1  0.90589400  0.75989500  0.53818100  1
  H  H42  1  0.20674450  0.25274650  0.62769400  1
  H  H43  1  0.05904000  0.34321800  0.64353000  1
  H  H44  1  0.05904000  0.65678200  0.14353000  1
  H  H45  1  0.20674450  0.74725350  0.12769400  1
  H  H46  1  0.93279250  0.33908350  0.15174700  1
  H  H47  1  0.90589400  0.24010500  0.03818100  1
  H  H48  1  0.83840450  0.56365450  0.15187300  1
  H  H49  1  0.74076500  0.59377300  0.03761400  1
  H  H50  1  0.15586800  0.43872200  0.14307000  1
  H  H51  1  0.24751400  0.29199700  0.12807000  1
  H  H52  1  0.16159550  0.56365450  0.34812700  1
  H  H53  1  0.25923500  0.59377300  0.46238600  1
  H  H54  1  0.84413200  0.43872200  0.35693000  1
  H  H55  1  0.75248600  0.29199700  0.37193000  1
  H  H56  1  0.06720750  0.33908350  0.34825300  1
  H  H57  1  0.09410600  0.24010500  0.46181900  1
  H  H58  1  0.79325550  0.74725350  0.37230600  1
  H  H59  1  0.94096000  0.65678200  0.35647000  1
  H  H60  1  0.79325550  0.25274650  0.87230600  1
  H  H61  1  0.94096000  0.34321800  0.85647000  1
  H  H62  1  0.06720750  0.66091650  0.84825300  1
  H  H63  1  0.09410600  0.75989500  0.96181900  1
  H  H64  1  0.16159550  0.43634550  0.84812700  1
  H  H65  1  0.25923500  0.40622700  0.96238600  1
  H  H66  1  0.75248600  0.70800300  0.87193000  1
  H  H67  1  0.84413200  0.56127800  0.85693000  1
  O  O68  1  0.49632450  0.00067950  0.68433500  1
  O  O69  1  0.49632450  0.99932050  0.18433500  1
  O  O70  1  0.50367550  0.99932050  0.31566500  1
  O  O71  1  0.50367550  0.00067950  0.81566500  1
  O  O72  1  0.24031950  0.89679550  0.62501200  1
  O  O73  1  0.75483650  0.10001350  0.61888300  1
  O  O74  1  0.39564700  0.25995500  0.62543100  1
  O  O75  1  0.59887350  0.74502450  0.61807500  1
  O  O76  1  0.59887350  0.25497550  0.11807500  1
  O  O77  1  0.39564700  0.74004500  0.12543100  1
  O  O78  1  0.24031950  0.10320450  0.12501200  1
  O  O79  1  0.75483650  0.89998650  0.11888300  1
  O  O80  1  0.75968050  0.10320450  0.37498800  1
  O  O81  1  0.24516350  0.89998650  0.38111700  1
  O  O82  1  0.60435300  0.74004500  0.37456900  1
  O  O83  1  0.40112650  0.25497550  0.38192500  1
  O  O84  1  0.40112650  0.74502450  0.88192500  1
  O  O85  1  0.60435300  0.25995500  0.87456900  1
  O  O86  1  0.75968050  0.89679550  0.87498800  1
  O  O87  1  0.24516350  0.10001350  0.88111700  1
  O  O88  1  0.99632450  0.50067950  0.68433500  1
  O  O89  1  0.99632450  0.49932050  0.18433500  1
  O  O90  1  0.00367550  0.49932050  0.31566500  1
  O  O91  1  0.00367550  0.50067950  0.81566500  1
  O  O92  1  0.74031950  0.39679550  0.62501200  1
  O  O93  1  0.25483650  0.60001350  0.61888300  1
  O  O94  1  0.89564700  0.75995500  0.62543100  1
  O  O95  1  0.09887350  0.24502450  0.61807500  1
  O  O96  1  0.09887350  0.75497550  0.11807500  1
  O  O97  1  0.89564700  0.24004500  0.12543100  1
  O  O98  1  0.74031950  0.60320450  0.12501200  1
  O  O99  1  0.25483650  0.39998650  0.11888300  1
  O  O100  1  0.25968050  0.60320450  0.37498800  1
  O  O101  1  0.74516350  0.39998650  0.38111700  1
  O  O102  1  0.10435300  0.24004500  0.37456900  1
  O  O103  1  0.90112650  0.75497550  0.38192500  1
  O  O104  1  0.90112650  0.24502450  0.88192500  1
  O  O105  1  0.10435300  0.75995500  0.87456900  1
  O  O106  1  0.25968050  0.39679550  0.87498800  1
  O  O107  1  0.74516350  0.60001350  0.88111700  1
