# generated using pymatgen
data_SiO2
_symmetry_space_group_name_H-M   'P 1'
_cell_length_a   7.23926600
_cell_length_b   7.23926600
_cell_length_c   12.20666600
_cell_angle_alpha   90.00000000
_cell_angle_beta   90.00000000
_cell_angle_gamma   90.00000000
_symmetry_Int_Tables_number   1
_chemical_formula_structural   SiO2
_chemical_formula_sum   'Si10 O20'
_cell_volume   639.71440595
_cell_formula_units_Z   10
loop_
 _symmetry_equiv_pos_site_id
 _symmetry_equiv_pos_as_xyz
  1  'x, y, z'
loop_
 _atom_site_type_symbol
 _atom_site_label
 _atom_site_symmetry_multiplicity
 _atom_site_fract_x
 _atom_site_fract_y
 _atom_site_fract_z
 _atom_site_occupancy
  Si  Si0  1  0.00000000  0.00000000  0.00000000  1
  Si  Si1  1  0.70640200  0.50000000  0.28858400  1
  Si  Si2  1  0.00000000  0.79359800  0.21141600  1
  Si  Si3  1  0.00000000  0.20640200  0.21141600  1
  Si  Si4  1  0.29359800  0.50000000  0.28858400  1
  Si  Si5  1  0.50000000  0.50000000  0.50000000  1
  Si  Si6  1  0.20640200  0.00000000  0.78858400  1
  Si  Si7  1  0.50000000  0.29359800  0.71141600  1
  Si  Si8  1  0.50000000  0.70640200  0.71141600  1
  Si  Si9  1  0.79359800  0.00000000  0.78858400  1
  O  O10  1  0.00000000  0.18389750  0.07772050  1
  O  O11  1  0.68389750  0.50000000  0.42227950  1
  O  O12  1  0.31610250  0.50000000  0.42227950  1
  O  O13  1  0.00000000  0.81610250  0.07772050  1
  O  O14  1  0.50000000  0.50000000  0.23482300  1
  O  O15  1  0.00000000  0.00000000  0.26517700  1
  O  O16  1  0.81606050  0.31606050  0.25000000  1
  O  O17  1  0.81606050  0.68393950  0.25000000  1
  O  O18  1  0.18393950  0.31606050  0.25000000  1
  O  O19  1  0.18393950  0.68393950  0.25000000  1
  O  O20  1  0.50000000  0.68389750  0.57772050  1
  O  O21  1  0.18389750  0.00000000  0.92227950  1
  O  O22  1  0.81610250  0.00000000  0.92227950  1
  O  O23  1  0.50000000  0.31610250  0.57772050  1
  O  O24  1  0.00000000  0.00000000  0.73482300  1
  O  O25  1  0.50000000  0.50000000  0.76517700  1
  O  O26  1  0.31606050  0.81606050  0.75000000  1
  O  O27  1  0.31606050  0.18393950  0.75000000  1
  O  O28  1  0.68393950  0.81606050  0.75000000  1
  O  O29  1  0.68393950  0.18393950  0.75000000  1
