# generated using pymatgen
data_AlPO4
_symmetry_space_group_name_H-M   'P 1'
_cell_length_a   8.63585600
_cell_length_b   14.02049100
_cell_length_c   24.36945300
_cell_angle_alpha   90.00000000
_cell_angle_beta   90.00000000
_cell_angle_gamma   90.00000000
_symmetry_Int_Tables_number   1
_chemical_formula_structural   AlPO4
_chemical_formula_sum   'Al24 P24 O96'
_cell_volume   2950.62756992
_cell_formula_units_Z   24
loop_
 _symmetry_equiv_pos_site_id
 _symmetry_equiv_pos_as_xyz
  1  'x, y, z'
loop_
 _atom_site_type_symbol
 _atom_site_label
 _atom_site_symmetry_multiplicity
 _atom_site_fract_x
 _atom_site_fract_y
 _atom_site_fract_z
 _atom_site_occupancy
  Al  Al0  1  0.99840300  0.20733500  0.66691200  1
  Al  Al1  1  0.01263100  0.39374600  0.06152300  1
  Al  Al2  1  0.99914600  0.88944600  0.77393000  1
  Al  Al3  1  0.00377000  0.29121300  0.83106200  1
  Al  Al4  1  0.48847400  0.89592000  0.43924900  1
  Al  Al5  1  0.00970800  0.39331400  0.27444200  1
  Al  Al6  1  0.50377000  0.29121300  0.16893800  1
  Al  Al7  1  0.49840300  0.79266500  0.66691200  1
  Al  Al8  1  0.99914600  0.11055400  0.22607000  1
  Al  Al9  1  0.51263100  0.60625400  0.06152300  1
  Al  Al10  1  0.49914600  0.11055400  0.77393000  1
  Al  Al11  1  0.50970800  0.39331400  0.72555800  1
  Al  Al12  1  0.50970800  0.60668600  0.27444200  1
  Al  Al13  1  0.99840300  0.79266500  0.33308800  1
  Al  Al14  1  0.98847400  0.10408000  0.43924900  1
  Al  Al15  1  0.49840300  0.20733500  0.33308800  1
  Al  Al16  1  0.00970800  0.60668600  0.72555800  1
  Al  Al17  1  0.01263100  0.60625400  0.93847700  1
  Al  Al18  1  0.00377000  0.70878700  0.16893800  1
  Al  Al19  1  0.49914600  0.88944600  0.22607000  1
  Al  Al20  1  0.51263100  0.39374600  0.93847700  1
  Al  Al21  1  0.50377000  0.70878700  0.83106200  1
  Al  Al22  1  0.98847400  0.89592000  0.56075100  1
  Al  Al23  1  0.48847400  0.10408000  0.56075100  1
  P  P24  1  0.12513500  0.20910200  0.33578100  1
  P  P25  1  0.13333000  0.39017100  0.93801800  1
  P  P26  1  0.12131500  0.10374200  0.77529600  1
  P  P27  1  0.13333000  0.60982900  0.06198200  1
  P  P28  1  0.61505800  0.89278700  0.56042200  1
  P  P29  1  0.62513500  0.20910200  0.66421900  1
  P  P30  1  0.62131500  0.89625800  0.77529600  1
  P  P31  1  0.13165600  0.70606900  0.83172800  1
  P  P32  1  0.63672200  0.39200000  0.27527100  1
  P  P33  1  0.63333000  0.60982900  0.93801800  1
  P  P34  1  0.12131500  0.89625800  0.22470400  1
  P  P35  1  0.61505800  0.10721300  0.43957800  1
  P  P36  1  0.13165600  0.29393100  0.16827200  1
  P  P37  1  0.12513500  0.79089800  0.66421900  1
  P  P38  1  0.11505800  0.10721300  0.56042200  1
  P  P39  1  0.63165600  0.70606900  0.16827200  1
  P  P40  1  0.62513500  0.79089800  0.33578100  1
  P  P41  1  0.63165600  0.29393100  0.83172800  1
  P  P42  1  0.63333000  0.39017100  0.06198200  1
  P  P43  1  0.11505800  0.89278700  0.43957800  1
  P  P44  1  0.13672200  0.39200000  0.72472900  1
  P  P45  1  0.63672200  0.60800000  0.72472900  1
  P  P46  1  0.13672200  0.60800000  0.27527100  1
  P  P47  1  0.62131500  0.10374200  0.22470400  1
  O  O48  1  0.57700400  0.81460900  0.60234700  1
  O  O49  1  0.54666100  0.01146200  0.42058100  1
  O  O50  1  0.60435500  0.63399300  0.78515100  1
  O  O51  1  0.10435500  0.36600700  0.78515100  1
  O  O52  1  0.59671300  0.68501900  0.10793200  1
  O  O53  1  0.56115400  0.31787800  0.10182900  1
  O  O54  1  0.07809900  0.49103800  0.92295000  1
  O  O55  1  0.04797200  0.32367600  0.68655200  1
  O  O56  1  0.80542100  0.30848000  0.82044400  1
  O  O57  1  0.60107300  0.68568200  0.31987600  1
  O  O58  1  0.05143500  0.13817000  0.50441100  1
  O  O59  1  0.07700400  0.18539100  0.60234700  1
  O  O60  1  0.10107300  0.31431800  0.31987600  1
  O  O61  1  0.79006300  0.09626700  0.44403700  1
  O  O62  1  0.07055400  0.12730000  0.71621700  1
  O  O63  1  0.05046600  0.85713100  0.70716400  1
  O  O64  1  0.10107300  0.68568200  0.68012400  1
  O  O65  1  0.04666100  0.01146200  0.57941900  1
  O  O66  1  0.03987700  0.63657900  0.79495500  1
  O  O67  1  0.79806200  0.88630800  0.77977000  1
  O  O68  1  0.57700400  0.18539100  0.39765300  1
  O  O69  1  0.54797200  0.32367600  0.31344800  1
  O  O70  1  0.53987700  0.63657900  0.20504500  1
  O  O71  1  0.55143500  0.13817000  0.49558900  1
  O  O72  1  0.57055400  0.87270000  0.71621700  1
  O  O73  1  0.04440700  0.82884700  0.18305400  1
  O  O74  1  0.55046600  0.85713100  0.29283600  1
  O  O75  1  0.54440700  0.82884700  0.81694600  1
  O  O76  1  0.05025700  0.81040300  0.60835500  1
  O  O77  1  0.60435500  0.36600700  0.21484900  1
  O  O78  1  0.04797200  0.67632400  0.31344800  1
  O  O79  1  0.30542100  0.30848000  0.17955600  1
  O  O80  1  0.29806200  0.88630800  0.22023000  1
  O  O81  1  0.29806200  0.11369200  0.77977000  1
  O  O82  1  0.79006300  0.90373300  0.55596300  1
  O  O83  1  0.07700400  0.81460900  0.39765300  1
  O  O84  1  0.04666100  0.98853800  0.42058100  1
  O  O85  1  0.54666100  0.98853800  0.57941900  1
  O  O86  1  0.58586300  0.19009700  0.82006700  1
  O  O87  1  0.08116500  0.63718400  0.00363200  1
  O  O88  1  0.31071700  0.38702500  0.93412600  1
  O  O89  1  0.55025700  0.81040300  0.39164500  1
  O  O90  1  0.81098800  0.38485900  0.28646200  1
  O  O91  1  0.07809900  0.50896200  0.07705000  1
  O  O92  1  0.81071700  0.38702500  0.06587400  1
  O  O93  1  0.08586300  0.80990300  0.82006700  1
  O  O94  1  0.53987700  0.36342100  0.79495500  1
  O  O95  1  0.05046600  0.14286900  0.29283600  1
  O  O96  1  0.55025700  0.18959700  0.60835500  1
  O  O97  1  0.09671300  0.31498100  0.10793200  1
  O  O98  1  0.07220700  0.00181900  0.78982400  1
  O  O99  1  0.29006300  0.09626700  0.55596300  1
  O  O100  1  0.08381500  0.50601700  0.28809600  1
  O  O101  1  0.54797200  0.67632400  0.68655200  1
  O  O102  1  0.08381500  0.49398300  0.71190400  1
  O  O103  1  0.31098800  0.38485900  0.71353800  1
  O  O104  1  0.80542100  0.69152000  0.17955600  1
  O  O105  1  0.06115400  0.31787800  0.89817100  1
  O  O106  1  0.03987700  0.36342100  0.20504500  1
  O  O107  1  0.29932500  0.81151300  0.66122600  1
  O  O108  1  0.05025700  0.18959700  0.39164500  1
  O  O109  1  0.81071700  0.61297500  0.93412600  1
  O  O110  1  0.57809900  0.49103800  0.07705000  1
  O  O111  1  0.31071700  0.61297500  0.06587400  1
  O  O112  1  0.07055400  0.87270000  0.28378300  1
  O  O113  1  0.07220700  0.99818100  0.21017600  1
  O  O114  1  0.57809900  0.50896200  0.92295000  1
  O  O115  1  0.60107300  0.31431800  0.68012400  1
  O  O116  1  0.79806200  0.11369200  0.22023000  1
  O  O117  1  0.05143500  0.86183000  0.49558900  1
  O  O118  1  0.56115400  0.68212200  0.89817100  1
  O  O119  1  0.55046600  0.14286900  0.70716400  1
  O  O120  1  0.08586300  0.19009700  0.17993300  1
  O  O121  1  0.59671300  0.31498100  0.89206800  1
  O  O122  1  0.58116500  0.36281600  0.00363200  1
  O  O123  1  0.29932500  0.18848700  0.33877400  1
  O  O124  1  0.31098800  0.61514100  0.28646200  1
  O  O125  1  0.57220700  0.00181900  0.21017600  1
  O  O126  1  0.57055400  0.12730000  0.28378300  1
  O  O127  1  0.06115400  0.68212200  0.10182900  1
  O  O128  1  0.58381500  0.50601700  0.71190400  1
  O  O129  1  0.79932500  0.81151300  0.33877400  1
  O  O130  1  0.57220700  0.99818100  0.78982400  1
  O  O131  1  0.08116500  0.36281600  0.99636800  1
  O  O132  1  0.81098800  0.61514100  0.71353800  1
  O  O133  1  0.58586300  0.80990300  0.17993300  1
  O  O134  1  0.29006300  0.90373300  0.44403700  1
  O  O135  1  0.10435500  0.63399300  0.21484900  1
  O  O136  1  0.09671300  0.68501900  0.89206800  1
  O  O137  1  0.55143500  0.86183000  0.50441100  1
  O  O138  1  0.58381500  0.49398300  0.28809600  1
  O  O139  1  0.30542100  0.69152000  0.82044400  1
  O  O140  1  0.04440700  0.17115300  0.81694600  1
  O  O141  1  0.54440700  0.17115300  0.18305400  1
  O  O142  1  0.58116500  0.63718400  0.99636800  1
  O  O143  1  0.79932500  0.18848700  0.66122600  1
