# generated using pymatgen
data_Cr(PO4)2
_symmetry_space_group_name_H-M   'P 1'
_cell_length_a   4.77606600
_cell_length_b   8.94664000
_cell_length_c   14.34762797
_cell_angle_alpha   90.00000000
_cell_angle_beta   93.93837810
_cell_angle_gamma   90.00000000
_symmetry_Int_Tables_number   1
_chemical_formula_structural   Cr(PO4)2
_chemical_formula_sum   'Cr4 P8 O32'
_cell_volume   611.62268964
_cell_formula_units_Z   4
loop_
 _symmetry_equiv_pos_site_id
 _symmetry_equiv_pos_as_xyz
  1  'x, y, z'
loop_
 _atom_site_type_symbol
 _atom_site_label
 _atom_site_symmetry_multiplicity
 _atom_site_fract_x
 _atom_site_fract_y
 _atom_site_fract_z
 _atom_site_occupancy
  Cr  Cr0  1  0.36175100  0.06713900  0.15575000  1
  Cr  Cr1  1  0.63824900  0.93286100  0.84425000  1
  Cr  Cr2  1  0.63824900  0.56713900  0.34425000  1
  Cr  Cr3  1  0.36175100  0.43286100  0.65575000  1
  P  P4  1  0.15129300  0.39988500  0.23473400  1
  P  P5  1  0.84870700  0.89988500  0.26526600  1
  P  P6  1  0.86601500  0.22177700  0.57219500  1
  P  P7  1  0.84870700  0.60011500  0.76526600  1
  P  P8  1  0.13398500  0.72177700  0.92780500  1
  P  P9  1  0.86601500  0.27822300  0.07219500  1
  P  P10  1  0.15129300  0.10011500  0.73473400  1
  P  P11  1  0.13398500  0.77822300  0.42780500  1
  O  O12  1  0.73865900  0.33399600  0.97891700  1
  O  O13  1  0.63510800  0.21825500  0.13277100  1
  O  O14  1  0.04796000  0.54530800  0.69358400  1
  O  O15  1  0.95204000  0.04530800  0.80641600  1
  O  O16  1  0.22632000  0.26431000  0.74939000  1
  O  O17  1  0.22632000  0.23569000  0.24939000  1
  O  O18  1  0.04796000  0.95469200  0.19358400  1
  O  O19  1  0.52582600  0.44664900  0.41411700  1
  O  O20  1  0.36489200  0.71825500  0.36722900  1
  O  O21  1  0.10266300  0.16397000  0.06278200  1
  O  O22  1  0.99812700  0.41881200  0.13138100  1
  O  O23  1  0.36489200  0.78174500  0.86722900  1
  O  O24  1  0.00187300  0.58118800  0.86861900  1
  O  O25  1  0.89733700  0.66397000  0.43721800  1
  O  O26  1  0.73865900  0.16600400  0.47891700  1
  O  O27  1  0.00187300  0.91881200  0.36861900  1
  O  O28  1  0.10266300  0.33603000  0.56278200  1
  O  O29  1  0.41198000  0.99726800  0.73440700  1
  O  O30  1  0.58802000  0.49726800  0.76559300  1
  O  O31  1  0.58802000  0.00273200  0.26559300  1
  O  O32  1  0.95204000  0.45469200  0.30641600  1
  O  O33  1  0.77368000  0.73569000  0.25061000  1
  O  O34  1  0.26134100  0.83399600  0.52108300  1
  O  O35  1  0.63510800  0.28174500  0.63277100  1
  O  O36  1  0.52582600  0.05335100  0.91411700  1
  O  O37  1  0.26134100  0.66600400  0.02108300  1
  O  O38  1  0.99812700  0.08118800  0.63138100  1
  O  O39  1  0.89733700  0.83603000  0.93721800  1
  O  O40  1  0.77368000  0.76431000  0.75061000  1
  O  O41  1  0.47417400  0.94664900  0.08588300  1
  O  O42  1  0.47417400  0.55335100  0.58588300  1
  O  O43  1  0.41198000  0.50273200  0.23440700  1
