# generated using pymatgen
data_B5H9
_symmetry_space_group_name_H-M   'P 1'
_cell_length_a   7.30033200
_cell_length_b   7.30033200
_cell_length_c   5.33308200
_cell_angle_alpha   90.00000000
_cell_angle_beta   90.00000000
_cell_angle_gamma   90.00000000
_symmetry_Int_Tables_number   1
_chemical_formula_structural   B5H9
_chemical_formula_sum   'B10 H18'
_cell_volume   284.22579088
_cell_formula_units_Z   2
loop_
 _symmetry_equiv_pos_site_id
 _symmetry_equiv_pos_as_xyz
  1  'x, y, z'
loop_
 _atom_site_type_symbol
 _atom_site_label
 _atom_site_symmetry_multiplicity
 _atom_site_fract_x
 _atom_site_fract_y
 _atom_site_fract_z
 _atom_site_occupancy
  B  B0  1  0.00000000  0.00000000  0.22993400  1
  B  B1  1  0.50000000  0.32693600  0.51779800  1
  B  B2  1  0.50000000  0.67306400  0.51779800  1
  B  B3  1  0.82693600  0.00000000  0.01779800  1
  B  B4  1  0.17306400  0.00000000  0.01779800  1
  B  B5  1  0.50000000  0.50000000  0.72993400  1
  B  B6  1  0.00000000  0.82693600  0.01779800  1
  B  B7  1  0.00000000  0.17306400  0.01779800  1
  B  B8  1  0.32693600  0.50000000  0.51779800  1
  B  B9  1  0.67306400  0.50000000  0.51779800  1
  H  H10  1  0.00000000  0.00000000  0.45256800  1
  H  H11  1  0.50000000  0.16553950  0.54536450  1
  H  H12  1  0.50000000  0.83446050  0.54536450  1
  H  H13  1  0.66553950  0.00000000  0.04536450  1
  H  H14  1  0.33446050  0.00000000  0.04536450  1
  H  H15  1  0.13353850  0.86646150  0.85046250  1
  H  H16  1  0.36646150  0.63353850  0.35046250  1
  H  H17  1  0.13353850  0.13353850  0.85046250  1
  H  H18  1  0.36646150  0.36646150  0.35046250  1
  H  H19  1  0.50000000  0.50000000  0.95256800  1
  H  H20  1  0.00000000  0.66553950  0.04536450  1
  H  H21  1  0.00000000  0.33446050  0.04536450  1
  H  H22  1  0.16553950  0.50000000  0.54536450  1
  H  H23  1  0.83446050  0.50000000  0.54536450  1
  H  H24  1  0.63353850  0.36646150  0.35046250  1
  H  H25  1  0.86646150  0.13353850  0.85046250  1
  H  H26  1  0.63353850  0.63353850  0.35046250  1
  H  H27  1  0.86646150  0.86646150  0.85046250  1
