# generated using pymatgen
data_Nd2Mo2O7
_symmetry_space_group_name_H-M   'P 1'
_cell_length_a   7.52107400
_cell_length_b   7.52107400
_cell_length_c   10.61961400
_cell_angle_alpha   90.00000000
_cell_angle_beta   90.00000000
_cell_angle_gamma   90.00000000
_symmetry_Int_Tables_number   1
_chemical_formula_structural   Nd2Mo2O7
_chemical_formula_sum   'Nd8 Mo8 O28'
_cell_volume   600.71497000
_cell_formula_units_Z   4
loop_
 _symmetry_equiv_pos_site_id
 _symmetry_equiv_pos_as_xyz
  1  'x, y, z'
loop_
 _atom_site_type_symbol
 _atom_site_label
 _atom_site_symmetry_multiplicity
 _atom_site_fract_x
 _atom_site_fract_y
 _atom_site_fract_z
 _atom_site_occupancy
  Nd  Nd0  1  0.50000000  0.25000000  0.12500000  1
  Nd  Nd1  1  0.25000000  0.00000000  0.37500000  1
  Nd  Nd2  1  0.00000000  0.25000000  0.62500000  1
  Nd  Nd3  1  0.25000000  0.50000000  0.87500000  1
  Nd  Nd4  1  0.00000000  0.75000000  0.62500000  1
  Nd  Nd5  1  0.75000000  0.50000000  0.87500000  1
  Nd  Nd6  1  0.50000000  0.75000000  0.12500000  1
  Nd  Nd7  1  0.75000000  0.00000000  0.37500000  1
  Mo  Mo8  1  0.25000000  0.50000000  0.37500000  1
  Mo  Mo9  1  0.00000000  0.25000000  0.12500000  1
  Mo  Mo10  1  0.75000000  0.50000000  0.37500000  1
  Mo  Mo11  1  0.00000000  0.75000000  0.12500000  1
  Mo  Mo12  1  0.75000000  0.00000000  0.87500000  1
  Mo  Mo13  1  0.50000000  0.75000000  0.62500000  1
  Mo  Mo14  1  0.25000000  0.00000000  0.87500000  1
  Mo  Mo15  1  0.50000000  0.25000000  0.62500000  1
  O  O16  1  0.20873850  0.79110750  0.99425050  1
  O  O17  1  0.20873850  0.29110750  0.25574950  1
  O  O18  1  0.00000000  0.00000000  0.20812300  1
  O  O19  1  0.00000000  0.50000000  0.45812300  1
  O  O20  1  0.29110750  0.29126150  0.50574950  1
  O  O21  1  0.79110750  0.29126150  0.24425050  1
  O  O22  1  0.50000000  0.00000000  0.25000000  1
  O  O23  1  0.20889250  0.70873850  0.24425050  1
  O  O24  1  0.79126150  0.70889250  0.25574950  1
  O  O25  1  0.00000000  0.50000000  0.04187700  1
  O  O26  1  0.20889250  0.20873850  0.00574950  1
  O  O27  1  0.00000000  0.00000000  0.50000000  1
  O  O28  1  0.00000000  0.00000000  0.79187700  1
  O  O29  1  0.29126150  0.70889250  0.49425050  1
  O  O30  1  0.70873850  0.29110750  0.49425050  1
  O  O31  1  0.70873850  0.79110750  0.75574950  1
  O  O32  1  0.50000000  0.50000000  0.70812300  1
  O  O33  1  0.50000000  0.00000000  0.95812300  1
  O  O34  1  0.79110750  0.79126150  0.00574950  1
  O  O35  1  0.29110750  0.79126150  0.74425050  1
  O  O36  1  0.00000000  0.50000000  0.75000000  1
  O  O37  1  0.70889250  0.20873850  0.74425050  1
  O  O38  1  0.29126150  0.20889250  0.75574950  1
  O  O39  1  0.50000000  0.00000000  0.54187700  1
  O  O40  1  0.70889250  0.70873850  0.50574950  1
  O  O41  1  0.50000000  0.50000000  0.00000000  1
  O  O42  1  0.50000000  0.50000000  0.29187700  1
  O  O43  1  0.79126150  0.20889250  0.99425050  1
