# generated using pymatgen
data_SiO2
_symmetry_space_group_name_H-M   'P 1'
_cell_length_a   6.46920500
_cell_length_b   6.95978900
_cell_length_c   13.91871800
_cell_angle_alpha   90.00000000
_cell_angle_beta   90.00000000
_cell_angle_gamma   90.00000000
_symmetry_Int_Tables_number   1
_chemical_formula_structural   SiO2
_chemical_formula_sum   'Si10 O20'
_cell_volume   626.68055987
_cell_formula_units_Z   10
loop_
 _symmetry_equiv_pos_site_id
 _symmetry_equiv_pos_as_xyz
  1  'x, y, z'
loop_
 _atom_site_type_symbol
 _atom_site_label
 _atom_site_symmetry_multiplicity
 _atom_site_fract_x
 _atom_site_fract_y
 _atom_site_fract_z
 _atom_site_occupancy
  Si  Si0  1  0.50062100  0.00000000  0.88472800  1
  Si  Si1  1  0.49937900  0.00000000  0.38472800  1
  Si  Si2  1  0.49937900  0.00000000  0.11527200  1
  Si  Si3  1  0.50062100  0.00000000  0.61527200  1
  Si  Si4  1  0.26245500  0.26948700  0.75000000  1
  Si  Si5  1  0.73754500  0.73051300  0.25000000  1
  Si  Si6  1  0.73754500  0.26948700  0.25000000  1
  Si  Si7  1  0.26245500  0.73051300  0.75000000  1
  Si  Si8  1  0.88159400  0.00000000  0.75000000  1
  Si  Si9  1  0.11840600  0.00000000  0.25000000  1
  O  O10  1  0.50000000  0.00000000  0.00000000  1
  O  O11  1  0.50000000  0.00000000  0.50000000  1
  O  O12  1  0.38168300  0.19251200  0.84620300  1
  O  O13  1  0.61831700  0.80748800  0.34620300  1
  O  O14  1  0.61831700  0.19251200  0.15379700  1
  O  O15  1  0.38168300  0.80748800  0.65379700  1
  O  O16  1  0.61831700  0.80748800  0.15379700  1
  O  O17  1  0.38168300  0.19251200  0.65379700  1
  O  O18  1  0.38168300  0.80748800  0.84620300  1
  O  O19  1  0.61831700  0.19251200  0.34620300  1
  O  O20  1  0.73875100  0.00000000  0.84642100  1
  O  O21  1  0.26124900  0.00000000  0.34642100  1
  O  O22  1  0.26124900  0.00000000  0.15357900  1
  O  O23  1  0.73875100  0.00000000  0.65357900  1
  O  O24  1  0.26155300  0.50000000  0.75000000  1
  O  O25  1  0.73844700  0.50000000  0.25000000  1
  O  O26  1  0.02447100  0.19265000  0.75000000  1
  O  O27  1  0.97552900  0.80735000  0.25000000  1
  O  O28  1  0.97552900  0.19265000  0.25000000  1
  O  O29  1  0.02447100  0.80735000  0.75000000  1
