# generated using pymatgen
data_Nb4Te17I4
_symmetry_space_group_name_H-M   'P 1'
_cell_length_a   16.70804800
_cell_length_b   8.56816400
_cell_length_c   27.12253731
_cell_angle_alpha   90.00000000
_cell_angle_beta   104.82788833
_cell_angle_gamma   90.00000000
_symmetry_Int_Tables_number   1
_chemical_formula_structural   Nb4Te17I4
_chemical_formula_sum   'Nb16 Te68 I16'
_cell_volume   3753.48808326
_cell_formula_units_Z   4
loop_
 _symmetry_equiv_pos_site_id
 _symmetry_equiv_pos_as_xyz
  1  'x, y, z'
loop_
 _atom_site_type_symbol
 _atom_site_label
 _atom_site_symmetry_multiplicity
 _atom_site_fract_x
 _atom_site_fract_y
 _atom_site_fract_z
 _atom_site_occupancy
  Nb  Nb0  1  0.30937400  0.21573800  0.55750100  1
  Nb  Nb1  1  0.69062600  0.78426200  0.44249900  1
  Nb  Nb2  1  0.42268350  0.80301650  0.17173500  1
  Nb  Nb3  1  0.30937400  0.78426200  0.05750100  1
  Nb  Nb4  1  0.57731650  0.80301650  0.32826500  1
  Nb  Nb5  1  0.69062600  0.21573800  0.94249900  1
  Nb  Nb6  1  0.42268350  0.19698350  0.67173500  1
  Nb  Nb7  1  0.57731650  0.19698350  0.82826500  1
  Nb  Nb8  1  0.80937400  0.71573800  0.55750100  1
  Nb  Nb9  1  0.19062600  0.28426200  0.44249900  1
  Nb  Nb10  1  0.92268350  0.30301650  0.17173500  1
  Nb  Nb11  1  0.80937400  0.28426200  0.05750100  1
  Nb  Nb12  1  0.07731650  0.30301650  0.32826500  1
  Nb  Nb13  1  0.19062600  0.71573800  0.94249900  1
  Nb  Nb14  1  0.92268350  0.69698350  0.67173500  1
  Nb  Nb15  1  0.07731650  0.69698350  0.82826500  1
  Te  Te16  1  0.43821400  0.01832500  0.09253100  1
  Te  Te17  1  0.36801050  0.29310450  0.47025600  1
  Te  Te18  1  0.22536850  0.12956350  0.35424900  1
  Te  Te19  1  0.13198950  0.79310450  0.02974400  1
  Te  Te20  1  0.56178600  0.98167500  0.90746900  1
  Te  Te21  1  0.19919150  0.53256250  0.36754400  1
  Te  Te22  1  0.40391400  0.79100400  0.27533000  1
  Te  Te23  1  0.27761100  0.48332500  0.01001300  1
  Te  Te24  1  0.42321000  0.46261800  0.17858200  1
  Te  Te25  1  0.50000000  0.95533400  0.75000000  1
  Te  Te26  1  0.27761100  0.51667500  0.51001300  1
  Te  Te27  1  0.52869550  0.62381050  0.40036200  1
  Te  Te28  1  0.80080850  0.46743750  0.63245600  1
  Te  Te29  1  0.43821400  0.98167500  0.59253100  1
  Te  Te30  1  0.72238900  0.48332500  0.48998700  1
  Te  Te31  1  0.57679000  0.53738200  0.82141800  1
  Te  Te32  1  0.57679000  0.46261800  0.32141800  1
  Te  Te33  1  0.40391400  0.20899600  0.77533000  1
  Te  Te34  1  0.50000000  0.04466600  0.25000000  1
  Te  Te35  1  0.59608600  0.79100400  0.22467000  1
  Te  Te36  1  0.30080850  0.03256250  0.13245600  1
  Te  Te37  1  0.42321000  0.53738200  0.67858200  1
  Te  Te38  1  0.72238900  0.51667500  0.98998700  1
  Te  Te39  1  0.59608600  0.20899600  0.72467000  1
  Te  Te40  1  0.63198950  0.70689550  0.52974400  1
  Te  Te41  1  0.86801050  0.20689550  0.97025600  1
  Te  Te42  1  0.27463150  0.62956350  0.14575100  1
  Te  Te43  1  0.47130450  0.62381050  0.09963800  1
  Te  Te44  1  0.72536850  0.37043650  0.85424900  1
  Te  Te45  1  0.69919150  0.96743750  0.86754400  1
  Te  Te46  1  0.47130450  0.37618950  0.59963800  1
  Te  Te47  1  0.56178600  0.01832500  0.40746900  1
  Te  Te48  1  0.52869550  0.37618950  0.90036200  1
  Te  Te49  1  0.77463150  0.87043650  0.64575100  1
  Te  Te50  1  0.93821400  0.51832500  0.09253100  1
  Te  Te51  1  0.86801050  0.79310450  0.47025600  1
  Te  Te52  1  0.72536850  0.62956350  0.35424900  1
  Te  Te53  1  0.63198950  0.29310450  0.02974400  1
  Te  Te54  1  0.06178600  0.48167500  0.90746900  1
  Te  Te55  1  0.69919150  0.03256250  0.36754400  1
  Te  Te56  1  0.90391400  0.29100400  0.27533000  1
  Te  Te57  1  0.77761100  0.98332500  0.01001300  1
  Te  Te58  1  0.92321000  0.96261800  0.17858200  1
  Te  Te59  1  0.00000000  0.45533400  0.75000000  1
  Te  Te60  1  0.77761100  0.01667500  0.51001300  1
  Te  Te61  1  0.02869550  0.12381050  0.40036200  1
  Te  Te62  1  0.30080850  0.96743750  0.63245600  1
  Te  Te63  1  0.93821400  0.48167500  0.59253100  1
  Te  Te64  1  0.22238900  0.98332500  0.48998700  1
  Te  Te65  1  0.07679000  0.03738200  0.82141800  1
  Te  Te66  1  0.07679000  0.96261800  0.32141800  1
  Te  Te67  1  0.90391400  0.70899600  0.77533000  1
  Te  Te68  1  0.00000000  0.54466600  0.25000000  1
  Te  Te69  1  0.09608600  0.29100400  0.22467000  1
  Te  Te70  1  0.80080850  0.53256250  0.13245600  1
  Te  Te71  1  0.92321000  0.03738200  0.67858200  1
  Te  Te72  1  0.22238900  0.01667500  0.98998700  1
  Te  Te73  1  0.09608600  0.70899600  0.72467000  1
  Te  Te74  1  0.13198950  0.20689550  0.52974400  1
  Te  Te75  1  0.36801050  0.70689550  0.97025600  1
  Te  Te76  1  0.77463150  0.12956350  0.14575100  1
  Te  Te77  1  0.97130450  0.12381050  0.09963800  1
  Te  Te78  1  0.22536850  0.87043650  0.85424900  1
  Te  Te79  1  0.19919150  0.46743750  0.86754400  1
  Te  Te80  1  0.97130450  0.87618950  0.59963800  1
  Te  Te81  1  0.06178600  0.51832500  0.40746900  1
  Te  Te82  1  0.02869550  0.87618950  0.90036200  1
  Te  Te83  1  0.27463150  0.37043650  0.64575100  1
  I  I84  1  0.39494650  0.86741950  0.44434600  1
  I  I85  1  0.35287250  0.44811850  0.29482900  1
  I  I86  1  0.14712750  0.94811850  0.20517100  1
  I  I87  1  0.10505350  0.36741950  0.05565400  1
  I  I88  1  0.89494650  0.63258050  0.94434600  1
  I  I89  1  0.64712750  0.55188150  0.70517100  1
  I  I90  1  0.85287250  0.05188150  0.79482900  1
  I  I91  1  0.60505350  0.13258050  0.55565400  1
  I  I92  1  0.89494650  0.36741950  0.44434600  1
  I  I93  1  0.85287250  0.94811850  0.29482900  1
  I  I94  1  0.64712750  0.44811850  0.20517100  1
  I  I95  1  0.60505350  0.86741950  0.05565400  1
  I  I96  1  0.39494650  0.13258050  0.94434600  1
  I  I97  1  0.14712750  0.05188150  0.70517100  1
  I  I98  1  0.35287250  0.55188150  0.79482900  1
  I  I99  1  0.10505350  0.63258050  0.55565400  1
