# generated using pymatgen
data_Sr(PN2)2
_symmetry_space_group_name_H-M   'P 1'
_cell_length_a   17.25291788
_cell_length_b   17.25291788
_cell_length_c   8.18978000
_cell_angle_alpha   90.00000000
_cell_angle_beta   90.00000000
_cell_angle_gamma   120.00000000
_symmetry_Int_Tables_number   1
_chemical_formula_structural   Sr(PN2)2
_chemical_formula_sum   'Sr24 P48 N96'
_cell_volume   2111.19319629
_cell_formula_units_Z   24
loop_
 _symmetry_equiv_pos_site_id
 _symmetry_equiv_pos_as_xyz
  1  'x, y, z'
loop_
 _atom_site_type_symbol
 _atom_site_label
 _atom_site_symmetry_multiplicity
 _atom_site_fract_x
 _atom_site_fract_y
 _atom_site_fract_z
 _atom_site_occupancy
  Sr  Sr0  1  0.15139500  0.81821600  0.81834300  1
  Sr  Sr1  1  0.33333333  0.66666667  0.79962900  1
  Sr  Sr2  1  0.66682100  0.84860500  0.81834300  1
  Sr  Sr3  1  0.47671200  0.99576900  0.32605600  1
  Sr  Sr4  1  0.52328800  0.00423100  0.82605600  1
  Sr  Sr5  1  0.00000000  0.00000000  0.84580300  1
  Sr  Sr6  1  0.66666667  0.33333333  0.79865900  1
  Sr  Sr7  1  0.66666667  0.33333333  0.29962900  1
  Sr  Sr8  1  0.81821600  0.66682100  0.31834300  1
  Sr  Sr9  1  0.51905700  0.52328800  0.32605600  1
  Sr  Sr10  1  0.33317900  0.15139500  0.31834300  1
  Sr  Sr11  1  0.00423100  0.48094300  0.32605600  1
  Sr  Sr12  1  0.00000000  0.00000000  0.34580300  1
  Sr  Sr13  1  0.48094300  0.47671200  0.82605600  1
  Sr  Sr14  1  0.18178400  0.33317900  0.81834300  1
  Sr  Sr15  1  0.19162100  0.86026300  0.31750700  1
  Sr  Sr16  1  0.80837900  0.13973700  0.81750700  1
  Sr  Sr17  1  0.86026300  0.66864200  0.81750700  1
  Sr  Sr18  1  0.13973700  0.33135800  0.31750700  1
  Sr  Sr19  1  0.66864200  0.80837900  0.31750700  1
  Sr  Sr20  1  0.33135800  0.19162100  0.81750700  1
  Sr  Sr21  1  0.84860500  0.18178400  0.31834300  1
  Sr  Sr22  1  0.33333333  0.66666667  0.29865900  1
  Sr  Sr23  1  0.99576900  0.51905700  0.82605600  1
  P  P24  1  0.32948800  0.99971700  0.62955800  1
  P  P25  1  0.84135600  0.83475900  0.63159300  1
  P  P26  1  0.49475600  0.66003500  0.63204500  1
  P  P27  1  0.00028300  0.32977100  0.62955800  1
  P  P28  1  0.66421800  0.99895400  0.51424800  1
  P  P29  1  0.83594500  0.49191500  0.51270000  1
  P  P30  1  0.33473600  0.33578200  0.51424800  1
  P  P31  1  0.82618400  0.32617800  0.01214700  1
  P  P32  1  0.83472100  0.49475600  0.13204500  1
  P  P33  1  0.99895400  0.33473600  0.01424800  1
  P  P34  1  0.49518700  0.17263900  0.63123400  1
  P  P35  1  0.50000600  0.82618400  0.51214700  1
  P  P36  1  0.16405500  0.50808500  0.01270000  1
  P  P37  1  0.50481300  0.82736100  0.13123400  1
  P  P38  1  0.00104600  0.66526400  0.51424800  1
  P  P39  1  0.82736100  0.32254800  0.63123400  1
  P  P40  1  0.49999400  0.17381600  0.01214700  1
  P  P41  1  0.33578200  0.00104600  0.01424800  1
  P  P42  1  0.99347000  0.16158500  0.01199900  1
  P  P43  1  0.67745200  0.50481300  0.63123400  1
  P  P44  1  0.15864400  0.16524100  0.13159300  1
  P  P45  1  0.16811500  0.00653000  0.01199900  1
  P  P46  1  0.17381600  0.67382200  0.51214700  1
  P  P47  1  0.33996500  0.83472100  0.63204500  1
  P  P48  1  0.00653000  0.83841500  0.51199900  1
  P  P49  1  0.83841500  0.83188500  0.01199900  1
  P  P50  1  0.65597000  0.16405500  0.51270000  1
  P  P51  1  0.50524400  0.33996500  0.13204500  1
  P  P52  1  0.16158500  0.16811500  0.51199900  1
  P  P53  1  0.83475900  0.99340300  0.13159300  1
  P  P54  1  0.16524100  0.00659700  0.63159300  1
  P  P55  1  0.83188500  0.99347000  0.51199900  1
  P  P56  1  0.32977100  0.32948800  0.12955800  1
  P  P57  1  0.16527900  0.50524400  0.63204500  1
  P  P58  1  0.66526400  0.66421800  0.01424800  1
  P  P59  1  0.34403000  0.83594500  0.01270000  1
  P  P60  1  0.32254800  0.49518700  0.13123400  1
  P  P61  1  0.67382200  0.50000600  0.01214700  1
  P  P62  1  0.32617800  0.49999400  0.51214700  1
  P  P63  1  0.49191500  0.65597000  0.01270000  1
  P  P64  1  0.66003500  0.16527900  0.13204500  1
  P  P65  1  0.50808500  0.34403000  0.51270000  1
  P  P66  1  0.67051200  0.00028300  0.12955800  1
  P  P67  1  0.99340300  0.15864400  0.63159300  1
  P  P68  1  0.17263900  0.67745200  0.13123400  1
  P  P69  1  0.99971700  0.67022900  0.12955800  1
  P  P70  1  0.67022900  0.67051200  0.62955800  1
  P  P71  1  0.00659700  0.84135600  0.13159300  1
  N  N72  1  0.33228900  0.00041100  0.82133200  1
  N  N73  1  0.33187800  0.33228900  0.32133200  1
  N  N74  1  0.29046300  0.48309900  0.32318800  1
  N  N75  1  0.93078900  0.36961300  0.07685200  1
  N  N76  1  0.93066900  0.57106600  0.05082500  1
  N  N77  1  0.40499000  0.30475300  0.58235200  1
  N  N78  1  0.57106600  0.64039700  0.55082500  1
  N  N79  1  0.90362100  0.10098400  0.51919800  1
  N  N80  1  0.06921100  0.63038700  0.57685200  1
  N  N81  1  0.48309900  0.19263600  0.82318800  1
  N  N82  1  0.81839600  0.95899600  0.32182400  1
  N  N83  1  0.70449300  0.60395400  0.55338700  1
  N  N84  1  0.52756000  0.76684100  0.62934300  1
  N  N85  1  0.56460600  0.13427100  0.61892400  1
  N  N86  1  0.13427100  0.56966500  0.11892400  1
  N  N87  1  0.56117600  0.93078900  0.57685200  1
  N  N88  1  0.53755100  0.26777400  0.53364100  1
  N  N89  1  0.80736400  0.29046300  0.82318800  1
  N  N90  1  0.73022300  0.46244900  0.53364100  1
  N  N91  1  0.77459900  0.03794600  0.06949800  1
  N  N92  1  0.43539400  0.86572900  0.11892400  1
  N  N93  1  0.56966500  0.43539400  0.61892400  1
  N  N94  1  0.37583900  0.85080100  0.82135700  1
  N  N95  1  0.42893400  0.35960300  0.05082500  1
  N  N96  1  0.63038700  0.56117600  0.07685200  1
  N  N97  1  0.19736300  0.09637900  0.51919800  1
  N  N98  1  0.02969200  0.76421900  0.59463800  1
  N  N99  1  0.19263600  0.70953700  0.32318800  1
  N  N100  1  0.52503800  0.37583900  0.32135700  1
  N  N101  1  0.89901600  0.80263700  0.51919800  1
  N  N102  1  0.60395400  0.89946100  0.05338700  1
  N  N103  1  0.09637900  0.89901600  0.01919800  1
  N  N104  1  0.00041100  0.66812200  0.32133200  1
  N  N105  1  0.14919900  0.52503800  0.82135700  1
  N  N106  1  0.20458700  0.59822400  0.52791000  1
  N  N107  1  0.85940000  0.81839600  0.82182400  1
  N  N108  1  0.64039700  0.06933100  0.05082500  1
  N  N109  1  0.80263700  0.90362100  0.01919800  1
  N  N110  1  0.69524700  0.10023700  0.58235200  1
  N  N111  1  0.29550700  0.39604600  0.05338700  1
  N  N112  1  0.39363700  0.79541300  0.52791000  1
  N  N113  1  0.59822400  0.39363700  0.02791000  1
  N  N114  1  0.04100400  0.85940000  0.32182400  1
  N  N115  1  0.94123900  0.06772700  0.11377300  1
  N  N116  1  0.23928100  0.47244000  0.62934300  1
  N  N117  1  0.95899600  0.14060000  0.82182400  1
  N  N118  1  0.59501000  0.69524700  0.08235200  1
  N  N119  1  0.99958900  0.33187800  0.82133200  1
  N  N120  1  0.73452700  0.97030800  0.59463800  1
  N  N121  1  0.36961300  0.43882400  0.57685200  1
  N  N122  1  0.66812200  0.66771100  0.82133200  1
  N  N123  1  0.10023700  0.40499000  0.08235200  1
  N  N124  1  0.26977700  0.53755100  0.03364100  1
  N  N125  1  0.97030800  0.23578100  0.09463800  1
  N  N126  1  0.10053900  0.70449300  0.05338700  1
  N  N127  1  0.96205400  0.73665300  0.06949800  1
  N  N128  1  0.03794600  0.26334700  0.56949800  1
  N  N129  1  0.26334700  0.22540100  0.06949800  1
  N  N130  1  0.76421900  0.73452700  0.09463800  1
  N  N131  1  0.23315900  0.76071900  0.62934300  1
  N  N132  1  0.47496200  0.62416100  0.82135700  1
  N  N133  1  0.89976300  0.59501000  0.58235200  1
  N  N134  1  0.87351200  0.94123900  0.61377300  1
  N  N135  1  0.51690100  0.80736400  0.32318800  1
  N  N136  1  0.06772700  0.12648800  0.61377300  1
  N  N137  1  0.85080100  0.47496200  0.32135700  1
  N  N138  1  0.47244000  0.23315900  0.12934300  1
  N  N139  1  0.26547300  0.02969200  0.09463800  1
  N  N140  1  0.35960300  0.93066900  0.55082500  1
  N  N141  1  0.14060000  0.18160400  0.32182400  1
  N  N142  1  0.66771100  0.99958900  0.32133200  1
  N  N143  1  0.70953700  0.51690100  0.82318800  1
  N  N144  1  0.73665300  0.77459900  0.56949800  1
  N  N145  1  0.05876100  0.93227300  0.61377300  1
  N  N146  1  0.10098400  0.19736300  0.01919800  1
  N  N147  1  0.22540100  0.96205400  0.56949800  1
  N  N148  1  0.60636300  0.20458700  0.02791000  1
  N  N149  1  0.76071900  0.52756000  0.12934300  1
  N  N150  1  0.26777400  0.73022300  0.03364100  1
  N  N151  1  0.40177600  0.60636300  0.52791000  1
  N  N152  1  0.76684100  0.23928100  0.12934300  1
  N  N153  1  0.62416100  0.14919900  0.32135700  1
  N  N154  1  0.93227300  0.87351200  0.11377300  1
  N  N155  1  0.23578100  0.26547300  0.59463800  1
  N  N156  1  0.06933100  0.42893400  0.55082500  1
  N  N157  1  0.89946100  0.29550700  0.55338700  1
  N  N158  1  0.43033500  0.56460600  0.11892400  1
  N  N159  1  0.86572900  0.43033500  0.61892400  1
  N  N160  1  0.39604600  0.10053900  0.55338700  1
  N  N161  1  0.73222600  0.26977700  0.53364100  1
  N  N162  1  0.12648800  0.05876100  0.11377300  1
  N  N163  1  0.30475300  0.89976300  0.08235200  1
  N  N164  1  0.46244900  0.73222600  0.03364100  1
  N  N165  1  0.79541300  0.40177600  0.02791000  1
  N  N166  1  0.43882400  0.06921100  0.07685200  1
  N  N167  1  0.18160400  0.04100400  0.82182400  1
