# generated using pymatgen
data_K2Cu(PO3)4
_symmetry_space_group_name_H-M   'P 1'
_cell_length_a   10.93960000
_cell_length_b   12.37553200
_cell_length_c   8.27783930
_cell_angle_alpha   90.00000000
_cell_angle_beta   98.97560390
_cell_angle_gamma   90.00000000
_symmetry_Int_Tables_number   1
_chemical_formula_structural   K2Cu(PO3)4
_chemical_formula_sum   'K8 Cu4 P16 O48'
_cell_volume   1106.95887452
_cell_formula_units_Z   4
loop_
 _symmetry_equiv_pos_site_id
 _symmetry_equiv_pos_as_xyz
  1  'x, y, z'
loop_
 _atom_site_type_symbol
 _atom_site_label
 _atom_site_symmetry_multiplicity
 _atom_site_fract_x
 _atom_site_fract_y
 _atom_site_fract_z
 _atom_site_occupancy
  K  K0  1  0.33082250  0.87122950  0.90042800  1
  K  K1  1  0.33082250  0.12877050  0.40042800  1
  K  K2  1  0.63615100  0.86258600  0.60993900  1
  K  K3  1  0.63615100  0.13741400  0.10993900  1
  K  K4  1  0.83082250  0.37122950  0.90042800  1
  K  K5  1  0.83082250  0.62877050  0.40042800  1
  K  K6  1  0.13615100  0.36258600  0.60993900  1
  K  K7  1  0.13615100  0.63741400  0.10993900  1
  Cu  Cu8  1  0.46896100  0.65625600  0.25360000  1
  Cu  Cu9  1  0.46896100  0.34374400  0.75360000  1
  Cu  Cu10  1  0.96896100  0.15625600  0.25360000  1
  Cu  Cu11  1  0.96896100  0.84374400  0.75360000  1
  P  P12  1  0.84999650  0.92453350  0.30752900  1
  P  P13  1  0.84999650  0.07546650  0.80752900  1
  P  P14  1  0.65007200  0.81252100  0.08360800  1
  P  P15  1  0.65007200  0.18747900  0.58360800  1
  P  P16  1  0.30653900  0.16007800  0.91906900  1
  P  P17  1  0.30653900  0.83992200  0.41906900  1
  P  P18  1  0.08720950  0.07181250  0.67856200  1
  P  P19  1  0.08720950  0.92818750  0.17856200  1
  P  P20  1  0.34999650  0.42453350  0.30752900  1
  P  P21  1  0.34999650  0.57546650  0.80752900  1
  P  P22  1  0.15007200  0.31252100  0.08360800  1
  P  P23  1  0.15007200  0.68747900  0.58360800  1
  P  P24  1  0.80653900  0.66007800  0.91906900  1
  P  P25  1  0.80653900  0.33992200  0.41906900  1
  P  P26  1  0.58720950  0.57181250  0.67856200  1
  P  P27  1  0.58720950  0.42818750  0.17856200  1
  O  O28  1  0.07333450  0.95036550  0.66291300  1
  O  O29  1  0.07333450  0.04963450  0.16291300  1
  O  O30  1  0.62144650  0.63564550  0.53971800  1
  O  O31  1  0.62144650  0.36435450  0.03971800  1
  O  O32  1  0.46331800  0.37487000  0.22749700  1
  O  O33  1  0.46331800  0.62513000  0.72749700  1
  O  O34  1  0.86674350  0.04484350  0.33439900  1
  O  O35  1  0.86674350  0.95515650  0.83439900  1
  O  O36  1  0.82901800  0.85392300  0.44633000  1
  O  O37  1  0.82901800  0.14607700  0.94633000  1
  O  O38  1  0.73452800  0.91474200  0.15761200  1
  O  O39  1  0.73452800  0.08525800  0.65761200  1
  O  O40  1  0.58047950  0.84484050  0.92210600  1
  O  O41  1  0.58047950  0.15515950  0.42210600  1
  O  O42  1  0.40156400  0.91726500  0.49916200  1
  O  O43  1  0.40156400  0.08273500  0.99916200  1
  O  O44  1  0.33590400  0.76151400  0.29015900  1
  O  O45  1  0.33590400  0.23848600  0.79015900  1
  O  O46  1  0.18653550  0.90964750  0.34281400  1
  O  O47  1  0.18653550  0.09035250  0.84281400  1
  O  O48  1  0.25632550  0.77692950  0.56821600  1
  O  O49  1  0.25632550  0.22307050  0.06821600  1
  O  O50  1  0.58155250  0.22510650  0.71924000  1
  O  O51  1  0.58155250  0.77489350  0.21924000  1
  O  O52  1  0.57333450  0.45036550  0.66291300  1
  O  O53  1  0.57333450  0.54963450  0.16291300  1
  O  O54  1  0.12144650  0.13564550  0.53971800  1
  O  O55  1  0.12144650  0.86435450  0.03971800  1
  O  O56  1  0.96331800  0.87487000  0.22749700  1
  O  O57  1  0.96331800  0.12513000  0.72749700  1
  O  O58  1  0.36674350  0.54484350  0.33439900  1
  O  O59  1  0.36674350  0.45515650  0.83439900  1
  O  O60  1  0.32901800  0.35392300  0.44633000  1
  O  O61  1  0.32901800  0.64607700  0.94633000  1
  O  O62  1  0.23452800  0.41474200  0.15761200  1
  O  O63  1  0.23452800  0.58525800  0.65761200  1
  O  O64  1  0.08047950  0.34484050  0.92210600  1
  O  O65  1  0.08047950  0.65515950  0.42210600  1
  O  O66  1  0.90156400  0.41726500  0.49916200  1
  O  O67  1  0.90156400  0.58273500  0.99916200  1
  O  O68  1  0.83590400  0.26151400  0.29015900  1
  O  O69  1  0.83590400  0.73848600  0.79015900  1
  O  O70  1  0.68653550  0.40964750  0.34281400  1
  O  O71  1  0.68653550  0.59035250  0.84281400  1
  O  O72  1  0.75632550  0.27692950  0.56821600  1
  O  O73  1  0.75632550  0.72307050  0.06821600  1
  O  O74  1  0.08155250  0.72510650  0.71924000  1
  O  O75  1  0.08155250  0.27489350  0.21924000  1
