# generated using pymatgen
data_InF3
_symmetry_space_group_name_H-M   'P 1'
_cell_length_a   5.50668170
_cell_length_b   5.50668170
_cell_length_c   14.66443916
_cell_angle_alpha   90.00000000
_cell_angle_beta   90.00000000
_cell_angle_gamma   120.00000000
_symmetry_Int_Tables_number   1
_chemical_formula_structural   InF3
_chemical_formula_sum   'In6 F18'
_cell_volume   385.10223384
_cell_formula_units_Z   6
loop_
 _symmetry_equiv_pos_site_id
 _symmetry_equiv_pos_as_xyz
  1  'x, y, z'
loop_
 _atom_site_type_symbol
 _atom_site_label
 _atom_site_symmetry_multiplicity
 _atom_site_fract_x
 _atom_site_fract_y
 _atom_site_fract_z
 _atom_site_occupancy
  In  In0  1  0.33333333  0.66666667  0.16666667  1
  In  In1  1  0.00000000  0.00000000  0.00000000  1
  In  In2  1  1.00000000  0.00000000  0.50000000  1
  In  In3  1  0.66666667  0.33333333  0.33333333  1
  In  In4  1  0.66666667  0.33333333  0.83333333  1
  In  In5  1  0.33333333  0.66666667  0.66666667  1
  F  F6  1  0.28420267  0.33333333  0.08333333  1
  F  F7  1  0.66666667  0.95086933  0.08333333  1
  F  F8  1  0.61753600  0.61753600  0.25000000  1
  F  F9  1  0.00000000  0.38246400  0.25000000  1
  F  F10  1  0.38246400  0.00000000  0.25000000  1
  F  F11  1  0.04913067  0.71579733  0.08333333  1
  F  F12  1  0.95086933  0.66666667  0.41666667  1
  F  F13  1  0.33333333  0.28420267  0.41666667  1
  F  F14  1  0.28420267  0.95086933  0.58333333  1
  F  F15  1  0.66666667  0.71579733  0.58333333  1
  F  F16  1  0.04913067  0.33333333  0.58333333  1
  F  F17  1  0.71579733  0.04913067  0.41666667  1
  F  F18  1  0.61753600  0.00000000  0.75000000  1
  F  F19  1  0.00000000  0.61753600  0.75000000  1
  F  F20  1  0.95086933  0.28420267  0.91666667  1
  F  F21  1  0.33333333  0.04913067  0.91666667  1
  F  F22  1  0.71579733  0.66666667  0.91666667  1
  F  F23  1  0.38246400  0.38246400  0.75000000  1
