# generated using pymatgen
data_H3BrO
_symmetry_space_group_name_H-M   'P 1'
_cell_length_a   6.97283800
_cell_length_b   4.95241800
_cell_length_c   4.42975464
_cell_angle_alpha   90.00000000
_cell_angle_beta   112.76832303
_cell_angle_gamma   90.00000000
_symmetry_Int_Tables_number   1
_chemical_formula_structural   H3BrO
_chemical_formula_sum   'H6 Br2 O2'
_cell_volume   141.05024666
_cell_formula_units_Z   2
loop_
 _symmetry_equiv_pos_site_id
 _symmetry_equiv_pos_as_xyz
  1  'x, y, z'
loop_
 _atom_site_type_symbol
 _atom_site_label
 _atom_site_symmetry_multiplicity
 _atom_site_fract_x
 _atom_site_fract_y
 _atom_site_fract_z
 _atom_site_occupancy
  H  H0  1  0.68552800  0.00000000  0.64755900  1
  H  H1  1  0.52469150  0.16736650  0.31996400  1
  H  H2  1  0.52469150  0.83263350  0.31996400  1
  H  H3  1  0.18552800  0.50000000  0.64755900  1
  H  H4  1  0.02469150  0.66736650  0.31996400  1
  H  H5  1  0.02469150  0.33263350  0.31996400  1
  Br  Br6  1  0.98391300  0.00000000  0.01134000  1
  Br  Br7  1  0.48391300  0.50000000  0.01134000  1
  O  O8  1  0.53975800  0.00000000  0.46371400  1
  O  O9  1  0.03975800  0.50000000  0.46371400  1
