# generated using pymatgen
data_K4ErP6H6ClO21
_symmetry_space_group_name_H-M   'P 1'
_cell_length_a   10.03224561
_cell_length_b   10.03224561
_cell_length_c   12.27385200
_cell_angle_alpha   90.00000000
_cell_angle_beta   90.00000000
_cell_angle_gamma   120.00000000
_symmetry_Int_Tables_number   1
_chemical_formula_structural   K4ErP6H6ClO21
_chemical_formula_sum   'K8 Er2 P12 H12 Cl2 O42'
_cell_volume   1069.81288979
_cell_formula_units_Z   2
loop_
 _symmetry_equiv_pos_site_id
 _symmetry_equiv_pos_as_xyz
  1  'x, y, z'
loop_
 _atom_site_type_symbol
 _atom_site_label
 _atom_site_symmetry_multiplicity
 _atom_site_fract_x
 _atom_site_fract_y
 _atom_site_fract_z
 _atom_site_occupancy
  K  K0  1  0.67576900  0.95082900  0.75000000  1
  K  K1  1  0.27506000  0.32423100  0.75000000  1
  K  K2  1  0.04917100  0.72494000  0.75000000  1
  K  K3  1  0.32423100  0.04917100  0.25000000  1
  K  K4  1  0.72494000  0.67576900  0.25000000  1
  K  K5  1  0.95082900  0.27506000  0.25000000  1
  K  K6  1  0.00000000  0.00000000  0.00000000  1
  K  K7  1  0.00000000  0.00000000  0.50000000  1
  Er  Er8  1  0.66666667  0.33333333  0.75000000  1
  Er  Er9  1  0.33333333  0.66666667  0.25000000  1
  P  P10  1  0.80142900  0.51830100  0.00822000  1
  P  P11  1  0.71687200  0.19857100  0.00822000  1
  P  P12  1  0.48169900  0.28312800  0.00822000  1
  P  P13  1  0.19857100  0.48169900  0.50822000  1
  P  P14  1  0.28312800  0.80142900  0.50822000  1
  P  P15  1  0.51830100  0.71687200  0.50822000  1
  P  P16  1  0.19857100  0.48169900  0.99178000  1
  P  P17  1  0.28312800  0.80142900  0.99178000  1
  P  P18  1  0.51830100  0.71687200  0.99178000  1
  P  P19  1  0.80142900  0.51830100  0.49178000  1
  P  P20  1  0.71687200  0.19857100  0.49178000  1
  P  P21  1  0.48169900  0.28312800  0.49178000  1
  H  H22  1  0.63817900  0.60477000  0.81454500  1
  H  H23  1  0.96659100  0.36182100  0.81454500  1
  H  H24  1  0.39523000  0.03340900  0.81454500  1
  H  H25  1  0.36182100  0.39523000  0.31454500  1
  H  H26  1  0.03340900  0.63817900  0.31454500  1
  H  H27  1  0.60477000  0.96659100  0.31454500  1
  H  H28  1  0.36182100  0.39523000  0.18545500  1
  H  H29  1  0.03340900  0.63817900  0.18545500  1
  H  H30  1  0.60477000  0.96659100  0.18545500  1
  H  H31  1  0.63817900  0.60477000  0.68545500  1
  H  H32  1  0.96659100  0.36182100  0.68545500  1
  H  H33  1  0.39523000  0.03340900  0.68545500  1
  Cl  Cl34  1  0.00000000  0.00000000  0.75000000  1
  Cl  Cl35  1  0.00000000  0.00000000  0.25000000  1
  O  O36  1  0.80662300  0.52411000  0.88567200  1
  O  O37  1  0.71748700  0.19337700  0.88567200  1
  O  O38  1  0.47589000  0.28251300  0.88567200  1
  O  O39  1  0.19337700  0.47589000  0.38567200  1
  O  O40  1  0.28251300  0.80662300  0.38567200  1
  O  O41  1  0.52411000  0.71748700  0.38567200  1
  O  O42  1  0.19337700  0.47589000  0.11432800  1
  O  O43  1  0.28251300  0.80662300  0.11432800  1
  O  O44  1  0.52411000  0.71748700  0.11432800  1
  O  O45  1  0.80662300  0.52411000  0.61432800  1
  O  O46  1  0.71748700  0.19337700  0.61432800  1
  O  O47  1  0.47589000  0.28251300  0.61432800  1
  O  O48  1  0.90101700  0.65726800  0.07479300  1
  O  O49  1  0.75625100  0.09898300  0.07479300  1
  O  O50  1  0.34273200  0.24374900  0.07479300  1
  O  O51  1  0.09898300  0.34273200  0.57479300  1
  O  O52  1  0.24374900  0.90101700  0.57479300  1
  O  O53  1  0.65726800  0.75625100  0.57479300  1
  O  O54  1  0.09898300  0.34273200  0.92520700  1
  O  O55  1  0.24374900  0.90101700  0.92520700  1
  O  O56  1  0.65726800  0.75625100  0.92520700  1
  O  O57  1  0.90101700  0.65726800  0.42520700  1
  O  O58  1  0.75625100  0.09898300  0.42520700  1
  O  O59  1  0.34273200  0.24374900  0.42520700  1
  O  O60  1  0.62280000  0.45112900  0.04804200  1
  O  O61  1  0.82832900  0.37720000  0.04804200  1
  O  O62  1  0.54887100  0.17167100  0.04804200  1
  O  O63  1  0.37720000  0.54887100  0.54804200  1
  O  O64  1  0.17167100  0.62280000  0.54804200  1
  O  O65  1  0.45112900  0.82832900  0.54804200  1
  O  O66  1  0.37720000  0.54887100  0.95195800  1
  O  O67  1  0.17167100  0.62280000  0.95195800  1
  O  O68  1  0.45112900  0.82832900  0.95195800  1
  O  O69  1  0.62280000  0.45112900  0.45195800  1
  O  O70  1  0.82832900  0.37720000  0.45195800  1
  O  O71  1  0.54887100  0.17167100  0.45195800  1
  O  O72  1  0.59602400  0.53793800  0.75000000  1
  O  O73  1  0.94191400  0.40397600  0.75000000  1
  O  O74  1  0.46206200  0.05808600  0.75000000  1
  O  O75  1  0.40397600  0.46206200  0.25000000  1
  O  O76  1  0.05808600  0.59602400  0.25000000  1
  O  O77  1  0.53793800  0.94191400  0.25000000  1
