# generated using pymatgen
data_PH6NO4
_symmetry_space_group_name_H-M   'P 1'
_cell_length_a   7.22626800
_cell_length_b   8.06295800
_cell_length_c   8.11275200
_cell_angle_alpha   90.00000000
_cell_angle_beta   90.00000000
_cell_angle_gamma   90.00000000
_symmetry_Int_Tables_number   1
_chemical_formula_structural   PH6NO4
_chemical_formula_sum   'P4 H24 N4 O16'
_cell_volume   472.69026908
_cell_formula_units_Z   4
loop_
 _symmetry_equiv_pos_site_id
 _symmetry_equiv_pos_as_xyz
  1  'x, y, z'
loop_
 _atom_site_type_symbol
 _atom_site_label
 _atom_site_symmetry_multiplicity
 _atom_site_fract_x
 _atom_site_fract_y
 _atom_site_fract_z
 _atom_site_occupancy
  P  P0  1  0.49510400  0.03741100  0.45067900  1
  P  P1  1  0.00489600  0.96258900  0.95067900  1
  P  P2  1  0.50489600  0.53741100  0.04932100  1
  P  P3  1  0.99510400  0.46258900  0.54932100  1
  H  H4  1  0.75151100  0.70109200  0.11002900  1
  H  H5  1  0.84221500  0.96031000  0.41317500  1
  H  H6  1  0.24848900  0.20109200  0.38997100  1
  H  H7  1  0.97994400  0.86078300  0.55064700  1
  H  H8  1  0.82671600  0.58299100  0.34532300  1
  H  H9  1  0.04217400  0.56755500  0.93737400  1
  H  H10  1  0.42018100  0.01681800  0.90960600  1
  H  H11  1  0.74848900  0.29890800  0.61002900  1
  H  H12  1  0.17328400  0.08299100  0.15467700  1
  H  H13  1  0.15778500  0.46031000  0.08682500  1
  H  H14  1  0.95782600  0.06755500  0.56262600  1
  H  H15  1  0.52005600  0.13921700  0.05064700  1
  H  H16  1  0.07981900  0.98318200  0.40960600  1
  H  H17  1  0.54217400  0.93244500  0.06262600  1
  H  H18  1  0.65778500  0.03969000  0.91317500  1
  H  H19  1  0.34221500  0.53969000  0.58682500  1
  H  H20  1  0.47994400  0.63921700  0.44935300  1
  H  H21  1  0.67328400  0.41700900  0.84532300  1
  H  H22  1  0.92018100  0.48318200  0.09039400  1
  H  H23  1  0.25151100  0.79890800  0.88997100  1
  H  H24  1  0.57981900  0.51681800  0.59039400  1
  H  H25  1  0.32671600  0.91700900  0.65467700  1
  H  H26  1  0.02005600  0.36078300  0.94935300  1
  H  H27  1  0.45782600  0.43244500  0.43737400  1
  N  N28  1  0.96553400  0.96794600  0.48369300  1
  N  N29  1  0.46553400  0.53205400  0.51630700  1
  N  N30  1  0.03446600  0.46794600  0.01630700  1
  N  N31  1  0.53446600  0.03205400  0.98369300  1
  O  O32  1  0.58717200  0.39000000  0.93618000  1
  O  O33  1  0.81535000  0.39931400  0.65495600  1
  O  O34  1  0.08717200  0.11000000  0.06382000  1
  O  O35  1  0.62320000  0.95111300  0.33201900  1
  O  O36  1  0.06709800  0.32009200  0.44718900  1
  O  O37  1  0.12320000  0.54888700  0.66798100  1
  O  O38  1  0.68465000  0.60068600  0.15495600  1
  O  O39  1  0.31535000  0.10068600  0.34504400  1
  O  O40  1  0.37680000  0.45111300  0.16798100  1
  O  O41  1  0.43290200  0.67990800  0.94718900  1
  O  O42  1  0.87680000  0.04888700  0.83201900  1
  O  O43  1  0.18465000  0.89931400  0.84504400  1
  O  O44  1  0.56709800  0.17990800  0.55281100  1
  O  O45  1  0.91282800  0.61000000  0.43618000  1
  O  O46  1  0.93290200  0.82009200  0.05281100  1
  O  O47  1  0.41282800  0.89000000  0.56382000  1
