# generated using pymatgen
data_Al2S3
_symmetry_space_group_name_H-M   'P 1'
_cell_length_a   7.09701800
_cell_length_b   7.09701800
_cell_length_c   30.08373600
_cell_angle_alpha   90.00000000
_cell_angle_beta   90.00000000
_cell_angle_gamma   90.00000000
_symmetry_Int_Tables_number   1
_chemical_formula_structural   Al2S3
_chemical_formula_sum   'Al32 S48'
_cell_volume   1515.24752152
_cell_formula_units_Z   16
loop_
 _symmetry_equiv_pos_site_id
 _symmetry_equiv_pos_as_xyz
  1  'x, y, z'
loop_
 _atom_site_type_symbol
 _atom_site_label
 _atom_site_symmetry_multiplicity
 _atom_site_fract_x
 _atom_site_fract_y
 _atom_site_fract_z
 _atom_site_occupancy
  Al  Al0  1  0.00000000  0.00000000  0.17037100  1
  Al  Al1  1  0.50000000  0.50000000  0.32962900  1
  Al  Al2  1  0.00000000  0.22842800  0.29303000  1
  Al  Al3  1  0.00000000  0.50000000  0.42037100  1
  Al  Al4  1  0.72842800  0.00000000  0.04303000  1
  Al  Al5  1  0.50000000  0.77157200  0.45697000  1
  Al  Al6  1  0.00000000  0.50000000  0.07962900  1
  Al  Al7  1  0.27157200  0.50000000  0.20697000  1
  Al  Al8  1  0.27157200  0.00000000  0.04303000  1
  Al  Al9  1  0.50000000  0.25000000  0.12500000  1
  Al  Al10  1  0.50000000  0.75000000  0.12500000  1
  Al  Al11  1  0.75000000  0.00000000  0.37500000  1
  Al  Al12  1  0.72842800  0.50000000  0.20697000  1
  Al  Al13  1  0.00000000  0.77157200  0.29303000  1
  Al  Al14  1  0.25000000  0.00000000  0.37500000  1
  Al  Al15  1  0.50000000  0.22842800  0.45697000  1
  Al  Al16  1  0.50000000  0.50000000  0.67037100  1
  Al  Al17  1  0.00000000  0.00000000  0.82962900  1
  Al  Al18  1  0.50000000  0.72842800  0.79303000  1
  Al  Al19  1  0.50000000  0.00000000  0.92037100  1
  Al  Al20  1  0.22842800  0.50000000  0.54303000  1
  Al  Al21  1  0.00000000  0.27157200  0.95697000  1
  Al  Al22  1  0.50000000  0.00000000  0.57962900  1
  Al  Al23  1  0.77157200  0.00000000  0.70697000  1
  Al  Al24  1  0.77157200  0.50000000  0.54303000  1
  Al  Al25  1  0.00000000  0.75000000  0.62500000  1
  Al  Al26  1  0.00000000  0.25000000  0.62500000  1
  Al  Al27  1  0.25000000  0.50000000  0.87500000  1
  Al  Al28  1  0.22842800  0.00000000  0.70697000  1
  Al  Al29  1  0.50000000  0.27157200  0.79303000  1
  Al  Al30  1  0.75000000  0.50000000  0.87500000  1
  Al  Al31  1  0.00000000  0.72842800  0.95697000  1
  S  S32  1  0.00000000  0.24237400  0.37451000  1
  S  S33  1  0.27045100  0.50000000  0.46197800  1
  S  S34  1  0.50000000  0.24237400  0.37549000  1
  S  S35  1  0.00000000  0.22954900  0.03802200  1
  S  S36  1  0.72954900  0.50000000  0.46197800  1
  S  S37  1  0.25762600  0.50000000  0.12549000  1
  S  S38  1  0.25762600  0.00000000  0.12451000  1
  S  S39  1  0.50000000  0.26268200  0.20328000  1
  S  S40  1  0.50000000  0.23731800  0.04672000  1
  S  S41  1  0.50000000  0.73731800  0.20328000  1
  S  S42  1  0.74237400  0.00000000  0.12451000  1
  S  S43  1  0.74237400  0.50000000  0.12549000  1
  S  S44  1  0.76268200  0.00000000  0.29672000  1
  S  S45  1  0.77045100  0.50000000  0.28802200  1
  S  S46  1  0.00000000  0.75762600  0.37451000  1
  S  S47  1  0.00000000  0.27045100  0.21197800  1
  S  S48  1  0.00000000  0.72954900  0.21197800  1
  S  S49  1  0.22954900  0.50000000  0.28802200  1
  S  S50  1  0.23731800  0.00000000  0.29672000  1
  S  S51  1  0.26268200  0.00000000  0.45328000  1
  S  S52  1  0.50000000  0.75762600  0.37549000  1
  S  S53  1  0.00000000  0.77045100  0.03802200  1
  S  S54  1  0.73731800  0.00000000  0.45328000  1
  S  S55  1  0.50000000  0.76268200  0.04672000  1
  S  S56  1  0.50000000  0.74237400  0.87451000  1
  S  S57  1  0.77045100  0.00000000  0.96197800  1
  S  S58  1  0.00000000  0.74237400  0.87549000  1
  S  S59  1  0.50000000  0.72954900  0.53802200  1
  S  S60  1  0.22954900  0.00000000  0.96197800  1
  S  S61  1  0.75762600  0.00000000  0.62549000  1
  S  S62  1  0.75762600  0.50000000  0.62451000  1
  S  S63  1  0.00000000  0.76268200  0.70328000  1
  S  S64  1  0.00000000  0.73731800  0.54672000  1
  S  S65  1  0.00000000  0.23731800  0.70328000  1
  S  S66  1  0.24237400  0.50000000  0.62451000  1
  S  S67  1  0.24237400  0.00000000  0.62549000  1
  S  S68  1  0.26268200  0.50000000  0.79672000  1
  S  S69  1  0.27045100  0.00000000  0.78802200  1
  S  S70  1  0.50000000  0.25762600  0.87451000  1
  S  S71  1  0.50000000  0.77045100  0.71197800  1
  S  S72  1  0.50000000  0.22954900  0.71197800  1
  S  S73  1  0.72954900  0.00000000  0.78802200  1
  S  S74  1  0.73731800  0.50000000  0.79672000  1
  S  S75  1  0.76268200  0.50000000  0.95328000  1
  S  S76  1  0.00000000  0.25762600  0.87549000  1
  S  S77  1  0.50000000  0.27045100  0.53802200  1
  S  S78  1  0.23731800  0.50000000  0.95328000  1
  S  S79  1  0.00000000  0.26268200  0.54672000  1
