# generated using pymatgen
data_Ba(H2O3)2
_symmetry_space_group_name_H-M   'P 1'
_cell_length_a   8.58259400
_cell_length_b   9.76624800
_cell_length_c   6.46020480
_cell_angle_alpha   90.00000000
_cell_angle_beta   95.45505768
_cell_angle_gamma   90.00000000
_symmetry_Int_Tables_number   1
_chemical_formula_structural   Ba(H2O3)2
_chemical_formula_sum   'Ba4 H16 O24'
_cell_volume   539.04031506
_cell_formula_units_Z   4
loop_
 _symmetry_equiv_pos_site_id
 _symmetry_equiv_pos_as_xyz
  1  'x, y, z'
loop_
 _atom_site_type_symbol
 _atom_site_label
 _atom_site_symmetry_multiplicity
 _atom_site_fract_x
 _atom_site_fract_y
 _atom_site_fract_z
 _atom_site_occupancy
  Ba  Ba0  1  0.50000000  0.33054800  0.50000000  1
  Ba  Ba1  1  0.50000000  0.66606400  0.00000000  1
  Ba  Ba2  1  0.00000000  0.83054800  0.50000000  1
  Ba  Ba3  1  0.00000000  0.16606400  0.00000000  1
  H  H4  1  0.38116700  0.99617500  0.77883600  1
  H  H5  1  0.25729300  0.92035600  0.89024100  1
  H  H6  1  0.61883300  0.99617500  0.22116400  1
  H  H7  1  0.74270700  0.92035600  0.10975900  1
  H  H8  1  0.78723400  0.19848300  0.42329300  1
  H  H9  1  0.21276600  0.19848300  0.57670700  1
  H  H10  1  0.64195650  0.28068550  0.04655600  1
  H  H11  1  0.35804350  0.28068550  0.95344400  1
  H  H12  1  0.88116700  0.49617500  0.77883600  1
  H  H13  1  0.75729300  0.42035600  0.89024100  1
  H  H14  1  0.11883300  0.49617500  0.22116400  1
  H  H15  1  0.24270700  0.42035600  0.10975900  1
  H  H16  1  0.28723400  0.69848300  0.42329300  1
  H  H17  1  0.71276600  0.69848300  0.57670700  1
  H  H18  1  0.14195650  0.78068550  0.04655600  1
  H  H19  1  0.85804350  0.78068550  0.95344400  1
  O  O20  1  0.56704250  0.37981050  0.93499500  1
  O  O21  1  0.43295750  0.37981050  0.06500500  1
  O  O22  1  0.83399900  0.04034100  0.66876500  1
  O  O23  1  0.16600100  0.04034100  0.33123500  1
  O  O24  1  0.34239400  0.90307400  0.80063600  1
  O  O25  1  0.65760600  0.90307400  0.19936400  1
  O  O26  1  0.71718900  0.12753900  0.60770400  1
  O  O27  1  0.28281100  0.12753900  0.39229600  1
  O  O28  1  0.30912950  0.75617150  0.29664500  1
  O  O29  1  0.69087050  0.75617150  0.70335500  1
  O  O30  1  0.69438600  0.19148000  0.14061000  1
  O  O31  1  0.30561400  0.19148000  0.85939000  1
  O  O32  1  0.06704250  0.87981050  0.93499500  1
  O  O33  1  0.93295750  0.87981050  0.06500500  1
  O  O34  1  0.33399900  0.54034100  0.66876500  1
  O  O35  1  0.66600100  0.54034100  0.33123500  1
  O  O36  1  0.84239400  0.40307400  0.80063600  1
  O  O37  1  0.15760600  0.40307400  0.19936400  1
  O  O38  1  0.21718900  0.62753900  0.60770400  1
  O  O39  1  0.78281100  0.62753900  0.39229600  1
  O  O40  1  0.80912950  0.25617150  0.29664500  1
  O  O41  1  0.19087050  0.25617150  0.70335500  1
  O  O42  1  0.19438600  0.69148000  0.14061000  1
  O  O43  1  0.80561400  0.69148000  0.85939000  1
