# generated using pymatgen
data_Sc(HO)3
_symmetry_space_group_name_H-M   'P 1'
_cell_length_a   11.28148566
_cell_length_b   11.28148566
_cell_length_c   6.84709204
_cell_angle_alpha   90.00000000
_cell_angle_beta   90.00000000
_cell_angle_gamma   120.00000000
_symmetry_Int_Tables_number   1
_chemical_formula_structural   Sc(HO)3
_chemical_formula_sum   'Sc12 H36 O36'
_cell_volume   754.69137876
_cell_formula_units_Z   12
loop_
 _symmetry_equiv_pos_site_id
 _symmetry_equiv_pos_as_xyz
  1  'x, y, z'
loop_
 _atom_site_type_symbol
 _atom_site_label
 _atom_site_symmetry_multiplicity
 _atom_site_fract_x
 _atom_site_fract_y
 _atom_site_fract_z
 _atom_site_occupancy
  Sc  Sc0  1  0.00000000  0.00000000  0.50000000  1
  Sc  Sc1  1  0.83333333  0.16666667  0.16666667  1
  Sc  Sc2  1  0.16666667  0.33333333  0.83333333  1
  Sc  Sc3  1  0.66666667  0.83333333  0.83333333  1
  Sc  Sc4  1  0.66666667  0.33333333  0.83333333  1
  Sc  Sc5  1  0.50000000  0.50000000  0.50000000  1
  Sc  Sc6  1  0.83333333  0.66666667  0.16666667  1
  Sc  Sc7  1  0.33333333  0.16666667  0.16666667  1
  Sc  Sc8  1  0.33333333  0.66666667  0.16666667  1
  Sc  Sc9  1  0.16666667  0.83333333  0.83333333  1
  Sc  Sc10  1  0.50000000  0.00000000  0.50000000  1
  Sc  Sc11  1  0.00000000  0.50000000  0.50000000  1
  H  H12  1  0.06937367  0.18735133  0.23635133  1
  H  H13  1  0.59729300  0.14598200  0.09698200  1
  H  H14  1  0.60063667  0.02186933  0.84229733  1
  H  H15  1  0.06603000  0.31146400  0.49103600  1
  H  H16  1  0.52068467  0.78464433  0.43031533  1
  H  H17  1  0.14598200  0.54868900  0.90301800  1
  H  H18  1  0.02186933  0.42123267  0.15770267  1
  H  H19  1  0.64479733  0.91210067  0.17563067  1
  H  H20  1  0.75456600  0.06603000  0.50896400  1
  H  H21  1  0.91210067  0.26730333  0.82436933  1
  H  H22  1  0.78464433  0.26395967  0.56968467  1
  H  H23  1  0.88202233  0.06937367  0.76364867  1
  H  H24  1  0.73604033  0.52068467  0.56968467  1
  H  H25  1  0.26395967  0.47931533  0.43031533  1
  H  H26  1  0.26730333  0.35520267  0.17563067  1
  H  H27  1  0.73269667  0.64479733  0.82436933  1
  H  H28  1  0.18735133  0.11797767  0.76364867  1
  H  H29  1  0.81264867  0.88202233  0.23635133  1
  H  H30  1  0.68853600  0.75456600  0.49103600  1
  H  H31  1  0.31146400  0.24543400  0.50896400  1
  H  H32  1  0.42123267  0.39936333  0.84229733  1
  H  H33  1  0.57876733  0.60063667  0.15770267  1
  H  H34  1  0.45131100  0.59729300  0.90301800  1
  H  H35  1  0.54868900  0.40270700  0.09698200  1
  H  H36  1  0.40270700  0.85401800  0.90301800  1
  H  H37  1  0.93062633  0.81264867  0.76364867  1
  H  H38  1  0.93397000  0.68853600  0.50896400  1
  H  H39  1  0.39936333  0.97813067  0.15770267  1
  H  H40  1  0.85401800  0.45131100  0.09698200  1
  H  H41  1  0.47931533  0.21535567  0.56968467  1
  H  H42  1  0.35520267  0.08789933  0.82436933  1
  H  H43  1  0.97813067  0.57876733  0.84229733  1
  H  H44  1  0.08789933  0.73269667  0.17563067  1
  H  H45  1  0.24543400  0.93397000  0.49103600  1
  H  H46  1  0.11797767  0.93062633  0.23635133  1
  H  H47  1  0.21535567  0.73604033  0.43031533  1
  O  O48  1  0.98761567  0.14950433  0.32251333  1
  O  O49  1  0.67905100  0.18382900  0.01082000  1
  O  O50  1  0.55596667  0.93858633  0.76097733  1
  O  O51  1  0.11070000  0.39474700  0.57235600  1
  O  O52  1  0.48283767  0.82855533  0.34415333  1
  O  O53  1  0.18382900  0.50477800  0.98918000  1
  O  O54  1  0.93858633  0.38261967  0.23902267  1
  O  O55  1  0.72808033  0.95071367  0.09431067  1
  O  O56  1  0.71595300  0.11070000  0.42764400  1
  O  O57  1  0.95071367  0.22263333  0.90568933  1
  O  O58  1  0.82855533  0.34571767  0.65584667  1
  O  O59  1  0.83811133  0.98761567  0.67748667  1
  O  O60  1  0.65428233  0.48283767  0.65584667  1
  O  O61  1  0.34571767  0.51716233  0.34415333  1
  O  O62  1  0.22263333  0.27191967  0.09431067  1
  O  O63  1  0.77736667  0.72808033  0.90568933  1
  O  O64  1  0.14950433  0.16188867  0.67748667  1
  O  O65  1  0.85049567  0.83811133  0.32251333  1
  O  O66  1  0.60525300  0.71595300  0.57235600  1
  O  O67  1  0.39474700  0.28404700  0.42764400  1
  O  O68  1  0.38261967  0.44403333  0.76097733  1
  O  O69  1  0.61738033  0.55596667  0.23902267  1
  O  O70  1  0.49522200  0.67905100  0.98918000  1
  O  O71  1  0.50477800  0.32094900  0.01082000  1
  O  O72  1  0.32094900  0.81617100  0.98918000  1
  O  O73  1  0.01238433  0.85049567  0.67748667  1
  O  O74  1  0.88930000  0.60525300  0.42764400  1
  O  O75  1  0.44403333  0.06141367  0.23902267  1
  O  O76  1  0.81617100  0.49522200  0.01082000  1
  O  O77  1  0.51716233  0.17144467  0.65584667  1
  O  O78  1  0.27191967  0.04928633  0.90568933  1
  O  O79  1  0.06141367  0.61738033  0.76097733  1
  O  O80  1  0.04928633  0.77736667  0.09431067  1
  O  O81  1  0.28404700  0.88930000  0.57235600  1
  O  O82  1  0.16188867  0.01238433  0.32251333  1
  O  O83  1  0.17144467  0.65428233  0.34415333  1
