# generated using pymatgen
data_Os(OF)2
_symmetry_space_group_name_H-M   'P 1'
_cell_length_a   8.68029500
_cell_length_b   8.79327243
_cell_length_c   9.13396425
_cell_angle_alpha   90.61335001
_cell_angle_beta   90.49987540
_cell_angle_gamma   90.15073820
_symmetry_Int_Tables_number   1
_chemical_formula_structural   Os(OF)2
_chemical_formula_sum   'Os8 O16 F16'
_cell_volume   697.10997224
_cell_formula_units_Z   8
loop_
 _symmetry_equiv_pos_site_id
 _symmetry_equiv_pos_as_xyz
  1  'x, y, z'
loop_
 _atom_site_type_symbol
 _atom_site_label
 _atom_site_symmetry_multiplicity
 _atom_site_fract_x
 _atom_site_fract_y
 _atom_site_fract_z
 _atom_site_occupancy
  Os  Os0  1  0.99994700  0.00068600  0.00036000  1
  Os  Os1  1  0.49851500  0.75840200  0.00058700  1
  Os  Os2  1  0.50058600  0.25211600  0.97201600  1
  Os  Os3  1  0.99037000  0.50009000  0.75098800  1
  Os  Os4  1  0.50264700  0.49778600  0.49735000  1
  Os  Os5  1  0.25827700  0.99973700  0.49908600  1
  Os  Os6  1  0.74948100  0.99798500  0.48699700  1
  Os  Os7  1  0.00036600  0.50003800  0.27616700  1
  O  O8  1  0.38544300  0.86131300  0.88130000  1
  O  O9  1  0.88940000  0.38393100  0.86746900  1
  O  O10  1  0.38093000  0.36824000  0.87631400  1
  O  O11  1  0.60672100  0.63754100  0.88797900  1
  O  O12  1  0.10832500  0.61388400  0.86188500  1
  O  O13  1  0.61943800  0.13323100  0.87790300  1
  O  O14  1  0.88755300  0.61983300  0.63766300  1
  O  O15  1  0.86024700  0.10791600  0.61026900  1
  O  O16  1  0.36054200  0.12132700  0.61327800  1
  O  O17  1  0.87456900  0.88465800  0.39000700  1
  O  O18  1  0.36190900  0.88382100  0.38231300  1
  O  O19  1  0.88238800  0.38277400  0.37157000  1
  O  O20  1  0.12007300  0.61683200  0.37407000  1
  O  O21  1  0.63530400  0.12336000  0.39212600  1
  O  O22  1  0.14001900  0.11165900  0.38796300  1
  O  O23  1  0.62008800  0.86081200  0.11492800  1
  F  F24  1  0.87778900  0.87780400  0.87477400  1
  F  F25  1  0.12392700  0.11964600  0.87631200  1
  F  F26  1  0.63408100  0.88329300  0.62099200  1
  F  F27  1  0.13099500  0.88274800  0.61855900  1
  F  F28  1  0.37968000  0.62259300  0.62018100  1
  F  F29  1  0.62163800  0.37868400  0.62622500  1
  F  F30  1  0.12041300  0.38169600  0.63270500  1
  F  F31  1  0.62168300  0.62597400  0.37775500  1
  F  F32  1  0.37162000  0.37890800  0.37787300  1
  F  F33  1  0.90243000  0.59612500  0.11465900  1
  F  F34  1  0.38510500  0.62810700  0.12083800  1
  F  F35  1  0.59478700  0.34910400  0.13730800  1
  F  F36  1  0.12390000  0.87755300  0.12185800  1
  F  F37  1  0.87890300  0.12419300  0.12387200  1
  F  F38  1  0.09576500  0.40212400  0.11420400  1
  F  F39  1  0.40414700  0.15347800  0.13129800  1
