# generated using pymatgen
data_In(HO)3
_symmetry_space_group_name_H-M   'P 1'
_cell_length_a   11.45138745
_cell_length_b   11.45138745
_cell_length_c   6.98602103
_cell_angle_alpha   90.00000000
_cell_angle_beta   90.00000000
_cell_angle_gamma   120.00000000
_symmetry_Int_Tables_number   1
_chemical_formula_structural   In(HO)3
_chemical_formula_sum   'In12 H36 O36'
_cell_volume   793.37176092
_cell_formula_units_Z   12
loop_
 _symmetry_equiv_pos_site_id
 _symmetry_equiv_pos_as_xyz
  1  'x, y, z'
loop_
 _atom_site_type_symbol
 _atom_site_label
 _atom_site_symmetry_multiplicity
 _atom_site_fract_x
 _atom_site_fract_y
 _atom_site_fract_z
 _atom_site_occupancy
  In  In0  1  0.16666667  0.33333333  0.83333333  1
  In  In1  1  0.33333333  0.16666667  0.16666667  1
  In  In2  1  0.16666667  0.83333333  0.83333333  1
  In  In3  1  0.00000000  0.00000000  0.50000000  1
  In  In4  1  0.83333333  0.66666667  0.16666667  1
  In  In5  1  0.00000000  0.50000000  0.50000000  1
  In  In6  1  0.83333333  0.16666667  0.16666667  1
  In  In7  1  0.66666667  0.33333333  0.83333333  1
  In  In8  1  0.50000000  0.00000000  0.50000000  1
  In  In9  1  0.66666667  0.83333333  0.83333333  1
  In  In10  1  0.50000000  0.50000000  0.50000000  1
  In  In11  1  0.33333333  0.66666667  0.16666667  1
  H  H12  1  0.31169767  0.06879733  0.51440633  1
  H  H13  1  0.35496900  0.26453600  0.81892700  1
  H  H14  1  0.47099900  0.25858500  0.57543400  1
  H  H15  1  0.19566767  0.07474833  0.75789933  1
  H  H16  1  0.42376633  0.02163567  0.84773967  1
  H  H17  1  0.24290033  0.31169767  0.48559367  1
  H  H18  1  0.12091933  0.19566767  0.24210067  1
  H  H19  1  0.54574733  0.13766567  0.09123267  1
  H  H20  1  0.26453600  0.90956700  0.18107300  1
  H  H21  1  0.40213067  0.42376633  0.15226033  1
  H  H22  1  0.40808167  0.54574733  0.90876733  1
  H  H23  1  0.25858500  0.78758600  0.42456600  1
  H  H24  1  0.97836433  0.40213067  0.84773967  1
  H  H25  1  0.02163567  0.59786933  0.15226033  1
  H  H26  1  0.13766567  0.59191833  0.90876733  1
  H  H27  1  0.86233433  0.40808167  0.09123267  1
  H  H28  1  0.09043300  0.35496900  0.18107300  1
  H  H29  1  0.90956700  0.64503100  0.81892700  1
  H  H30  1  0.78758600  0.52900100  0.57543400  1
  H  H31  1  0.21241400  0.47099900  0.42456600  1
  H  H32  1  0.93120267  0.24290033  0.51440633  1
  H  H33  1  0.06879733  0.75709967  0.48559367  1
  H  H34  1  0.07474833  0.87908067  0.24210067  1
  H  H35  1  0.92525167  0.12091933  0.75789933  1
  H  H36  1  0.64503100  0.73546400  0.18107300  1
  H  H37  1  0.68830233  0.93120267  0.48559367  1
  H  H38  1  0.80433233  0.92525167  0.24210067  1
  H  H39  1  0.52900100  0.74141500  0.42456600  1
  H  H40  1  0.75709967  0.68830233  0.51440633  1
  H  H41  1  0.57623367  0.97836433  0.15226033  1
  H  H42  1  0.45425267  0.86233433  0.90876733  1
  H  H43  1  0.87908067  0.80433233  0.75789933  1
  H  H44  1  0.59786933  0.57623367  0.84773967  1
  H  H45  1  0.73546400  0.09043300  0.81892700  1
  H  H46  1  0.74141500  0.21241400  0.57543400  1
  H  H47  1  0.59191833  0.45425267  0.09123267  1
  O  O48  1  0.39488167  0.11418133  0.43637233  1
  O  O49  1  0.27178500  0.21915200  0.89696100  1
  O  O50  1  0.50809300  0.33914400  0.66116200  1
  O  O51  1  0.15857367  0.99418933  0.67217133  1
  O  O52  1  0.38596633  0.93845167  0.76970567  1
  O  O53  1  0.28070033  0.39488167  0.56362767  1
  O  O54  1  0.16438433  0.15857367  0.32782867  1
  O  O55  1  0.50228233  0.17475967  0.00550467  1
  O  O56  1  0.21915200  0.94736700  0.10303900  1
  O  O57  1  0.44751467  0.38596633  0.23029433  1
  O  O58  1  0.32752267  0.50228233  0.99449533  1
  O  O59  1  0.33914400  0.83105100  0.33883800  1
  O  O60  1  0.06154833  0.44751467  0.76970567  1
  O  O61  1  0.93845167  0.55248533  0.23029433  1
  O  O62  1  0.17475967  0.67247733  0.99449533  1
  O  O63  1  0.82524033  0.32752267  0.00550467  1
  O  O64  1  0.05263300  0.27178500  0.10303900  1
  O  O65  1  0.94736700  0.72821500  0.89696100  1
  O  O66  1  0.83105100  0.49190700  0.66116200  1
  O  O67  1  0.16894900  0.50809300  0.33883800  1
  O  O68  1  0.88581867  0.28070033  0.43637233  1
  O  O69  1  0.11418133  0.71929967  0.56362767  1
  O  O70  1  0.99418933  0.83561567  0.32782867  1
  O  O71  1  0.00581067  0.16438433  0.67217133  1
  O  O72  1  0.72821500  0.78084800  0.10303900  1
  O  O73  1  0.60511833  0.88581867  0.56362767  1
  O  O74  1  0.84142633  0.00581067  0.32782867  1
  O  O75  1  0.49190700  0.66085600  0.33883800  1
  O  O76  1  0.71929967  0.60511833  0.43637233  1
  O  O77  1  0.61403367  0.06154833  0.23029433  1
  O  O78  1  0.49771767  0.82524033  0.99449533  1
  O  O79  1  0.83561567  0.84142633  0.67217133  1
  O  O80  1  0.55248533  0.61403367  0.76970567  1
  O  O81  1  0.78084800  0.05263300  0.89696100  1
  O  O82  1  0.66085600  0.16894900  0.66116200  1
  O  O83  1  0.67247733  0.49771767  0.00550467  1
