# generated using pymatgen
data_Sb2H20(Cl4O3)3
_symmetry_space_group_name_H-M   'P 1'
_cell_length_a   20.59110800
_cell_length_b   12.14322400
_cell_length_c   12.64130305
_cell_angle_alpha   90.00000000
_cell_angle_beta   125.54404360
_cell_angle_gamma   90.00000000
_symmetry_Int_Tables_number   1
_chemical_formula_structural   Sb2H20(Cl4O3)3
_chemical_formula_sum   'Sb8 H80 Cl48 O36'
_cell_volume   2571.89524846
_cell_formula_units_Z   4
loop_
 _symmetry_equiv_pos_site_id
 _symmetry_equiv_pos_as_xyz
  1  'x, y, z'
loop_
 _atom_site_type_symbol
 _atom_site_label
 _atom_site_symmetry_multiplicity
 _atom_site_fract_x
 _atom_site_fract_y
 _atom_site_fract_z
 _atom_site_occupancy
  Sb  Sb0  1  0.39695400  0.25228500  0.93661500  1
  Sb  Sb1  1  0.10304600  0.24771500  0.06338500  1
  Sb  Sb2  1  0.39695400  0.74771500  0.43661500  1
  Sb  Sb3  1  0.10304600  0.75228500  0.56338500  1
  Sb  Sb4  1  0.89695400  0.75228500  0.93661500  1
  Sb  Sb5  1  0.60304600  0.74771500  0.06338500  1
  Sb  Sb6  1  0.89695400  0.24771500  0.43661500  1
  Sb  Sb7  1  0.60304600  0.25228500  0.56338500  1
  H  H8  1  0.17630600  0.66955400  0.33080300  1
  H  H9  1  0.32369400  0.83044600  0.66919700  1
  H  H10  1  0.67630600  0.83044600  0.83080300  1
  H  H11  1  0.82369400  0.66955400  0.16919700  1
  H  H12  1  0.10150950  0.60382250  0.22225800  1
  H  H13  1  0.39849050  0.89617750  0.77774200  1
  H  H14  1  0.60150950  0.89617750  0.72225800  1
  H  H15  1  0.89849050  0.60382250  0.27774200  1
  H  H16  1  0.20528150  0.50356850  0.39174400  1
  H  H17  1  0.29471850  0.99643150  0.60825600  1
  H  H18  1  0.70528150  0.99643150  0.89174400  1
  H  H19  1  0.79471850  0.50356850  0.10825600  1
  H  H20  1  0.29196200  0.41651600  0.49962000  1
  H  H21  1  0.20803800  0.08348400  0.50038000  1
  H  H22  1  0.79196200  0.08348400  0.99962000  1
  H  H23  1  0.70803800  0.41651600  0.00038000  1
  H  H24  1  0.19931750  0.41716950  0.48895000  1
  H  H25  1  0.30068250  0.08283050  0.51105000  1
  H  H26  1  0.69931750  0.08283050  0.98895000  1
  H  H27  1  0.80068250  0.41716950  0.01105000  1
  H  H28  1  0.85816500  0.79948700  0.50164500  1
  H  H29  1  0.64183500  0.70051300  0.49835500  1
  H  H30  1  0.85816500  0.20051300  0.00164500  1
  H  H31  1  0.64183500  0.29948700  0.99835500  1
  H  H32  1  0.90603450  0.89423950  0.61447000  1
  H  H33  1  0.59396550  0.60576050  0.38553000  1
  H  H34  1  0.40603450  0.60576050  0.11447000  1
  H  H35  1  0.09396550  0.89423950  0.88553000  1
  H  H36  1  0.83443050  0.63823150  0.37970400  1
  H  H37  1  0.66556950  0.86176850  0.62029600  1
  H  H38  1  0.33443050  0.86176850  0.87970400  1
  H  H39  1  0.16556950  0.63823150  0.12029600  1
  H  H40  1  0.90717500  0.62839400  0.52538800  1
  H  H41  1  0.59282500  0.87160600  0.47461200  1
  H  H42  1  0.90717500  0.37160600  0.02538800  1
  H  H43  1  0.59282500  0.12839400  0.97461200  1
  H  H44  1  0.48688900  0.50369400  0.79693000  1
  H  H45  1  0.01311100  0.99630600  0.20307000  1
  H  H46  1  0.48688900  0.49630600  0.29693000  1
  H  H47  1  0.01311100  0.00369400  0.70307000  1
  H  H48  1  0.67630600  0.16955400  0.33080300  1
  H  H49  1  0.82369400  0.33044600  0.66919700  1
  H  H50  1  0.17630600  0.33044600  0.83080300  1
  H  H51  1  0.32369400  0.16955400  0.16919700  1
  H  H52  1  0.60150950  0.10382250  0.22225800  1
  H  H53  1  0.89849050  0.39617750  0.77774200  1
  H  H54  1  0.10150950  0.39617750  0.72225800  1
  H  H55  1  0.39849050  0.10382250  0.27774200  1
  H  H56  1  0.70528150  0.00356850  0.39174400  1
  H  H57  1  0.79471850  0.49643150  0.60825600  1
  H  H58  1  0.20528150  0.49643150  0.89174400  1
  H  H59  1  0.29471850  0.00356850  0.10825600  1
  H  H60  1  0.79196200  0.91651600  0.49962000  1
  H  H61  1  0.70803800  0.58348400  0.50038000  1
  H  H62  1  0.29196200  0.58348400  0.99962000  1
  H  H63  1  0.20803800  0.91651600  0.00038000  1
  H  H64  1  0.69931750  0.91716950  0.48895000  1
  H  H65  1  0.80068250  0.58283050  0.51105000  1
  H  H66  1  0.19931750  0.58283050  0.98895000  1
  H  H67  1  0.30068250  0.91716950  0.01105000  1
  H  H68  1  0.35816500  0.29948700  0.50164500  1
  H  H69  1  0.14183500  0.20051300  0.49835500  1
  H  H70  1  0.35816500  0.70051300  0.00164500  1
  H  H71  1  0.14183500  0.79948700  0.99835500  1
  H  H72  1  0.40603450  0.39423950  0.61447000  1
  H  H73  1  0.09396550  0.10576050  0.38553000  1
  H  H74  1  0.90603450  0.10576050  0.11447000  1
  H  H75  1  0.59396550  0.39423950  0.88553000  1
  H  H76  1  0.33443050  0.13823150  0.37970400  1
  H  H77  1  0.16556950  0.36176850  0.62029600  1
  H  H78  1  0.83443050  0.36176850  0.87970400  1
  H  H79  1  0.66556950  0.13823150  0.12029600  1
  H  H80  1  0.40717500  0.12839400  0.52538800  1
  H  H81  1  0.09282500  0.37160600  0.47461200  1
  H  H82  1  0.40717500  0.87160600  0.02538800  1
  H  H83  1  0.09282500  0.62839400  0.97461200  1
  H  H84  1  0.98688900  0.00369400  0.79693000  1
  H  H85  1  0.51311100  0.49630600  0.20307000  1
  H  H86  1  0.98688900  0.99630600  0.29693000  1
  H  H87  1  0.51311100  0.50369400  0.70307000  1
  Cl  Cl88  1  0.44085550  0.17712850  0.80906300  1
  Cl  Cl89  1  0.05914450  0.32287150  0.19093700  1
  Cl  Cl90  1  0.44085550  0.82287150  0.30906300  1
  Cl  Cl91  1  0.05914450  0.67712850  0.69093700  1
  Cl  Cl92  1  0.27309200  0.15477400  0.80347900  1
  Cl  Cl93  1  0.22690800  0.34522600  0.19652100  1
  Cl  Cl94  1  0.27309200  0.84522600  0.30347900  1
  Cl  Cl95  1  0.22690800  0.65477400  0.69652100  1
  Cl  Cl96  1  0.95561850  0.59206850  0.07880300  1
  Cl  Cl97  1  0.54438150  0.90793150  0.92119700  1
  Cl  Cl98  1  0.45561850  0.90793150  0.57880300  1
  Cl  Cl99  1  0.04438150  0.59206850  0.42119700  1
  Cl  Cl100  1  0.85546850  0.82326150  0.06696800  1
  Cl  Cl101  1  0.64453150  0.67673850  0.93303200  1
  Cl  Cl102  1  0.35546850  0.67673850  0.56696800  1
  Cl  Cl103  1  0.14453150  0.82326150  0.43303200  1
  Cl  Cl104  1  0.02290050  0.84652750  0.07254000  1
  Cl  Cl105  1  0.47709950  0.65347250  0.92746000  1
  Cl  Cl106  1  0.52290050  0.65347250  0.57254000  1
  Cl  Cl107  1  0.97709950  0.84652750  0.42746000  1
  Cl  Cl108  1  0.84218850  0.91007150  0.79691600  1
  Cl  Cl109  1  0.65781150  0.58992850  0.20308400  1
  Cl  Cl110  1  0.34218850  0.58992850  0.29691600  1
  Cl  Cl111  1  0.15781150  0.91007150  0.70308400  1
  Cl  Cl112  1  0.94085550  0.67712850  0.80906300  1
  Cl  Cl113  1  0.55914450  0.82287150  0.19093700  1
  Cl  Cl114  1  0.94085550  0.32287150  0.30906300  1
  Cl  Cl115  1  0.55914450  0.17712850  0.69093700  1
  Cl  Cl116  1  0.77309200  0.65477400  0.80347900  1
  Cl  Cl117  1  0.72690800  0.84522600  0.19652100  1
  Cl  Cl118  1  0.77309200  0.34522600  0.30347900  1
  Cl  Cl119  1  0.72690800  0.15477400  0.69652100  1
  Cl  Cl120  1  0.45561850  0.09206850  0.07880300  1
  Cl  Cl121  1  0.04438150  0.40793150  0.92119700  1
  Cl  Cl122  1  0.95561850  0.40793150  0.57880300  1
  Cl  Cl123  1  0.54438150  0.09206850  0.42119700  1
  Cl  Cl124  1  0.35546850  0.32326150  0.06696800  1
  Cl  Cl125  1  0.14453150  0.17673850  0.93303200  1
  Cl  Cl126  1  0.85546850  0.17673850  0.56696800  1
  Cl  Cl127  1  0.64453150  0.32326150  0.43303200  1
  Cl  Cl128  1  0.52290050  0.34652750  0.07254000  1
  Cl  Cl129  1  0.97709950  0.15347250  0.92746000  1
  Cl  Cl130  1  0.02290050  0.15347250  0.57254000  1
  Cl  Cl131  1  0.47709950  0.34652750  0.42746000  1
  Cl  Cl132  1  0.34218850  0.41007150  0.79691600  1
  Cl  Cl133  1  0.15781150  0.08992850  0.20308400  1
  Cl  Cl134  1  0.84218850  0.08992850  0.29691600  1
  Cl  Cl135  1  0.65781150  0.41007150  0.70308400  1
  O  O136  1  0.15996650  0.60501350  0.27327100  1
  O  O137  1  0.34003350  0.89498650  0.72672900  1
  O  O138  1  0.65996650  0.89498650  0.77327100  1
  O  O139  1  0.84003350  0.60501350  0.22672900  1
  O  O140  1  0.23534850  0.46058350  0.47519300  1
  O  O141  1  0.26465150  0.03941650  0.52480700  1
  O  O142  1  0.73534850  0.03941650  0.97519300  1
  O  O143  1  0.76465150  0.46058350  0.02480700  1
  O  O144  1  0.35725400  0.37683400  0.52672500  1
  O  O145  1  0.14274600  0.12316600  0.47327500  1
  O  O146  1  0.35725400  0.62316600  0.02672500  1
  O  O147  1  0.14274600  0.87683400  0.97327500  1
  O  O148  1  0.85232500  0.65607400  0.46931500  1
  O  O149  1  0.64767500  0.84392600  0.53068500  1
  O  O150  1  0.35232500  0.84392600  0.96931500  1
  O  O151  1  0.14767500  0.65607400  0.03068500  1
  O  O152  1  0.00000000  0.95464600  0.75000000  1
  O  O153  1  0.50000000  0.54535400  0.25000000  1
  O  O154  1  0.65996650  0.10501350  0.27327100  1
  O  O155  1  0.84003350  0.39498650  0.72672900  1
  O  O156  1  0.15996650  0.39498650  0.77327100  1
  O  O157  1  0.34003350  0.10501350  0.22672900  1
  O  O158  1  0.73534850  0.96058350  0.47519300  1
  O  O159  1  0.76465150  0.53941650  0.52480700  1
  O  O160  1  0.23534850  0.53941650  0.97519300  1
  O  O161  1  0.26465150  0.96058350  0.02480700  1
  O  O162  1  0.85725400  0.87683400  0.52672500  1
  O  O163  1  0.64274600  0.62316600  0.47327500  1
  O  O164  1  0.85725400  0.12316600  0.02672500  1
  O  O165  1  0.64274600  0.37683400  0.97327500  1
  O  O166  1  0.35232500  0.15607400  0.46931500  1
  O  O167  1  0.14767500  0.34392600  0.53068500  1
  O  O168  1  0.85232500  0.34392600  0.96931500  1
  O  O169  1  0.64767500  0.15607400  0.03068500  1
  O  O170  1  0.50000000  0.45464600  0.75000000  1
  O  O171  1  0.00000000  0.04535400  0.25000000  1
