# generated using pymatgen
data_K2ThF6
_symmetry_space_group_name_H-M   'P 1'
_cell_length_a   7.42698400
_cell_length_b   12.79870400
_cell_length_c   7.28276251
_cell_angle_alpha   90.00000000
_cell_angle_beta   107.77554107
_cell_angle_gamma   90.00000000
_symmetry_Int_Tables_number   1
_chemical_formula_structural   K2ThF6
_chemical_formula_sum   'K8 Th4 F24'
_cell_volume   659.21955834
_cell_formula_units_Z   4
loop_
 _symmetry_equiv_pos_site_id
 _symmetry_equiv_pos_as_xyz
  1  'x, y, z'
loop_
 _atom_site_type_symbol
 _atom_site_label
 _atom_site_symmetry_multiplicity
 _atom_site_fract_x
 _atom_site_fract_y
 _atom_site_fract_z
 _atom_site_occupancy
  K  K0  1  0.50000000  0.58549700  0.75000000  1
  K  K1  1  0.50000000  0.25730800  0.75000000  1
  K  K2  1  0.50000000  0.41450300  0.25000000  1
  K  K3  1  0.50000000  0.74269200  0.25000000  1
  K  K4  1  0.00000000  0.08549700  0.75000000  1
  K  K5  1  0.00000000  0.75730800  0.75000000  1
  K  K6  1  0.00000000  0.91450300  0.25000000  1
  K  K7  1  0.00000000  0.24269200  0.25000000  1
  Th  Th8  1  0.50000000  0.91571500  0.75000000  1
  Th  Th9  1  0.50000000  0.08428500  0.25000000  1
  Th  Th10  1  0.00000000  0.41571500  0.75000000  1
  Th  Th11  1  0.00000000  0.58428500  0.25000000  1
  F  F12  1  0.17919750  0.92366550  0.63547800  1
  F  F13  1  0.60479000  0.77315900  0.62731400  1
  F  F14  1  0.82080250  0.07633450  0.36452200  1
  F  F15  1  0.59518550  0.92949350  0.10777600  1
  F  F16  1  0.40481450  0.92949350  0.39222400  1
  F  F17  1  0.59518550  0.07050650  0.60777600  1
  F  F18  1  0.60479000  0.22684100  0.12731400  1
  F  F19  1  0.40481450  0.07050650  0.89222400  1
  F  F20  1  0.39521000  0.22684100  0.37268600  1
  F  F21  1  0.17919750  0.07633450  0.13547800  1
  F  F22  1  0.82080250  0.92366550  0.86452200  1
  F  F23  1  0.39521000  0.77315900  0.87268600  1
  F  F24  1  0.67919750  0.42366550  0.63547800  1
  F  F25  1  0.10479000  0.27315900  0.62731400  1
  F  F26  1  0.32080250  0.57633450  0.36452200  1
  F  F27  1  0.09518550  0.42949350  0.10777600  1
  F  F28  1  0.90481450  0.42949350  0.39222400  1
  F  F29  1  0.09518550  0.57050650  0.60777600  1
  F  F30  1  0.10479000  0.72684100  0.12731400  1
  F  F31  1  0.90481450  0.57050650  0.89222400  1
  F  F32  1  0.89521000  0.72684100  0.37268600  1
  F  F33  1  0.67919750  0.57633450  0.13547800  1
  F  F34  1  0.32080250  0.42366550  0.86452200  1
  F  F35  1  0.89521000  0.27315900  0.87268600  1
