# generated using pymatgen
data_CuH12N2(Cl2O)2
_symmetry_space_group_name_H-M   'P 1'
_cell_length_a   7.66807700
_cell_length_b   7.66807700
_cell_length_c   8.11293800
_cell_angle_alpha   90.00000000
_cell_angle_beta   90.00000000
_cell_angle_gamma   90.00000000
_symmetry_Int_Tables_number   1
_chemical_formula_structural   CuH12N2(Cl2O)2
_chemical_formula_sum   'Cu2 H24 N4 Cl8 O4'
_cell_volume   477.03592621
_cell_formula_units_Z   2
loop_
 _symmetry_equiv_pos_site_id
 _symmetry_equiv_pos_as_xyz
  1  'x, y, z'
loop_
 _atom_site_type_symbol
 _atom_site_label
 _atom_site_symmetry_multiplicity
 _atom_site_fract_x
 _atom_site_fract_y
 _atom_site_fract_z
 _atom_site_occupancy
  Cu  Cu0  1  0.50000000  0.50000000  0.00000000  1
  Cu  Cu1  1  0.00000000  0.00000000  0.50000000  1
  H  H2  1  0.42570200  0.57429800  0.31262200  1
  H  H3  1  0.57429800  0.42570200  0.31262200  1
  H  H4  1  0.07429800  0.07429800  0.81262200  1
  H  H5  1  0.92570200  0.92570200  0.81262200  1
  H  H6  1  0.57429800  0.42570200  0.68737800  1
  H  H7  1  0.42570200  0.57429800  0.68737800  1
  H  H8  1  0.92570200  0.92570200  0.18737800  1
  H  H9  1  0.07429800  0.07429800  0.18737800  1
  H  H10  1  0.08672700  0.56827000  0.32355700  1
  H  H11  1  0.91327300  0.43173000  0.32355700  1
  H  H12  1  0.41327300  0.06827000  0.82355700  1
  H  H13  1  0.58672700  0.93173000  0.82355700  1
  H  H14  1  0.91327300  0.43173000  0.67644300  1
  H  H15  1  0.08672700  0.56827000  0.67644300  1
  H  H16  1  0.58672700  0.93173000  0.17644300  1
  H  H17  1  0.41327300  0.06827000  0.17644300  1
  H  H18  1  0.56827000  0.08672700  0.32355700  1
  H  H19  1  0.43173000  0.91327300  0.32355700  1
  H  H20  1  0.06827000  0.41327300  0.82355700  1
  H  H21  1  0.93173000  0.58672700  0.82355700  1
  H  H22  1  0.43173000  0.91327300  0.67644300  1
  H  H23  1  0.56827000  0.08672700  0.67644300  1
  H  H24  1  0.93173000  0.58672700  0.17644300  1
  H  H25  1  0.06827000  0.41327300  0.17644300  1
  N  N26  1  0.00000000  0.50000000  0.25000000  1
  N  N27  1  0.50000000  0.00000000  0.75000000  1
  N  N28  1  0.00000000  0.50000000  0.75000000  1
  N  N29  1  0.50000000  0.00000000  0.25000000  1
  Cl  Cl30  1  0.29134600  0.70865400  0.00000000  1
  Cl  Cl31  1  0.70865400  0.29134600  0.00000000  1
  Cl  Cl32  1  0.20865400  0.20865400  0.50000000  1
  Cl  Cl33  1  0.79134600  0.79134600  0.50000000  1
  Cl  Cl34  1  0.28351000  0.71649000  0.50000000  1
  Cl  Cl35  1  0.71649000  0.28351000  0.50000000  1
  Cl  Cl36  1  0.21649000  0.21649000  0.00000000  1
  Cl  Cl37  1  0.78351000  0.78351000  0.00000000  1
  O  O38  1  0.50000000  0.50000000  0.24140000  1
  O  O39  1  0.00000000  0.00000000  0.74140000  1
  O  O40  1  0.50000000  0.50000000  0.75860000  1
  O  O41  1  0.00000000  0.00000000  0.25860000  1
