# generated using pymatgen
data_Y2Te4O11
_symmetry_space_group_name_H-M   'P 1'
_cell_length_a   12.52515400
_cell_length_b   5.18439000
_cell_length_c   16.28787562
_cell_angle_alpha   90.00000000
_cell_angle_beta   105.39137460
_cell_angle_gamma   90.00000000
_symmetry_Int_Tables_number   1
_chemical_formula_structural   Y2Te4O11
_chemical_formula_sum   'Y8 Te16 O44'
_cell_volume   1019.72530984
_cell_formula_units_Z   4
loop_
 _symmetry_equiv_pos_site_id
 _symmetry_equiv_pos_as_xyz
  1  'x, y, z'
loop_
 _atom_site_type_symbol
 _atom_site_label
 _atom_site_symmetry_multiplicity
 _atom_site_fract_x
 _atom_site_fract_y
 _atom_site_fract_z
 _atom_site_occupancy
  Y  Y0  1  0.11813950  0.74815650  0.53706500  1
  Y  Y1  1  0.38186050  0.24815650  0.96293500  1
  Y  Y2  1  0.61813950  0.75184350  0.03706500  1
  Y  Y3  1  0.88186050  0.25184350  0.46293500  1
  Y  Y4  1  0.61813950  0.24815650  0.53706500  1
  Y  Y5  1  0.88186050  0.74815650  0.96293500  1
  Y  Y6  1  0.11813950  0.25184350  0.03706500  1
  Y  Y7  1  0.38186050  0.75184350  0.46293500  1
  Te  Te8  1  0.87189050  0.28112750  0.12575500  1
  Te  Te9  1  0.62139150  0.22233150  0.19834100  1
  Te  Te10  1  0.87860850  0.72233150  0.30165900  1
  Te  Te11  1  0.12810950  0.28112750  0.37424500  1
  Te  Te12  1  0.87189050  0.71887250  0.62575500  1
  Te  Te13  1  0.12139150  0.27766850  0.69834100  1
  Te  Te14  1  0.12810950  0.71887250  0.87424500  1
  Te  Te15  1  0.37860850  0.77766850  0.80165900  1
  Te  Te16  1  0.37189050  0.78112750  0.12575500  1
  Te  Te17  1  0.12139150  0.72233150  0.19834100  1
  Te  Te18  1  0.37860850  0.22233150  0.30165900  1
  Te  Te19  1  0.62810950  0.78112750  0.37424500  1
  Te  Te20  1  0.37189050  0.21887250  0.62575500  1
  Te  Te21  1  0.62139150  0.77766850  0.69834100  1
  Te  Te22  1  0.62810950  0.21887250  0.87424500  1
  Te  Te23  1  0.87860850  0.27766850  0.80165900  1
  O  O24  1  0.00000000  0.85098500  0.25000000  1
  O  O25  1  0.93024600  0.10906800  0.04453700  1
  O  O26  1  0.85128750  0.06090850  0.33086400  1
  O  O27  1  0.24664900  0.43729700  0.62789700  1
  O  O28  1  0.06975400  0.89093200  0.95546300  1
  O  O29  1  0.35128750  0.43909150  0.83086400  1
  O  O30  1  0.00000000  0.14901500  0.75000000  1
  O  O31  1  0.14871250  0.93909150  0.66913600  1
  O  O32  1  0.75335100  0.56270300  0.37210300  1
  O  O33  1  0.93024600  0.89093200  0.54453700  1
  O  O34  1  0.20632500  0.54596700  0.44583200  1
  O  O35  1  0.25335100  0.93729700  0.87210300  1
  O  O36  1  0.97427250  0.42003550  0.90310400  1
  O  O37  1  0.79367500  0.45403300  0.55416800  1
  O  O38  1  0.74664900  0.06270300  0.12789700  1
  O  O39  1  0.79367500  0.54596700  0.05416800  1
  O  O40  1  0.20632500  0.45403300  0.94583200  1
  O  O41  1  0.64871250  0.56090850  0.16913600  1
  O  O42  1  0.97427250  0.57996450  0.40310400  1
  O  O43  1  0.02572750  0.57996450  0.09689600  1
  O  O44  1  0.06975400  0.10906800  0.45546300  1
  O  O45  1  0.02572750  0.42003550  0.59689600  1
  O  O46  1  0.50000000  0.35098500  0.25000000  1
  O  O47  1  0.43024600  0.60906800  0.04453700  1
  O  O48  1  0.35128750  0.56090850  0.33086400  1
  O  O49  1  0.74664900  0.93729700  0.62789700  1
  O  O50  1  0.56975400  0.39093200  0.95546300  1
  O  O51  1  0.85128750  0.93909150  0.83086400  1
  O  O52  1  0.50000000  0.64901500  0.75000000  1
  O  O53  1  0.64871250  0.43909150  0.66913600  1
  O  O54  1  0.25335100  0.06270300  0.37210300  1
  O  O55  1  0.43024600  0.39093200  0.54453700  1
  O  O56  1  0.70632500  0.04596700  0.44583200  1
  O  O57  1  0.75335100  0.43729700  0.87210300  1
  O  O58  1  0.47427250  0.92003550  0.90310400  1
  O  O59  1  0.29367500  0.95403300  0.55416800  1
  O  O60  1  0.24664900  0.56270300  0.12789700  1
  O  O61  1  0.29367500  0.04596700  0.05416800  1
  O  O62  1  0.70632500  0.95403300  0.94583200  1
  O  O63  1  0.14871250  0.06090850  0.16913600  1
  O  O64  1  0.47427250  0.07996450  0.40310400  1
  O  O65  1  0.52572750  0.07996450  0.09689600  1
  O  O66  1  0.56975400  0.60906800  0.45546300  1
  O  O67  1  0.52572750  0.92003550  0.59689600  1
