# generated using pymatgen
data_SrAl7Tl5Si5O24
_symmetry_space_group_name_H-M   'P 1'
_cell_length_a   12.48342000
_cell_length_b   12.56027191
_cell_length_c   12.56478441
_cell_angle_alpha   91.08837218
_cell_angle_beta   90.17054989
_cell_angle_gamma   90.30837019
_symmetry_Int_Tables_number   1
_chemical_formula_structural   SrAl7Tl5Si5O24
_chemical_formula_sum   'Sr2 Al14 Tl10 Si10 O48'
_cell_volume   1969.70395347
_cell_formula_units_Z   2
loop_
 _symmetry_equiv_pos_site_id
 _symmetry_equiv_pos_as_xyz
  1  'x, y, z'
loop_
 _atom_site_type_symbol
 _atom_site_label
 _atom_site_symmetry_multiplicity
 _atom_site_fract_x
 _atom_site_fract_y
 _atom_site_fract_z
 _atom_site_occupancy
  Sr  Sr0  1  0.82540400  0.69022300  0.35075600  1
  Sr  Sr1  1  0.28153700  0.51723800  0.45704800  1
  Al  Al2  1  0.18423400  0.37086600  0.00603600  1
  Al  Al3  1  0.36822300  0.16828400  0.00000900  1
  Al  Al4  1  0.80814000  0.36829400  0.01075400  1
  Al  Al5  1  0.00783200  0.81869700  0.37602800  1
  Al  Al6  1  0.80991200  0.99295900  0.37454600  1
  Al  Al7  1  0.00368900  0.17736700  0.36385400  1
  Al  Al8  1  0.18387400  0.99650400  0.61693800  1
  Al  Al9  1  0.99028000  0.80005700  0.61673500  1
  Al  Al10  1  0.81460800  0.00527200  0.63338200  1
  Al  Al11  1  0.00082200  0.17946900  0.63291100  1
  Al  Al12  1  0.36488200  0.97721700  0.82114000  1
  Al  Al13  1  0.62585000  0.98471200  0.83103200  1
  Al  Al14  1  0.99826200  0.63326700  0.83287400  1
  Al  Al15  1  0.99259800  0.37358000  0.82061500  1
  Tl  Tl16  1  0.25237100  0.75342600  0.26086500  1
  Tl  Tl17  1  0.01408500  0.40891300  0.54462600  1
  Tl  Tl18  1  0.68433000  0.82377300  0.59611900  1
  Tl  Tl19  1  0.27314700  0.77554600  0.62453600  1
  Tl  Tl20  1  0.88869900  0.99850400  0.14721500  1
  Tl  Tl21  1  0.13413400  0.15257000  0.12203500  1
  Tl  Tl22  1  0.12316700  0.87046800  0.86274500  1
  Tl  Tl23  1  0.86051200  0.86820500  0.85531600  1
  Tl  Tl24  1  0.14109600  0.15006900  0.85621900  1
  Tl  Tl25  1  0.87259200  0.14112200  0.87868300  1
  Si  Si26  1  0.37476200  0.80158500  0.01137300  1
  Si  Si27  1  0.18768500  0.62362900  0.00369800  1
  Si  Si28  1  0.62250400  0.80267200  0.01240700  1
  Si  Si29  1  0.81209700  0.62608900  0.01857200  1
  Si  Si30  1  0.63048500  0.17052100  0.00748900  1
  Si  Si31  1  0.62056800  0.99320300  0.18599000  1
  Si  Si32  1  0.99623900  0.37411600  0.19269700  1
  Si  Si33  1  0.37514200  0.99077900  0.18667000  1
  Si  Si34  1  0.00348700  0.62149300  0.18402200  1
  Si  Si35  1  0.19327400  0.00632300  0.36940900  1
  O  O36  1  0.29069800  0.70317700  0.03267900  1
  O  O37  1  0.70735200  0.70538700  0.03226800  1
  O  O38  1  0.50415600  0.19212700  0.99712200  1
  O  O39  1  0.77320200  0.50487900  0.00936000  1
  O  O40  1  0.70281900  0.27633300  0.02050000  1
  O  O41  1  0.62815400  0.87938600  0.11861600  1
  O  O42  1  0.10554800  0.35661900  0.12319600  1
  O  O43  1  0.36166500  0.87314500  0.12352100  1
  O  O44  1  0.10614700  0.64241200  0.10780000  1
  O  O45  1  0.88950400  0.35399900  0.12421200  1
  O  O46  1  0.65376400  0.09379900  0.11295600  1
  O  O47  1  0.88225100  0.64618000  0.13497400  1
  O  O48  1  0.33833800  0.08618500  0.11198900  1
  O  O49  1  0.49723800  0.00327300  0.23012000  1
  O  O50  1  0.00152300  0.50315200  0.23639400  1
  O  O51  1  0.00292100  0.29927200  0.29657600  1
  O  O52  1  0.70385600  0.98519300  0.28309300  1
  O  O53  1  0.29616400  0.97819900  0.28977300  1
  O  O54  1  0.01445900  0.70723200  0.28237900  1
  O  O55  1  0.12131100  0.89512200  0.35385000  1
  O  O56  1  0.87954100  0.86930600  0.34201100  1
  O  O57  1  0.12913300  0.11153300  0.32949400  1
  O  O58  1  0.89983100  0.08919500  0.32624200  1
  O  O59  1  0.23656800  0.01877900  0.48999800  1
  O  O60  1  0.97214000  0.74080600  0.48727000  1
  O  O61  1  0.00246700  0.21296200  0.49862600  1
  O  O62  1  0.76289800  0.99555800  0.50392500  1
  O  O63  1  0.11063700  0.87502400  0.60536500  1
  O  O64  1  0.87965800  0.87989700  0.64646800  1
  O  O65  1  0.11793800  0.10763600  0.66959300  1
  O  O66  1  0.88646100  0.11439800  0.68073400  1
  O  O67  1  0.00537500  0.30532700  0.69637600  1
  O  O68  1  0.70837500  0.96994500  0.71946800  1
  O  O69  1  0.28150400  0.94669400  0.70853600  1
  O  O70  1  0.00607000  0.72533400  0.73132200  1
  O  O71  1  0.99154300  0.50506100  0.78849300  1
  O  O72  1  0.49615500  0.98116400  0.79174500  1
  O  O73  1  0.65528000  0.86692900  0.90673500  1
  O  O74  1  0.10954400  0.33360300  0.89129700  1
  O  O75  1  0.33711300  0.86657800  0.90801900  1
  O  O76  1  0.12258000  0.66680000  0.90165200  1
  O  O77  1  0.89057800  0.66754700  0.92389000  1
  O  O78  1  0.87966200  0.33000300  0.89376500  1
  O  O79  1  0.31926800  0.09568800  0.88526500  1
  O  O80  1  0.67301500  0.09852300  0.90398300  1
  O  O81  1  0.49764200  0.75690600  0.00476200  1
  O  O82  1  0.22704900  0.50344500  0.99830800  1
  O  O83  1  0.27898200  0.27157500  0.02123300  1
