# generated using pymatgen
data_KAlH2CO5
_symmetry_space_group_name_H-M   'P 1'
_cell_length_a   6.46078800
_cell_length_b   12.00128600
_cell_length_c   5.72201000
_cell_angle_alpha   90.00000000
_cell_angle_beta   90.00000000
_cell_angle_gamma   90.00000000
_symmetry_Int_Tables_number   1
_chemical_formula_structural   KAlH2CO5
_chemical_formula_sum   'K4 Al4 H8 C4 O20'
_cell_volume   443.67186427
_cell_formula_units_Z   4
loop_
 _symmetry_equiv_pos_site_id
 _symmetry_equiv_pos_as_xyz
  1  'x, y, z'
loop_
 _atom_site_type_symbol
 _atom_site_label
 _atom_site_symmetry_multiplicity
 _atom_site_fract_x
 _atom_site_fract_y
 _atom_site_fract_z
 _atom_site_occupancy
  K  K0  1  0.00000000  0.34665800  0.25000000  1
  K  K1  1  0.50000000  0.15334200  0.75000000  1
  K  K2  1  0.50000000  0.84665800  0.25000000  1
  K  K3  1  0.00000000  0.65334200  0.75000000  1
  Al  Al4  1  0.00000000  0.00000000  0.00000000  1
  Al  Al5  1  0.00000000  0.00000000  0.50000000  1
  Al  Al6  1  0.50000000  0.50000000  0.00000000  1
  Al  Al7  1  0.50000000  0.50000000  0.50000000  1
  H  H8  1  0.78111050  0.41699150  0.75000000  1
  H  H9  1  0.28111050  0.08300850  0.25000000  1
  H  H10  1  0.71888950  0.08300850  0.25000000  1
  H  H11  1  0.21888950  0.41699150  0.75000000  1
  H  H12  1  0.28111050  0.91699150  0.75000000  1
  H  H13  1  0.78111050  0.58300850  0.25000000  1
  H  H14  1  0.21888950  0.58300850  0.25000000  1
  H  H15  1  0.71888950  0.91699150  0.75000000  1
  C  C16  1  0.00000000  0.21223900  0.75000000  1
  C  C17  1  0.50000000  0.28776100  0.25000000  1
  C  C18  1  0.50000000  0.71223900  0.75000000  1
  C  C19  1  0.00000000  0.78776100  0.25000000  1
  O  O20  1  0.30389050  0.48519050  0.75000000  1
  O  O21  1  0.80389050  0.01480950  0.25000000  1
  O  O22  1  0.19610950  0.01480950  0.25000000  1
  O  O23  1  0.69610950  0.48519050  0.75000000  1
  O  O24  1  0.00000000  0.15843700  0.94841500  1
  O  O25  1  0.50000000  0.34156300  0.05158500  1
  O  O26  1  0.00000000  0.15843700  0.55158500  1
  O  O27  1  0.50000000  0.34156300  0.44841500  1
  O  O28  1  0.00000000  0.31890800  0.75000000  1
  O  O29  1  0.50000000  0.18109200  0.25000000  1
  O  O30  1  0.80389050  0.98519050  0.75000000  1
  O  O31  1  0.30389050  0.51480950  0.25000000  1
  O  O32  1  0.69610950  0.51480950  0.25000000  1
  O  O33  1  0.19610950  0.98519050  0.75000000  1
  O  O34  1  0.50000000  0.65843700  0.94841500  1
  O  O35  1  0.00000000  0.84156300  0.05158500  1
  O  O36  1  0.50000000  0.65843700  0.55158500  1
  O  O37  1  0.00000000  0.84156300  0.44841500  1
  O  O38  1  0.50000000  0.81890800  0.75000000  1
  O  O39  1  0.00000000  0.68109200  0.25000000  1
