# generated using pymatgen
data_Al3NO3
_symmetry_space_group_name_H-M   'P 1'
_cell_length_a   5.66176300
_cell_length_b   5.71009600
_cell_length_c   8.06830300
_cell_angle_alpha   90.00000000
_cell_angle_beta   90.00000000
_cell_angle_gamma   90.00000000
_symmetry_Int_Tables_number   1
_chemical_formula_structural   Al3NO3
_chemical_formula_sum   'Al12 N4 O12'
_cell_volume   260.84186412
_cell_formula_units_Z   4
loop_
 _symmetry_equiv_pos_site_id
 _symmetry_equiv_pos_as_xyz
  1  'x, y, z'
loop_
 _atom_site_type_symbol
 _atom_site_label
 _atom_site_symmetry_multiplicity
 _atom_site_fract_x
 _atom_site_fract_y
 _atom_site_fract_z
 _atom_site_occupancy
  Al  Al0  1  0.25000000  0.50787100  0.88274900  1
  Al  Al1  1  0.75000000  0.99212900  0.38274900  1
  Al  Al2  1  0.25000000  0.24938100  0.25759600  1
  Al  Al3  1  0.75000000  0.49212900  0.11725100  1
  Al  Al4  1  0.50000000  0.50000000  0.50000000  1
  Al  Al5  1  0.25000000  0.74938100  0.24240400  1
  Al  Al6  1  0.75000000  0.75061900  0.74240400  1
  Al  Al7  1  0.50000000  0.00000000  0.00000000  1
  Al  Al8  1  0.00000000  0.00000000  0.00000000  1
  Al  Al9  1  0.25000000  0.00787100  0.61725100  1
  Al  Al10  1  0.75000000  0.25061900  0.75759600  1
  Al  Al11  1  0.00000000  0.50000000  0.50000000  1
  N  N12  1  0.25000000  0.27383200  0.49167300  1
  N  N13  1  0.25000000  0.77383200  0.00832700  1
  N  N14  1  0.75000000  0.22616800  0.99167300  1
  N  N15  1  0.75000000  0.72616800  0.50832700  1
  O  O16  1  0.48682500  0.50164800  0.25345200  1
  O  O17  1  0.25000000  0.74098500  0.48736700  1
  O  O18  1  0.75000000  0.75901500  0.98736700  1
  O  O19  1  0.48682500  0.00164800  0.24654800  1
  O  O20  1  0.51317500  0.99835200  0.75345200  1
  O  O21  1  0.98682500  0.99835200  0.75345200  1
  O  O22  1  0.25000000  0.24098500  0.01263300  1
  O  O23  1  0.75000000  0.25901500  0.51263300  1
  O  O24  1  0.98682500  0.49835200  0.74654800  1
  O  O25  1  0.51317500  0.49835200  0.74654800  1
  O  O26  1  0.01317500  0.50164800  0.25345200  1
  O  O27  1  0.01317500  0.00164800  0.24654800  1
