# generated using pymatgen
data_Cs5Nb2S4Cl9
_symmetry_space_group_name_H-M   'P 1'
_cell_length_a   7.39531200
_cell_length_b   10.50532200
_cell_length_c   16.64704800
_cell_angle_alpha   90.00000000
_cell_angle_beta   90.00000000
_cell_angle_gamma   90.00000000
_symmetry_Int_Tables_number   1
_chemical_formula_structural   Cs5Nb2S4Cl9
_chemical_formula_sum   'Cs10 Nb4 S8 Cl18'
_cell_volume   1293.31138734
_cell_formula_units_Z   2
loop_
 _symmetry_equiv_pos_site_id
 _symmetry_equiv_pos_as_xyz
  1  'x, y, z'
loop_
 _atom_site_type_symbol
 _atom_site_label
 _atom_site_symmetry_multiplicity
 _atom_site_fract_x
 _atom_site_fract_y
 _atom_site_fract_z
 _atom_site_occupancy
  Cs  Cs0  1  0.00000000  0.77972500  0.66419100  1
  Cs  Cs1  1  0.00000000  0.22027500  0.66419100  1
  Cs  Cs2  1  0.00000000  0.50000000  0.00000000  1
  Cs  Cs3  1  0.50000000  0.72027500  0.83580900  1
  Cs  Cs4  1  0.50000000  0.27972500  0.83580900  1
  Cs  Cs5  1  0.50000000  0.27972500  0.16419100  1
  Cs  Cs6  1  0.50000000  0.72027500  0.16419100  1
  Cs  Cs7  1  0.50000000  0.00000000  0.50000000  1
  Cs  Cs8  1  0.00000000  0.22027500  0.33580900  1
  Cs  Cs9  1  0.00000000  0.77972500  0.33580900  1
  Nb  Nb10  1  0.50000000  0.50000000  0.58860100  1
  Nb  Nb11  1  0.00000000  0.00000000  0.91139900  1
  Nb  Nb12  1  0.00000000  0.00000000  0.08860100  1
  Nb  Nb13  1  0.50000000  0.50000000  0.41139900  1
  S  S14  1  0.75890900  0.09478200  0.00000000  1
  S  S15  1  0.75890900  0.90521800  0.00000000  1
  S  S16  1  0.24109100  0.90521800  0.00000000  1
  S  S17  1  0.74109100  0.59478200  0.50000000  1
  S  S18  1  0.25890900  0.59478200  0.50000000  1
  S  S19  1  0.25890900  0.40521800  0.50000000  1
  S  S20  1  0.74109100  0.40521800  0.50000000  1
  S  S21  1  0.24109100  0.09478200  0.00000000  1
  Cl  Cl22  1  0.26365150  0.50000000  0.70129250  1
  Cl  Cl23  1  0.00000000  0.75571550  0.87151450  1
  Cl  Cl24  1  0.23634850  0.00000000  0.79870750  1
  Cl  Cl25  1  0.50000000  0.74428450  0.62848550  1
  Cl  Cl26  1  0.00000000  0.24428450  0.87151450  1
  Cl  Cl27  1  0.73634850  0.50000000  0.70129250  1
  Cl  Cl28  1  0.76365150  0.00000000  0.79870750  1
  Cl  Cl29  1  0.50000000  0.25571550  0.62848550  1
  Cl  Cl30  1  0.50000000  0.50000000  0.00000000  1
  Cl  Cl31  1  0.76365150  0.00000000  0.20129250  1
  Cl  Cl32  1  0.50000000  0.25571550  0.37151450  1
  Cl  Cl33  1  0.73634850  0.50000000  0.29870750  1
  Cl  Cl34  1  0.00000000  0.24428450  0.12848550  1
  Cl  Cl35  1  0.50000000  0.74428450  0.37151450  1
  Cl  Cl36  1  0.23634850  0.00000000  0.20129250  1
  Cl  Cl37  1  0.26365150  0.50000000  0.29870750  1
  Cl  Cl38  1  0.00000000  0.75571550  0.12848550  1
  Cl  Cl39  1  0.00000000  0.00000000  0.50000000  1
