# generated using pymatgen
data_Ca3Si2(H3O5)2
_symmetry_space_group_name_H-M   'P 1'
_cell_length_a   16.36898200
_cell_length_b   5.68689400
_cell_length_c   11.68601872
_cell_angle_alpha   90.00000000
_cell_angle_beta   126.07630984
_cell_angle_gamma   90.00000000
_symmetry_Int_Tables_number   1
_chemical_formula_structural   Ca3Si2(H3O5)2
_chemical_formula_sum   'Ca12 Si8 H24 O40'
_cell_volume   879.22533160
_cell_formula_units_Z   4
loop_
 _symmetry_equiv_pos_site_id
 _symmetry_equiv_pos_as_xyz
  1  'x, y, z'
loop_
 _atom_site_type_symbol
 _atom_site_label
 _atom_site_symmetry_multiplicity
 _atom_site_fract_x
 _atom_site_fract_y
 _atom_site_fract_z
 _atom_site_occupancy
  Ca  Ca0  1  0.65205350  0.78849050  0.20687900  1
  Ca  Ca1  1  0.15205350  0.71150950  0.70687900  1
  Ca  Ca2  1  0.83787000  0.30534800  0.28723900  1
  Ca  Ca3  1  0.33787000  0.19465200  0.78723900  1
  Ca  Ca4  1  0.21380550  0.78203050  0.45970400  1
  Ca  Ca5  1  0.21380550  0.21796950  0.95970400  1
  Ca  Ca6  1  0.15205350  0.28849050  0.20687900  1
  Ca  Ca7  1  0.65205350  0.21150950  0.70687900  1
  Ca  Ca8  1  0.33787000  0.80534800  0.28723900  1
  Ca  Ca9  1  0.83787000  0.69465200  0.78723900  1
  Ca  Ca10  1  0.71380550  0.28203050  0.45970400  1
  Ca  Ca11  1  0.71380550  0.71796950  0.95970400  1
  Si  Si12  1  0.86163250  0.80781750  0.49647200  1
  Si  Si13  1  0.36163250  0.69218250  0.99647200  1
  Si  Si14  1  0.11384150  0.23232450  0.49707500  1
  Si  Si15  1  0.11384150  0.76767550  0.99707500  1
  Si  Si16  1  0.36163250  0.30781750  0.49647200  1
  Si  Si17  1  0.86163250  0.19218250  0.99647200  1
  Si  Si18  1  0.61384150  0.73232450  0.49707500  1
  Si  Si19  1  0.61384150  0.26767550  0.99707500  1
  H  H20  1  0.01086250  0.15203250  0.26278700  1
  H  H21  1  0.01086250  0.84796750  0.76278700  1
  H  H22  1  0.98617950  0.98379950  0.49684400  1
  H  H23  1  0.48617950  0.51620050  0.99684400  1
  H  H24  1  0.03726350  0.69879850  0.12702100  1
  H  H25  1  0.03726350  0.30120150  0.62702100  1
  H  H26  1  0.00837000  0.63337300  0.23276700  1
  H  H27  1  0.00837000  0.36662700  0.73276700  1
  H  H28  1  0.89876850  0.87961950  0.20254400  1
  H  H29  1  0.89876850  0.12038050  0.70254400  1
  H  H30  1  0.93253050  0.73874450  0.34019000  1
  H  H31  1  0.93253050  0.26125550  0.84019000  1
  H  H32  1  0.51086250  0.65203250  0.26278700  1
  H  H33  1  0.51086250  0.34796750  0.76278700  1
  H  H34  1  0.48617950  0.48379950  0.49684400  1
  H  H35  1  0.98617950  0.01620050  0.99684400  1
  H  H36  1  0.53726350  0.19879850  0.12702100  1
  H  H37  1  0.53726350  0.80120150  0.62702100  1
  H  H38  1  0.50837000  0.13337300  0.23276700  1
  H  H39  1  0.50837000  0.86662700  0.73276700  1
  H  H40  1  0.39876850  0.37961950  0.20254400  1
  H  H41  1  0.39876850  0.62038050  0.70254400  1
  H  H42  1  0.43253050  0.23874450  0.34019000  1
  H  H43  1  0.43253050  0.76125550  0.84019000  1
  O  O44  1  0.89472450  0.14988050  0.15721900  1
  O  O45  1  0.89472450  0.85011950  0.65721900  1
  O  O46  1  0.08870150  0.15445750  0.33943000  1
  O  O47  1  0.08870150  0.84554250  0.83943000  1
  O  O48  1  0.00591350  0.22924650  0.47755600  1
  O  O49  1  0.00591350  0.77075350  0.97755600  1
  O  O50  1  0.97052500  0.80929800  0.50793400  1
  O  O51  1  0.97052500  0.19070200  0.00793400  1
  O  O52  1  0.68728700  0.48218300  0.10286300  1
  O  O53  1  0.18728700  0.01781700  0.60286300  1
  O  O54  1  0.67129300  0.01622800  0.05573900  1
  O  O55  1  0.17129300  0.48377200  0.55573900  1
  O  O56  1  0.79123200  0.02655800  0.39069100  1
  O  O57  1  0.29123200  0.47344200  0.89069100  1
  O  O58  1  0.80112000  0.56402600  0.41802900  1
  O  O59  1  0.30112000  0.93597400  0.91802900  1
  O  O60  1  0.06687050  0.63836550  0.22738200  1
  O  O61  1  0.06687050  0.36163450  0.72738200  1
  O  O62  1  0.90340700  0.71164900  0.23788700  1
  O  O63  1  0.90340700  0.28835100  0.73788700  1
  O  O64  1  0.39472450  0.64988050  0.15721900  1
  O  O65  1  0.39472450  0.35011950  0.65721900  1
  O  O66  1  0.58870150  0.65445750  0.33943000  1
  O  O67  1  0.58870150  0.34554250  0.83943000  1
  O  O68  1  0.50591350  0.72924650  0.47755600  1
  O  O69  1  0.50591350  0.27075350  0.97755600  1
  O  O70  1  0.47052500  0.30929800  0.50793400  1
  O  O71  1  0.47052500  0.69070200  0.00793400  1
  O  O72  1  0.18728700  0.98218300  0.10286300  1
  O  O73  1  0.68728700  0.51781700  0.60286300  1
  O  O74  1  0.17129300  0.51622800  0.05573900  1
  O  O75  1  0.67129300  0.98377200  0.55573900  1
  O  O76  1  0.29123200  0.52655800  0.39069100  1
  O  O77  1  0.79123200  0.97344200  0.89069100  1
  O  O78  1  0.30112000  0.06402600  0.41802900  1
  O  O79  1  0.80112000  0.43597400  0.91802900  1
  O  O80  1  0.56687050  0.13836550  0.22738200  1
  O  O81  1  0.56687050  0.86163450  0.72738200  1
  O  O82  1  0.40340700  0.21164900  0.23788700  1
  O  O83  1  0.40340700  0.78835100  0.73788700  1
