# generated using pymatgen
data_K3MnH5
_symmetry_space_group_name_H-M   'P 1'
_cell_length_a   7.65766800
_cell_length_b   7.65766800
_cell_length_c   11.62292400
_cell_angle_alpha   90.00000000
_cell_angle_beta   90.00000000
_cell_angle_gamma   90.00000000
_symmetry_Int_Tables_number   1
_chemical_formula_structural   K3MnH5
_chemical_formula_sum   'K12 Mn4 H20'
_cell_volume   681.56685929
_cell_formula_units_Z   4
loop_
 _symmetry_equiv_pos_site_id
 _symmetry_equiv_pos_as_xyz
  1  'x, y, z'
loop_
 _atom_site_type_symbol
 _atom_site_label
 _atom_site_symmetry_multiplicity
 _atom_site_fract_x
 _atom_site_fract_y
 _atom_site_fract_z
 _atom_site_occupancy
  K  K0  1  0.68634550  0.18634550  0.00000000  1
  K  K1  1  0.81365450  0.31365450  0.50000000  1
  K  K2  1  0.81365450  0.68634550  0.00000000  1
  K  K3  1  0.18634550  0.31365450  0.00000000  1
  K  K4  1  0.00000000  0.00000000  0.25000000  1
  K  K5  1  0.50000000  0.50000000  0.25000000  1
  K  K6  1  0.18634550  0.68634550  0.50000000  1
  K  K7  1  0.31365450  0.81365450  0.00000000  1
  K  K8  1  0.31365450  0.18634550  0.50000000  1
  K  K9  1  0.68634550  0.81365450  0.50000000  1
  K  K10  1  0.50000000  0.50000000  0.75000000  1
  K  K11  1  0.00000000  0.00000000  0.75000000  1
  Mn  Mn12  1  0.50000000  0.00000000  0.25000000  1
  Mn  Mn13  1  0.00000000  0.50000000  0.25000000  1
  Mn  Mn14  1  0.00000000  0.50000000  0.75000000  1
  Mn  Mn15  1  0.50000000  0.00000000  0.75000000  1
  H  H16  1  0.62746900  0.12746900  0.34216900  1
  H  H17  1  0.37253100  0.87253100  0.34216900  1
  H  H18  1  0.87253100  0.62746900  0.34216900  1
  H  H19  1  0.12746900  0.37253100  0.34216900  1
  H  H20  1  0.87253100  0.37253100  0.15783100  1
  H  H21  1  0.12746900  0.62746900  0.15783100  1
  H  H22  1  0.62746900  0.87253100  0.15783100  1
  H  H23  1  0.37253100  0.12746900  0.15783100  1
  H  H24  1  0.50000000  0.50000000  0.00000000  1
  H  H25  1  0.00000000  0.00000000  0.00000000  1
  H  H26  1  0.12746900  0.62746900  0.84216900  1
  H  H27  1  0.87253100  0.37253100  0.84216900  1
  H  H28  1  0.37253100  0.12746900  0.84216900  1
  H  H29  1  0.62746900  0.87253100  0.84216900  1
  H  H30  1  0.37253100  0.87253100  0.65783100  1
  H  H31  1  0.62746900  0.12746900  0.65783100  1
  H  H32  1  0.12746900  0.37253100  0.65783100  1
  H  H33  1  0.87253100  0.62746900  0.65783100  1
  H  H34  1  0.00000000  0.00000000  0.50000000  1
  H  H35  1  0.50000000  0.50000000  0.50000000  1
