# generated using pymatgen
data_Tl2(ReSe2)3
_symmetry_space_group_name_H-M   'P 1'
_cell_length_a   17.59236400
_cell_length_b   10.10966200
_cell_length_c   12.49442958
_cell_angle_alpha   90.00000000
_cell_angle_beta   90.56967787
_cell_angle_gamma   90.00000000
_symmetry_Int_Tables_number   1
_chemical_formula_structural   Tl2(ReSe2)3
_chemical_formula_sum   'Tl16 Re24 Se48'
_cell_volume   2222.06011930
_cell_formula_units_Z   8
loop_
 _symmetry_equiv_pos_site_id
 _symmetry_equiv_pos_as_xyz
  1  'x, y, z'
loop_
 _atom_site_type_symbol
 _atom_site_label
 _atom_site_symmetry_multiplicity
 _atom_site_fract_x
 _atom_site_fract_y
 _atom_site_fract_z
 _atom_site_occupancy
  Tl  Tl0  1  0.60342700  0.25215300  0.48560700  1
  Tl  Tl1  1  0.00000000  0.21553600  0.25000000  1
  Tl  Tl2  1  0.89657300  0.75215300  0.01439300  1
  Tl  Tl3  1  0.00000000  0.78446400  0.75000000  1
  Tl  Tl4  1  0.00000000  0.58784600  0.25000000  1
  Tl  Tl5  1  0.60342700  0.74784700  0.98560700  1
  Tl  Tl6  1  0.89657300  0.24784700  0.51439300  1
  Tl  Tl7  1  0.00000000  0.41215400  0.75000000  1
  Tl  Tl8  1  0.10342700  0.75215300  0.48560700  1
  Tl  Tl9  1  0.50000000  0.71553600  0.25000000  1
  Tl  Tl10  1  0.39657300  0.25215300  0.01439300  1
  Tl  Tl11  1  0.50000000  0.28446400  0.75000000  1
  Tl  Tl12  1  0.50000000  0.08784600  0.25000000  1
  Tl  Tl13  1  0.10342700  0.24784700  0.98560700  1
  Tl  Tl14  1  0.39657300  0.74784700  0.51439300  1
  Tl  Tl15  1  0.50000000  0.91215400  0.75000000  1
  Re  Re16  1  0.70649450  0.17891950  0.87324500  1
  Re  Re17  1  0.79004000  0.60764700  0.42000000  1
  Re  Re18  1  0.83904400  0.84702200  0.47508700  1
  Re  Re19  1  0.83904400  0.15297800  0.97508700  1
  Re  Re20  1  0.66095600  0.65297800  0.52491300  1
  Re  Re21  1  0.79350550  0.32108050  0.12675500  1
  Re  Re22  1  0.79004000  0.39235300  0.92000000  1
  Re  Re23  1  0.66095600  0.34702200  0.02491300  1
  Re  Re24  1  0.70996000  0.10764700  0.08000000  1
  Re  Re25  1  0.70649450  0.82108050  0.37324500  1
  Re  Re26  1  0.79350550  0.67891950  0.62675500  1
  Re  Re27  1  0.70996000  0.89235300  0.58000000  1
  Re  Re28  1  0.20649450  0.67891950  0.87324500  1
  Re  Re29  1  0.29004000  0.10764700  0.42000000  1
  Re  Re30  1  0.33904400  0.34702200  0.47508700  1
  Re  Re31  1  0.33904400  0.65297800  0.97508700  1
  Re  Re32  1  0.16095600  0.15297800  0.52491300  1
  Re  Re33  1  0.29350550  0.82108050  0.12675500  1
  Re  Re34  1  0.29004000  0.89235300  0.92000000  1
  Re  Re35  1  0.16095600  0.84702200  0.02491300  1
  Re  Re36  1  0.20996000  0.60764700  0.08000000  1
  Re  Re37  1  0.20649450  0.32108050  0.37324500  1
  Re  Re38  1  0.29350550  0.17891950  0.62675500  1
  Re  Re39  1  0.20996000  0.39235300  0.58000000  1
  Se  Se40  1  0.83868250  0.08682350  0.17072000  1
  Se  Se41  1  0.75526100  0.95266000  0.93188700  1
  Se  Se42  1  0.83868250  0.91317650  0.67072000  1
  Se  Se43  1  0.66131750  0.41317650  0.82928000  1
  Se  Se44  1  0.75526100  0.04734000  0.43188700  1
  Se  Se45  1  0.66938050  0.72516950  0.71995400  1
  Se  Se46  1  0.91617100  0.36249500  0.02222700  1
  Se  Se47  1  0.64446500  0.08597700  0.69285300  1
  Se  Se48  1  0.96253250  0.02681350  0.91970300  1
  Se  Se49  1  0.53746750  0.47318650  0.08029700  1
  Se  Se50  1  0.66131750  0.58682350  0.32928000  1
  Se  Se51  1  0.53746750  0.52681350  0.58029700  1
  Se  Se52  1  0.74473900  0.54734000  0.06811300  1
  Se  Se53  1  0.64446500  0.91402300  0.19285300  1
  Se  Se54  1  0.66938050  0.27483050  0.21995400  1
  Se  Se55  1  0.96253250  0.97318650  0.41970300  1
  Se  Se56  1  0.58382900  0.86249500  0.47777300  1
  Se  Se57  1  0.83061950  0.22516950  0.78004600  1
  Se  Se58  1  0.85553500  0.41402300  0.30714700  1
  Se  Se59  1  0.85553500  0.58597700  0.80714700  1
  Se  Se60  1  0.91617100  0.63750500  0.52222700  1
  Se  Se61  1  0.74473900  0.45266000  0.56811300  1
  Se  Se62  1  0.58382900  0.13750500  0.97777300  1
  Se  Se63  1  0.83061950  0.77483050  0.28004600  1
  Se  Se64  1  0.33868250  0.58682350  0.17072000  1
  Se  Se65  1  0.25526100  0.45266000  0.93188700  1
  Se  Se66  1  0.33868250  0.41317650  0.67072000  1
  Se  Se67  1  0.16131750  0.91317650  0.82928000  1
  Se  Se68  1  0.25526100  0.54734000  0.43188700  1
  Se  Se69  1  0.16938050  0.22516950  0.71995400  1
  Se  Se70  1  0.41617100  0.86249500  0.02222700  1
  Se  Se71  1  0.14446500  0.58597700  0.69285300  1
  Se  Se72  1  0.46253250  0.52681350  0.91970300  1
  Se  Se73  1  0.03746750  0.97318650  0.08029700  1
  Se  Se74  1  0.16131750  0.08682350  0.32928000  1
  Se  Se75  1  0.03746750  0.02681350  0.58029700  1
  Se  Se76  1  0.24473900  0.04734000  0.06811300  1
  Se  Se77  1  0.14446500  0.41402300  0.19285300  1
  Se  Se78  1  0.16938050  0.77483050  0.21995400  1
  Se  Se79  1  0.46253250  0.47318650  0.41970300  1
  Se  Se80  1  0.08382900  0.36249500  0.47777300  1
  Se  Se81  1  0.33061950  0.72516950  0.78004600  1
  Se  Se82  1  0.35553500  0.91402300  0.30714700  1
  Se  Se83  1  0.35553500  0.08597700  0.80714700  1
  Se  Se84  1  0.41617100  0.13750500  0.52222700  1
  Se  Se85  1  0.24473900  0.95266000  0.56811300  1
  Se  Se86  1  0.08382900  0.63750500  0.97777300  1
  Se  Se87  1  0.33061950  0.27483050  0.28004600  1
