# generated using pymatgen
data_Lu2(CN2)3
_symmetry_space_group_name_H-M   'P 1'
_cell_length_a   6.28467210
_cell_length_b   6.28467210
_cell_length_c   29.59037828
_cell_angle_alpha   90.00000000
_cell_angle_beta   90.00000000
_cell_angle_gamma   120.00000000
_symmetry_Int_Tables_number   1
_chemical_formula_structural   Lu2(CN2)3
_chemical_formula_sum   'Lu12 C18 N36'
_cell_volume   1012.15353409
_cell_formula_units_Z   6
loop_
 _symmetry_equiv_pos_site_id
 _symmetry_equiv_pos_as_xyz
  1  'x, y, z'
loop_
 _atom_site_type_symbol
 _atom_site_label
 _atom_site_symmetry_multiplicity
 _atom_site_fract_x
 _atom_site_fract_y
 _atom_site_fract_z
 _atom_site_occupancy
  Lu  Lu0  1  0.33333333  0.66666667  0.00249167  1
  Lu  Lu1  1  0.00000000  0.00000000  0.16417500  1
  Lu  Lu2  1  0.33333333  0.66666667  0.33084167  1
  Lu  Lu3  1  0.66666667  0.33333333  0.16915833  1
  Lu  Lu4  1  0.00000000  0.00000000  0.33582500  1
  Lu  Lu5  1  0.66666667  0.33333333  0.49750833  1
  Lu  Lu6  1  0.00000000  0.00000000  0.66417500  1
  Lu  Lu7  1  0.33333333  0.66666667  0.50249167  1
  Lu  Lu8  1  0.66666667  0.33333333  0.66915833  1
  Lu  Lu9  1  0.33333333  0.66666667  0.83084167  1
  Lu  Lu10  1  0.66666667  0.33333333  0.99750833  1
  Lu  Lu11  1  0.00000000  0.00000000  0.83582500  1
  C  C12  1  0.00000000  0.29565400  0.25000000  1
  C  C13  1  0.66666667  0.03767933  0.08333333  1
  C  C14  1  0.37101267  0.33333333  0.08333333  1
  C  C15  1  0.96232067  0.62898733  0.08333333  1
  C  C16  1  0.70434600  0.70434600  0.25000000  1
  C  C17  1  0.29565400  0.00000000  0.25000000  1
  C  C18  1  0.66666667  0.62898733  0.58333333  1
  C  C19  1  0.33333333  0.37101267  0.41666667  1
  C  C20  1  0.03767933  0.66666667  0.41666667  1
  C  C21  1  0.62898733  0.96232067  0.41666667  1
  C  C22  1  0.37101267  0.03767933  0.58333333  1
  C  C23  1  0.96232067  0.33333333  0.58333333  1
  C  C24  1  0.33333333  0.96232067  0.91666667  1
  C  C25  1  0.00000000  0.70434600  0.75000000  1
  C  C26  1  0.70434600  0.00000000  0.75000000  1
  C  C27  1  0.29565400  0.29565400  0.75000000  1
  C  C28  1  0.03767933  0.37101267  0.91666667  1
  C  C29  1  0.62898733  0.66666667  0.91666667  1
  N  N30  1  0.32941633  0.07125867  0.21046467  1
  N  N31  1  0.40850900  0.40459200  0.04379800  1
  N  N32  1  0.92874133  0.25815767  0.21046467  1
  N  N33  1  0.73792533  0.07517567  0.12286867  1
  N  N34  1  0.07125867  0.32941633  0.28953533  1
  N  N35  1  0.67058367  0.74184233  0.28953533  1
  N  N36  1  0.25815767  0.92874133  0.28953533  1
  N  N37  1  0.59540800  0.00391700  0.04379800  1
  N  N38  1  0.33725033  0.26207467  0.12286867  1
  N  N39  1  0.99608300  0.59149100  0.04379800  1
  N  N40  1  0.74184233  0.67058367  0.21046467  1
  N  N41  1  0.92482433  0.66274967  0.12286867  1
  N  N42  1  0.99608300  0.40459200  0.54379800  1
  N  N43  1  0.07517567  0.73792533  0.37713133  1
  N  N44  1  0.59540800  0.59149100  0.54379800  1
  N  N45  1  0.40459200  0.40850900  0.45620200  1
  N  N46  1  0.73792533  0.66274967  0.62286867  1
  N  N47  1  0.33725033  0.07517567  0.62286867  1
  N  N48  1  0.92482433  0.26207467  0.62286867  1
  N  N49  1  0.26207467  0.33725033  0.37713133  1
  N  N50  1  0.00391700  0.59540800  0.45620200  1
  N  N51  1  0.66274967  0.92482433  0.37713133  1
  N  N52  1  0.40850900  0.00391700  0.54379800  1
  N  N53  1  0.59149100  0.99608300  0.45620200  1
  N  N54  1  0.66274967  0.73792533  0.87713133  1
  N  N55  1  0.74184233  0.07125867  0.71046467  1
  N  N56  1  0.26207467  0.92482433  0.87713133  1
  N  N57  1  0.07125867  0.74184233  0.78953533  1
  N  N58  1  0.40459200  0.99608300  0.95620200  1
  N  N59  1  0.00391700  0.40850900  0.95620200  1
  N  N60  1  0.59149100  0.59540800  0.95620200  1
  N  N61  1  0.92874133  0.67058367  0.71046467  1
  N  N62  1  0.67058367  0.92874133  0.78953533  1
  N  N63  1  0.32941633  0.25815767  0.71046467  1
  N  N64  1  0.07517567  0.33725033  0.87713133  1
  N  N65  1  0.25815767  0.32941633  0.78953533  1
