# generated using pymatgen
data_SiO2
_symmetry_space_group_name_H-M   'P 1'
_cell_length_a   25.95609200
_cell_length_b   5.28019400
_cell_length_c   12.25701589
_cell_angle_alpha   90.00000000
_cell_angle_beta   108.94111872
_cell_angle_gamma   90.00000000
_symmetry_Int_Tables_number   1
_chemical_formula_structural   SiO2
_chemical_formula_sum   'Si28 O56'
_cell_volume   1588.90312661
_cell_formula_units_Z   28
loop_
 _symmetry_equiv_pos_site_id
 _symmetry_equiv_pos_as_xyz
  1  'x, y, z'
loop_
 _atom_site_type_symbol
 _atom_site_label
 _atom_site_symmetry_multiplicity
 _atom_site_fract_x
 _atom_site_fract_y
 _atom_site_fract_z
 _atom_site_occupancy
  Si  Si0  1  0.36890100  0.00000000  0.71362900  1
  Si  Si1  1  0.21758400  0.50000000  0.51845400  1
  Si  Si2  1  0.28241600  0.00000000  0.48154600  1
  Si  Si3  1  0.21765900  0.50000000  0.78144300  1
  Si  Si4  1  0.43731500  0.50000000  0.09158200  1
  Si  Si5  1  0.13109900  0.50000000  0.28637100  1
  Si  Si6  1  0.37602700  0.00000000  0.11634900  1
  Si  Si7  1  0.12397300  0.50000000  0.88365100  1
  Si  Si8  1  0.06818000  0.00000000  0.16970900  1
  Si  Si9  1  0.06268500  0.00000000  0.90841800  1
  Si  Si10  1  0.28773600  0.00000000  0.85982700  1
  Si  Si11  1  0.21226400  0.50000000  0.14017300  1
  Si  Si12  1  0.28234100  0.00000000  0.21855700  1
  Si  Si13  1  0.43182000  0.50000000  0.83029100  1
  Si  Si14  1  0.86890100  0.50000000  0.71362900  1
  Si  Si15  1  0.71758400  0.00000000  0.51845400  1
  Si  Si16  1  0.78241600  0.50000000  0.48154600  1
  Si  Si17  1  0.71765900  0.00000000  0.78144300  1
  Si  Si18  1  0.93731500  0.00000000  0.09158200  1
  Si  Si19  1  0.63109900  0.00000000  0.28637100  1
  Si  Si20  1  0.87602700  0.50000000  0.11634900  1
  Si  Si21  1  0.62397300  0.00000000  0.88365100  1
  Si  Si22  1  0.56818000  0.50000000  0.16970900  1
  Si  Si23  1  0.56268500  0.50000000  0.90841800  1
  Si  Si24  1  0.78773600  0.50000000  0.85982700  1
  Si  Si25  1  0.71226400  0.00000000  0.14017300  1
  Si  Si26  1  0.78234100  0.50000000  0.21855700  1
  Si  Si27  1  0.93182000  0.00000000  0.83029100  1
  O  O28  1  0.41783900  0.50000000  0.95077100  1
  O  O29  1  0.16665800  0.50000000  0.01381800  1
  O  O30  1  0.08216100  0.00000000  0.04922900  1
  O  O31  1  0.25004550  0.25036850  0.84612900  1
  O  O32  1  0.34412700  0.00000000  0.57351200  1
  O  O33  1  0.49691100  0.50000000  0.85622800  1
  O  O34  1  0.40608400  0.24998700  0.75632700  1
  O  O35  1  0.15667100  0.50000000  0.79094500  1
  O  O36  1  0.31750300  0.00000000  0.76206000  1
  O  O37  1  0.00308900  0.00000000  0.14377200  1
  O  O38  1  0.33334200  0.00000000  0.98618200  1
  O  O39  1  0.09391600  0.74998700  0.24367300  1
  O  O40  1  0.41452300  0.24960400  0.13706900  1
  O  O41  1  0.40608400  0.75001300  0.75632700  1
  O  O42  1  0.09391600  0.25001300  0.24367300  1
  O  O43  1  0.41452300  0.75039600  0.13706900  1
  O  O44  1  0.08547700  0.74960400  0.86293100  1
  O  O45  1  0.25000000  0.25000000  0.50000000  1
  O  O46  1  0.28729100  0.00000000  0.35339100  1
  O  O47  1  0.24995450  0.24963150  0.15387100  1
  O  O48  1  0.24995450  0.75036850  0.15387100  1
  O  O49  1  0.21270900  0.50000000  0.64660900  1
  O  O50  1  0.34332900  0.00000000  0.20905500  1
  O  O51  1  0.25000000  0.75000000  0.50000000  1
  O  O52  1  0.25004550  0.74963150  0.84612900  1
  O  O53  1  0.08547700  0.25039600  0.86293100  1
  O  O54  1  0.18249700  0.50000000  0.23794000  1
  O  O55  1  0.15587300  0.50000000  0.42648800  1
  O  O56  1  0.91783900  0.00000000  0.95077100  1
  O  O57  1  0.66665800  0.00000000  0.01381800  1
  O  O58  1  0.58216100  0.50000000  0.04922900  1
  O  O59  1  0.75004550  0.75036850  0.84612900  1
  O  O60  1  0.84412700  0.50000000  0.57351200  1
  O  O61  1  0.99691100  0.00000000  0.85622800  1
  O  O62  1  0.90608400  0.74998700  0.75632700  1
  O  O63  1  0.65667100  0.00000000  0.79094500  1
  O  O64  1  0.81750300  0.50000000  0.76206000  1
  O  O65  1  0.50308900  0.50000000  0.14377200  1
  O  O66  1  0.83334200  0.50000000  0.98618200  1
  O  O67  1  0.59391600  0.24998700  0.24367300  1
  O  O68  1  0.91452300  0.74960400  0.13706900  1
  O  O69  1  0.90608400  0.25001300  0.75632700  1
  O  O70  1  0.59391600  0.75001300  0.24367300  1
  O  O71  1  0.91452300  0.25039600  0.13706900  1
  O  O72  1  0.58547700  0.24960400  0.86293100  1
  O  O73  1  0.75000000  0.75000000  0.50000000  1
  O  O74  1  0.78729100  0.50000000  0.35339100  1
  O  O75  1  0.74995450  0.74963150  0.15387100  1
  O  O76  1  0.74995450  0.25036850  0.15387100  1
  O  O77  1  0.71270900  0.00000000  0.64660900  1
  O  O78  1  0.84332900  0.50000000  0.20905500  1
  O  O79  1  0.75000000  0.25000000  0.50000000  1
  O  O80  1  0.75004550  0.24963150  0.84612900  1
  O  O81  1  0.58547700  0.75039600  0.86293100  1
  O  O82  1  0.68249700  0.00000000  0.23794000  1
  O  O83  1  0.65587300  0.00000000  0.42648800  1
