# generated using pymatgen
data_Sr6B(PO4)5
_symmetry_space_group_name_H-M   'P 1'
_cell_length_a   9.89425600
_cell_length_b   9.89425600
_cell_length_c   19.23861000
_cell_angle_alpha   90.00000000
_cell_angle_beta   90.00000000
_cell_angle_gamma   90.00000000
_symmetry_Int_Tables_number   1
_chemical_formula_structural   Sr6B(PO4)5
_chemical_formula_sum   'Sr24 B4 P20 O80'
_cell_volume   1883.38877065
_cell_formula_units_Z   4
loop_
 _symmetry_equiv_pos_site_id
 _symmetry_equiv_pos_as_xyz
  1  'x, y, z'
loop_
 _atom_site_type_symbol
 _atom_site_label
 _atom_site_symmetry_multiplicity
 _atom_site_fract_x
 _atom_site_fract_y
 _atom_site_fract_z
 _atom_site_occupancy
  Sr  Sr0  1  0.22281100  0.72281100  0.00000000  1
  Sr  Sr1  1  0.27718900  0.22281100  0.00000000  1
  Sr  Sr2  1  0.77718900  0.27718900  0.00000000  1
  Sr  Sr3  1  0.72281100  0.77718900  0.00000000  1
  Sr  Sr4  1  0.19971100  0.99534200  0.33552500  1
  Sr  Sr5  1  0.80028900  0.00465800  0.33552500  1
  Sr  Sr6  1  0.69971100  0.50465800  0.33552500  1
  Sr  Sr7  1  0.49534200  0.30028900  0.16447500  1
  Sr  Sr8  1  0.50465800  0.69971100  0.16447500  1
  Sr  Sr9  1  0.00465800  0.80028900  0.16447500  1
  Sr  Sr10  1  0.99534200  0.19971100  0.16447500  1
  Sr  Sr11  1  0.30028900  0.49534200  0.33552500  1
  Sr  Sr12  1  0.72281100  0.22281100  0.50000000  1
  Sr  Sr13  1  0.77718900  0.72281100  0.50000000  1
  Sr  Sr14  1  0.27718900  0.77718900  0.50000000  1
  Sr  Sr15  1  0.22281100  0.27718900  0.50000000  1
  Sr  Sr16  1  0.69971100  0.49534200  0.83552500  1
  Sr  Sr17  1  0.30028900  0.50465800  0.83552500  1
  Sr  Sr18  1  0.19971100  0.00465800  0.83552500  1
  Sr  Sr19  1  0.99534200  0.80028900  0.66447500  1
  Sr  Sr20  1  0.00465800  0.19971100  0.66447500  1
  Sr  Sr21  1  0.50465800  0.30028900  0.66447500  1
  Sr  Sr22  1  0.49534200  0.69971100  0.66447500  1
  Sr  Sr23  1  0.80028900  0.99534200  0.83552500  1
  B  B24  1  0.00000000  0.50000000  0.25000000  1
  B  B25  1  0.50000000  0.00000000  0.25000000  1
  B  B26  1  0.50000000  0.00000000  0.75000000  1
  B  B27  1  0.00000000  0.50000000  0.75000000  1
  P  P28  1  0.29544100  0.97759900  0.15108200  1
  P  P29  1  0.70455900  0.02240100  0.15108200  1
  P  P30  1  0.79544100  0.52240100  0.15108200  1
  P  P31  1  0.47759900  0.20455900  0.34891800  1
  P  P32  1  0.52240100  0.79544100  0.34891800  1
  P  P33  1  0.02240100  0.70455900  0.34891800  1
  P  P34  1  0.97759900  0.29544100  0.34891800  1
  P  P35  1  0.20455900  0.47759900  0.15108200  1
  P  P36  1  0.50000000  0.50000000  0.00000000  1
  P  P37  1  0.00000000  0.00000000  0.00000000  1
  P  P38  1  0.79544100  0.47759900  0.65108200  1
  P  P39  1  0.20455900  0.52240100  0.65108200  1
  P  P40  1  0.29544100  0.02240100  0.65108200  1
  P  P41  1  0.97759900  0.70455900  0.84891800  1
  P  P42  1  0.02240100  0.29544100  0.84891800  1
  P  P43  1  0.52240100  0.20455900  0.84891800  1
  P  P44  1  0.47759900  0.79544100  0.84891800  1
  P  P45  1  0.70455900  0.97759900  0.65108200  1
  P  P46  1  0.00000000  0.00000000  0.50000000  1
  P  P47  1  0.50000000  0.50000000  0.50000000  1
  O  O48  1  0.49110950  0.66456850  0.30695350  1
  O  O49  1  0.60015500  0.14462200  0.38560000  1
  O  O50  1  0.39984500  0.85537800  0.38560000  1
  O  O51  1  0.89984500  0.64462200  0.38560000  1
  O  O52  1  0.10015500  0.35537800  0.38560000  1
  O  O53  1  0.14462200  0.60015500  0.11440000  1
  O  O54  1  0.27568650  0.85244150  0.10593750  1
  O  O55  1  0.72431350  0.14755850  0.10593750  1
  O  O56  1  0.77568650  0.64755850  0.10593750  1
  O  O57  1  0.35244150  0.22431350  0.39406250  1
  O  O58  1  0.64755850  0.77568650  0.39406250  1
  O  O59  1  0.14755850  0.72431350  0.39406250  1
  O  O60  1  0.85244150  0.27568650  0.39406250  1
  O  O61  1  0.00889050  0.16456850  0.30695350  1
  O  O62  1  0.16456850  0.00889050  0.19304650  1
  O  O63  1  0.83543150  0.99110950  0.19304650  1
  O  O64  1  0.66456850  0.49110950  0.19304650  1
  O  O65  1  0.50889050  0.33543150  0.30695350  1
  O  O66  1  0.85537800  0.39984500  0.11440000  1
  O  O67  1  0.99110950  0.83543150  0.30695350  1
  O  O68  1  0.35537800  0.10015500  0.11440000  1
  O  O69  1  0.64462200  0.89984500  0.11440000  1
  O  O70  1  0.09849600  0.42253000  0.20916900  1
  O  O71  1  0.92253000  0.40150400  0.29083100  1
  O  O72  1  0.07747000  0.59849600  0.29083100  1
  O  O73  1  0.57747000  0.90150400  0.29083100  1
  O  O74  1  0.42253000  0.09849600  0.29083100  1
  O  O75  1  0.90150400  0.57747000  0.20916900  1
  O  O76  1  0.59849600  0.07747000  0.20916900  1
  O  O77  1  0.40150400  0.92253000  0.20916900  1
  O  O78  1  0.37035950  0.52735950  0.45593650  1
  O  O79  1  0.02735950  0.12964050  0.04406350  1
  O  O80  1  0.97264050  0.87035950  0.04406350  1
  O  O81  1  0.47264050  0.62964050  0.04406350  1
  O  O82  1  0.52735950  0.37035950  0.04406350  1
  O  O83  1  0.62964050  0.47264050  0.45593650  1
  O  O84  1  0.87035950  0.97264050  0.45593650  1
  O  O85  1  0.12964050  0.02735950  0.45593650  1
  O  O86  1  0.33543150  0.50889050  0.19304650  1
  O  O87  1  0.22431350  0.35244150  0.10593750  1
  O  O88  1  0.99110950  0.16456850  0.80695350  1
  O  O89  1  0.10015500  0.64462200  0.88560000  1
  O  O90  1  0.89984500  0.35537800  0.88560000  1
  O  O91  1  0.39984500  0.14462200  0.88560000  1
  O  O92  1  0.60015500  0.85537800  0.88560000  1
  O  O93  1  0.64462200  0.10015500  0.61440000  1
  O  O94  1  0.77568650  0.35244150  0.60593750  1
  O  O95  1  0.22431350  0.64755850  0.60593750  1
  O  O96  1  0.27568650  0.14755850  0.60593750  1
  O  O97  1  0.85244150  0.72431350  0.89406250  1
  O  O98  1  0.14755850  0.27568650  0.89406250  1
  O  O99  1  0.64755850  0.22431350  0.89406250  1
  O  O100  1  0.35244150  0.77568650  0.89406250  1
  O  O101  1  0.50889050  0.66456850  0.80695350  1
  O  O102  1  0.66456850  0.50889050  0.69304650  1
  O  O103  1  0.33543150  0.49110950  0.69304650  1
  O  O104  1  0.16456850  0.99110950  0.69304650  1
  O  O105  1  0.00889050  0.83543150  0.80695350  1
  O  O106  1  0.35537800  0.89984500  0.61440000  1
  O  O107  1  0.49110950  0.33543150  0.80695350  1
  O  O108  1  0.85537800  0.60015500  0.61440000  1
  O  O109  1  0.14462200  0.39984500  0.61440000  1
  O  O110  1  0.59849600  0.92253000  0.70916900  1
  O  O111  1  0.42253000  0.90150400  0.79083100  1
  O  O112  1  0.57747000  0.09849600  0.79083100  1
  O  O113  1  0.07747000  0.40150400  0.79083100  1
  O  O114  1  0.92253000  0.59849600  0.79083100  1
  O  O115  1  0.40150400  0.07747000  0.70916900  1
  O  O116  1  0.09849600  0.57747000  0.70916900  1
  O  O117  1  0.90150400  0.42253000  0.70916900  1
  O  O118  1  0.87035950  0.02735950  0.95593650  1
  O  O119  1  0.52735950  0.62964050  0.54406350  1
  O  O120  1  0.47264050  0.37035950  0.54406350  1
  O  O121  1  0.97264050  0.12964050  0.54406350  1
  O  O122  1  0.02735950  0.87035950  0.54406350  1
  O  O123  1  0.12964050  0.97264050  0.95593650  1
  O  O124  1  0.37035950  0.47264050  0.95593650  1
  O  O125  1  0.62964050  0.52735950  0.95593650  1
  O  O126  1  0.83543150  0.00889050  0.69304650  1
  O  O127  1  0.72431350  0.85244150  0.60593750  1
