# generated using pymatgen
data_ZnP3H12NO13
_symmetry_space_group_name_H-M   'P 1'
_cell_length_a   7.46840700
_cell_length_b   8.80266581
_cell_length_c   10.37906061
_cell_angle_alpha   71.38826803
_cell_angle_beta   75.53950092
_cell_angle_gamma   69.19681048
_symmetry_Int_Tables_number   1
_chemical_formula_structural   ZnP3H12NO13
_chemical_formula_sum   'Zn2 P6 H24 N2 O26'
_cell_volume   597.29298145
_cell_formula_units_Z   2
loop_
 _symmetry_equiv_pos_site_id
 _symmetry_equiv_pos_as_xyz
  1  'x, y, z'
loop_
 _atom_site_type_symbol
 _atom_site_label
 _atom_site_symmetry_multiplicity
 _atom_site_fract_x
 _atom_site_fract_y
 _atom_site_fract_z
 _atom_site_occupancy
  Zn  Zn0  1  0.00000000  0.00000000  0.00000000  1
  Zn  Zn1  1  0.50000000  0.50000000  0.50000000  1
  P  P2  1  0.70011100  0.77541400  0.06793800  1
  P  P3  1  0.29988900  0.22458600  0.93206200  1
  P  P4  1  0.12648500  0.12144400  0.22499100  1
  P  P5  1  0.87351500  0.87855600  0.77500900  1
  P  P6  1  0.92532800  0.47355700  0.24278400  1
  P  P7  1  0.07467200  0.52644300  0.75721600  1
  H  H8  1  0.18394900  0.66914900  0.06491900  1
  H  H9  1  0.81605100  0.33085100  0.93508100  1
  H  H10  1  0.33077000  0.77156700  0.04330700  1
  H  H11  1  0.66923000  0.22843300  0.95669300  1
  H  H12  1  0.57287500  0.22057500  0.41713200  1
  H  H13  1  0.42712500  0.77942500  0.58286800  1
  H  H14  1  0.36409800  0.84237900  0.43528500  1
  H  H15  1  0.63590200  0.15762100  0.56471500  1
  H  H16  1  0.40498200  0.65819900  0.25410500  1
  H  H17  1  0.59501800  0.34180100  0.74589500  1
  H  H18  1  0.28658700  0.52371300  0.30337200  1
  H  H19  1  0.71341300  0.47628700  0.69662800  1
  H  H20  1  0.47966000  0.13691900  0.27506400  1
  H  H21  1  0.52034000  0.86308100  0.72493600  1
  H  H22  1  0.68122700  0.16334100  0.20043100  1
  H  H23  1  0.31877300  0.83665900  0.79956900  1
  H  H24  1  0.82146800  0.87312400  0.33550600  1
  H  H25  1  0.17853200  0.12687600  0.66449400  1
  H  H26  1  0.02967000  0.75171600  0.39091700  1
  H  H27  1  0.97033000  0.24828400  0.60908300  1
  H  H28  1  0.16646100  0.17654900  0.49511100  1
  H  H29  1  0.83353900  0.82345100  0.50488900  1
  H  H30  1  0.83883400  0.67481500  0.42795000  1
  H  H31  1  0.16116600  0.32518500  0.57205000  1
  N  N32  1  0.88102600  0.77952200  0.41650100  1
  N  N33  1  0.11897400  0.22047800  0.58349900  1
  O  O34  1  0.49012000  0.79050200  0.12245500  1
  O  O35  1  0.50988000  0.20949800  0.87754500  1
  O  O36  1  0.79363800  0.87645100  0.10777600  1
  O  O37  1  0.20636200  0.12354900  0.89222400  1
  O  O38  1  0.27809000  0.18899200  0.09667600  1
  O  O39  1  0.72191000  0.81100800  0.90332400  1
  O  O40  1  0.82570300  0.57857000  0.10554300  1
  O  O41  1  0.17429700  0.42143000  0.89445700  1
  O  O42  1  0.22262100  0.06361900  0.35090800  1
  O  O43  1  0.77737900  0.93638100  0.64909200  1
  O  O44  1  0.05105000  0.00393200  0.19136200  1
  O  O45  1  0.94895000  0.99606800  0.80863800  1
  O  O46  1  0.94378900  0.28860900  0.23361600  1
  O  O47  1  0.05621100  0.71139100  0.76638400  1
  O  O48  1  0.78384600  0.50976400  0.36981600  1
  O  O49  1  0.21615400  0.49023600  0.63018400  1
  O  O50  1  0.12097000  0.49598800  0.22392000  1
  O  O51  1  0.87903000  0.50401200  0.77608000  1
  O  O52  1  0.77423600  0.23405900  0.99749300  1
  O  O53  1  0.22576400  0.76594100  0.00250700  1
  O  O54  1  0.54623600  0.25102000  0.50697500  1
  O  O55  1  0.45376400  0.74898000  0.49302500  1
  O  O56  1  0.34388300  0.58688600  0.33696600  1
  O  O57  1  0.65611700  0.41311400  0.66303400  1
  O  O58  1  0.60455100  0.13506600  0.29121100  1
  O  O59  1  0.39544900  0.86493400  0.70878900  1
