# generated using pymatgen
data_Sr(H8O5)2
_symmetry_space_group_name_H-M   'P 1'
_cell_length_a   6.26216600
_cell_length_b   6.47381677
_cell_length_c   11.32660316
_cell_angle_alpha   89.36276308
_cell_angle_beta   89.95290017
_cell_angle_gamma   89.28379924
_symmetry_Int_Tables_number   1
_chemical_formula_structural   Sr(H8O5)2
_chemical_formula_sum   'Sr2 H32 O20'
_cell_volume   459.11741994
_cell_formula_units_Z   2
loop_
 _symmetry_equiv_pos_site_id
 _symmetry_equiv_pos_as_xyz
  1  'x, y, z'
loop_
 _atom_site_type_symbol
 _atom_site_label
 _atom_site_symmetry_multiplicity
 _atom_site_fract_x
 _atom_site_fract_y
 _atom_site_fract_z
 _atom_site_occupancy
  Sr  Sr0  1  0.00280400  0.01108300  0.74774600  1
  Sr  Sr1  1  0.99390300  0.99805300  0.24289000  1
  H  H2  1  0.72743700  0.38371500  0.64550700  1
  H  H3  1  0.85820000  0.31038100  0.53095600  1
  H  H4  1  0.27921300  0.62069500  0.65636300  1
  H  H5  1  0.09862800  0.67153900  0.56032500  1
  H  H6  1  0.40221000  0.28470700  0.65072800  1
  H  H7  1  0.31767300  0.15115800  0.54226400  1
  H  H8  1  0.55403000  0.96100700  0.62478000  1
  H  H9  1  0.61212700  0.71958300  0.64158600  1
  H  H10  1  0.27845000  0.38362800  0.15042300  1
  H  H11  1  0.03876400  0.45600900  0.12853100  1
  H  H12  1  0.73310400  0.61267100  0.14091300  1
  H  H13  1  0.86733400  0.68979000  0.02790200  1
  H  H14  1  0.55773200  0.03992900  0.11776200  1
  H  H15  1  0.62647600  0.27450900  0.13616000  1
  H  H16  1  0.39423100  0.73481400  0.14595700  1
  H  H17  1  0.32142900  0.86334600  0.03070000  1
  H  H18  1  0.26539100  0.62765200  0.37012300  1
  H  H19  1  0.01985500  0.57279800  0.37827200  1
  H  H20  1  0.70151100  0.42223000  0.33044900  1
  H  H21  1  0.04363400  0.30782700  0.37733100  1
  H  H22  1  0.61392900  0.73452400  0.35471700  1
  H  H23  1  0.67844800  0.86484300  0.46825800  1
  H  H24  1  0.44179300  0.03454600  0.37424700  1
  H  H25  1  0.40184300  0.27194500  0.35261600  1
  H  H26  1  0.96874400  0.56021400  0.86900200  1
  H  H27  1  0.72439900  0.62012200  0.85498300  1
  H  H28  1  0.27994300  0.39677800  0.85407500  1
  H  H29  1  0.14434500  0.31431700  0.96460800  1
  H  H30  1  0.45615600  0.96631100  0.87234100  1
  H  H31  1  0.39243500  0.72791700  0.85783900  1
  H  H32  1  0.69456300  0.14518700  0.95492400  1
  H  H33  1  0.60954600  0.28238000  0.84639900  1
  O  O34  1  0.50019700  0.50557800  0.68698400  1
  O  O35  1  0.51746800  0.49397600  0.18421400  1
  O  O36  1  0.54505100  0.48576000  0.31450800  1
  O  O37  1  0.50252900  0.50670200  0.81891300  1
  O  O38  1  0.85299900  0.29836900  0.61912200  1
  O  O39  1  0.14475800  0.70552300  0.64023800  1
  O  O40  1  0.34451600  0.14337000  0.62797600  1
  O  O41  1  0.67202500  0.85722900  0.61306500  1
  O  O42  1  0.13457100  0.33066900  0.12691900  1
  O  O43  1  0.87346000  0.67709100  0.11728100  1
  O  O44  1  0.68271800  0.13438100  0.11126300  1
  O  O45  1  0.33585100  0.87223600  0.11994700  1
  O  O46  1  0.12342400  0.69048600  0.37962000  1
  O  O47  1  0.89026600  0.33028800  0.38111300  1
  O  O48  1  0.66001500  0.87435300  0.37855500  1
  O  O49  1  0.32448500  0.14284000  0.37431800  1
  O  O50  1  0.86722300  0.67846300  0.88120600  1
  O  O51  1  0.13747700  0.33294200  0.87775700  1
  O  O52  1  0.33523100  0.86814800  0.88449400  1
  O  O53  1  0.66862600  0.13896300  0.86845800  1
