# generated using pymatgen
data_RbMgP(H6O5)2
_symmetry_space_group_name_H-M   'P 1'
_cell_length_a   6.17098900
_cell_length_b   6.92231900
_cell_length_c   11.37999100
_cell_angle_alpha   90.00000000
_cell_angle_beta   90.00000000
_cell_angle_gamma   90.00000000
_symmetry_Int_Tables_number   1
_chemical_formula_structural   RbMgP(H6O5)2
_chemical_formula_sum   'Rb2 Mg2 P2 H24 O20'
_cell_volume   486.12538465
_cell_formula_units_Z   2
loop_
 _symmetry_equiv_pos_site_id
 _symmetry_equiv_pos_as_xyz
  1  'x, y, z'
loop_
 _atom_site_type_symbol
 _atom_site_label
 _atom_site_symmetry_multiplicity
 _atom_site_fract_x
 _atom_site_fract_y
 _atom_site_fract_z
 _atom_site_occupancy
  Rb  Rb0  1  0.34904700  0.50000000  0.77121300  1
  Rb  Rb1  1  0.65095300  0.00000000  0.27121300  1
  Mg  Mg2  1  0.38611200  0.50000000  0.11957400  1
  Mg  Mg3  1  0.61388800  0.00000000  0.61957400  1
  P  P4  1  0.01263900  0.00000000  0.98804100  1
  P  P5  1  0.98736100  0.50000000  0.48804100  1
  H  H6  1  0.20719200  0.69942000  0.30697700  1
  H  H7  1  0.79280800  0.80058000  0.80697700  1
  H  H8  1  0.64383000  0.75704800  0.98813200  1
  H  H9  1  0.72625200  0.50000000  0.28920500  1
  H  H10  1  0.99677100  0.88233500  0.49651200  1
  H  H11  1  0.16977700  0.00000000  0.65803500  1
  H  H12  1  0.35617000  0.74295200  0.48813200  1
  H  H13  1  0.35617000  0.25704800  0.48813200  1
  H  H14  1  0.27374800  0.00000000  0.78920500  1
  H  H15  1  0.81820600  0.67764300  0.68676900  1
  H  H16  1  0.60465500  0.32866000  0.47909700  1
  H  H17  1  0.39534500  0.17134000  0.97909700  1
  H  H18  1  0.39534500  0.82866000  0.97909700  1
  H  H19  1  0.83022300  0.50000000  0.15803500  1
  H  H20  1  0.18179400  0.17764300  0.18676900  1
  H  H21  1  0.00322900  0.38233500  0.99651200  1
  H  H22  1  0.00322900  0.61766500  0.99651200  1
  H  H23  1  0.18179400  0.82235700  0.18676900  1
  H  H24  1  0.81820600  0.32235700  0.68676900  1
  H  H25  1  0.79280800  0.19942000  0.80697700  1
  H  H26  1  0.20719200  0.30058000  0.30697700  1
  H  H27  1  0.64383000  0.24295200  0.98813200  1
  H  H28  1  0.99677100  0.11766500  0.49651200  1
  H  H29  1  0.60465500  0.67134000  0.47909700  1
  O  O30  1  0.72584100  0.77679700  0.72819400  1
  O  O31  1  0.27415900  0.72320300  0.22819400  1
  O  O32  1  0.24244900  0.00000000  0.93008100  1
  O  O33  1  0.49044000  0.71851000  0.00634200  1
  O  O34  1  0.93353600  0.00000000  0.53619700  1
  O  O35  1  0.50956000  0.78149000  0.50634200  1
  O  O36  1  0.27415900  0.27679700  0.22819400  1
  O  O37  1  0.88917400  0.18430800  0.94636900  1
  O  O38  1  0.75755100  0.50000000  0.43008100  1
  O  O39  1  0.72584100  0.22320300  0.72819400  1
  O  O40  1  0.96326900  0.50000000  0.62341900  1
  O  O41  1  0.11082600  0.31569200  0.44636900  1
  O  O42  1  0.03673100  0.00000000  0.12341900  1
  O  O43  1  0.30700400  0.00000000  0.70193100  1
  O  O44  1  0.49044000  0.28149000  0.00634200  1
  O  O45  1  0.50956000  0.21851000  0.50634200  1
  O  O46  1  0.11082600  0.68430800  0.44636900  1
  O  O47  1  0.69299600  0.50000000  0.20193100  1
  O  O48  1  0.06646400  0.50000000  0.03619700  1
  O  O49  1  0.88917400  0.81569200  0.94636900  1
