# generated using pymatgen
data_Tl2S
_symmetry_space_group_name_H-M   'P 1'
_cell_length_a   12.65849969
_cell_length_b   12.65849969
_cell_length_c   19.10793836
_cell_angle_alpha   90.00000000
_cell_angle_beta   90.00000000
_cell_angle_gamma   120.00000000
_symmetry_Int_Tables_number   1
_chemical_formula_structural   Tl2S
_chemical_formula_sum   'Tl54 S27'
_cell_volume   2651.60564155
_cell_formula_units_Z   27
loop_
 _symmetry_equiv_pos_site_id
 _symmetry_equiv_pos_as_xyz
  1  'x, y, z'
loop_
 _atom_site_type_symbol
 _atom_site_label
 _atom_site_symmetry_multiplicity
 _atom_site_fract_x
 _atom_site_fract_y
 _atom_site_fract_z
 _atom_site_occupancy
  Tl  Tl0  1  0.90199667  0.46166233  0.42883333  1
  Tl  Tl1  1  0.55966567  0.09800333  0.42883333  1
  Tl  Tl2  1  0.53833767  0.44033433  0.42883333  1
  Tl  Tl3  1  0.54361967  0.78428833  0.08239633  1
  Tl  Tl4  1  0.24066867  0.45638033  0.08239633  1
  Tl  Tl5  1  0.21571167  0.75933133  0.08239633  1
  Tl  Tl6  1  0.54376000  0.78683600  0.41545400  1
  Tl  Tl7  1  0.24307600  0.45624000  0.41545400  1
  Tl  Tl8  1  0.21316400  0.75692400  0.41545400  1
  Tl  Tl9  1  0.43716600  0.90130900  0.24228900  1
  Tl  Tl10  1  0.09869100  0.53585700  0.24228900  1
  Tl  Tl11  1  0.46414300  0.56283400  0.24228900  1
  Tl  Tl12  1  0.43936500  0.90037900  0.90937400  1
  Tl  Tl13  1  0.09962100  0.53898600  0.90937400  1
  Tl  Tl14  1  0.46101400  0.56063500  0.90937400  1
  Tl  Tl15  1  0.08977633  0.20946367  0.92277967  1
  Tl  Tl16  1  0.79053633  0.88031267  0.92277967  1
  Tl  Tl17  1  0.11968733  0.91022367  0.92277967  1
  Tl  Tl18  1  0.56866333  0.79499567  0.76216667  1
  Tl  Tl19  1  0.22633233  0.43133667  0.76216667  1
  Tl  Tl20  1  0.20500433  0.77366767  0.76216667  1
  Tl  Tl21  1  0.21028633  0.11762167  0.41572967  1
  Tl  Tl22  1  0.90733533  0.78971367  0.41572967  1
  Tl  Tl23  1  0.88237833  0.09266467  0.41572967  1
  Tl  Tl24  1  0.21042667  0.12016933  0.74878733  1
  Tl  Tl25  1  0.90974267  0.78957333  0.74878733  1
  Tl  Tl26  1  0.87983067  0.09025733  0.74878733  1
  Tl  Tl27  1  0.10383267  0.23464233  0.57562233  1
  Tl  Tl28  1  0.76535767  0.86919033  0.57562233  1
  Tl  Tl29  1  0.13080967  0.89616733  0.57562233  1
  Tl  Tl30  1  0.10603167  0.23371233  0.24270733  1
  Tl  Tl31  1  0.76628767  0.87231933  0.24270733  1
  Tl  Tl32  1  0.12768067  0.89396833  0.24270733  1
  Tl  Tl33  1  0.75644300  0.54279700  0.25611300  1
  Tl  Tl34  1  0.45720300  0.21364600  0.25611300  1
  Tl  Tl35  1  0.78635400  0.24355700  0.25611300  1
  Tl  Tl36  1  0.23533000  0.12832900  0.09550000  1
  Tl  Tl37  1  0.89299900  0.76467000  0.09550000  1
  Tl  Tl38  1  0.87167100  0.10700100  0.09550000  1
  Tl  Tl39  1  0.87695300  0.45095500  0.74906300  1
  Tl  Tl40  1  0.57400200  0.12304700  0.74906300  1
  Tl  Tl41  1  0.54904500  0.42599800  0.74906300  1
  Tl  Tl42  1  0.87709333  0.45350267  0.08212067  1
  Tl  Tl43  1  0.57640933  0.12290667  0.08212067  1
  Tl  Tl44  1  0.54649733  0.42359067  0.08212067  1
  Tl  Tl45  1  0.77049933  0.56797567  0.90895567  1
  Tl  Tl46  1  0.43202433  0.20252367  0.90895567  1
  Tl  Tl47  1  0.79747633  0.22950067  0.90895567  1
  Tl  Tl48  1  0.77269833  0.56704567  0.57604067  1
  Tl  Tl49  1  0.43295433  0.20565267  0.57604067  1
  Tl  Tl50  1  0.79434733  0.22730167  0.57604067  1
  Tl  Tl51  1  0.42310967  0.87613033  0.58944633  1
  Tl  Tl52  1  0.12386967  0.54697933  0.58944633  1
  Tl  Tl53  1  0.45302067  0.57689033  0.58944633  1
  S  S54  1  0.99637000  0.66399700  0.32086400  1
  S  S55  1  0.33600300  0.33237300  0.32086400  1
  S  S56  1  0.66762700  0.00363000  0.32086400  1
  S  S57  1  0.66276667  0.66362833  0.01709133  1
  S  S58  1  0.33637167  0.99913833  0.01709133  1
  S  S59  1  0.00086167  0.33723333  0.01709133  1
  S  S60  1  0.33333333  0.66666667  0.31541967  1
  S  S61  1  0.33333333  0.66666667  0.98258367  1
  S  S62  1  0.33333333  0.66666667  0.69034967  1
  S  S63  1  0.66303667  0.99733033  0.65419733  1
  S  S64  1  0.00266967  0.66570633  0.65419733  1
  S  S65  1  0.33429367  0.33696333  0.65419733  1
  S  S66  1  0.32943333  0.99696167  0.35042467  1
  S  S67  1  0.00303833  0.33247167  0.35042467  1
  S  S68  1  0.66752833  0.67056667  0.35042467  1
  S  S69  1  0.00000000  0.00000000  0.64875300  1
  S  S70  1  0.00000000  0.00000000  0.31591700  1
  S  S71  1  0.00000000  0.00000000  0.02368300  1
  S  S72  1  0.32970333  0.33066367  0.98753067  1
  S  S73  1  0.66933633  0.99903967  0.98753067  1
  S  S74  1  0.00096033  0.67029667  0.98753067  1
  S  S75  1  0.99610000  0.33029500  0.68375800  1
  S  S76  1  0.66970500  0.66580500  0.68375800  1
  S  S77  1  0.33419500  0.00390000  0.68375800  1
  S  S78  1  0.66666667  0.33333333  0.98208633  1
  S  S79  1  0.66666667  0.33333333  0.64925033  1
  S  S80  1  0.66666667  0.33333333  0.35701633  1
