# generated using pymatgen
data_LiSb(PO3)4
_symmetry_space_group_name_H-M   'P 1'
_cell_length_a   17.52677600
_cell_length_b   12.09395600
_cell_length_c   5.53612623
_cell_angle_alpha   90.00000000
_cell_angle_beta   101.26013399
_cell_angle_gamma   90.00000000
_symmetry_Int_Tables_number   1
_chemical_formula_structural   LiSb(PO3)4
_chemical_formula_sum   'Li4 Sb4 P16 O48'
_cell_volume   1150.89328772
_cell_formula_units_Z   4
loop_
 _symmetry_equiv_pos_site_id
 _symmetry_equiv_pos_as_xyz
  1  'x, y, z'
loop_
 _atom_site_type_symbol
 _atom_site_label
 _atom_site_symmetry_multiplicity
 _atom_site_fract_x
 _atom_site_fract_y
 _atom_site_fract_z
 _atom_site_occupancy
  Li  Li0  1  0.43787800  0.00000000  0.38824300  1
  Li  Li1  1  0.56212200  0.00000000  0.61175700  1
  Li  Li2  1  0.93787800  0.50000000  0.38824300  1
  Li  Li3  1  0.06212200  0.50000000  0.61175700  1
  Sb  Sb4  1  0.25000000  0.75000000  0.00000000  1
  Sb  Sb5  1  0.25000000  0.25000000  0.00000000  1
  Sb  Sb6  1  0.75000000  0.25000000  0.00000000  1
  Sb  Sb7  1  0.75000000  0.75000000  0.00000000  1
  P  P8  1  0.42730500  0.80343900  0.82135900  1
  P  P9  1  0.17274900  0.88089400  0.45411200  1
  P  P10  1  0.82725100  0.11910600  0.54588800  1
  P  P11  1  0.42730500  0.19656100  0.82135900  1
  P  P12  1  0.57269500  0.19656100  0.17864100  1
  P  P13  1  0.82725100  0.88089400  0.54588800  1
  P  P14  1  0.17274900  0.11910600  0.45411200  1
  P  P15  1  0.57269500  0.80343900  0.17864100  1
  P  P16  1  0.92730500  0.30343900  0.82135900  1
  P  P17  1  0.67274900  0.38089400  0.45411200  1
  P  P18  1  0.32725100  0.61910600  0.54588800  1
  P  P19  1  0.92730500  0.69656100  0.82135900  1
  P  P20  1  0.07269500  0.69656100  0.17864100  1
  P  P21  1  0.32725100  0.38089400  0.54588800  1
  P  P22  1  0.67274900  0.61910600  0.45411200  1
  P  P23  1  0.07269500  0.30343900  0.17864100  1
  O  O24  1  0.36653300  0.16747600  0.97266100  1
  O  O25  1  0.75857850  0.85762750  0.66779800  1
  O  O26  1  0.54565700  0.10863200  0.33069500  1
  O  O27  1  0.18778150  0.12211150  0.73147800  1
  O  O28  1  0.60062350  0.69677150  0.35044400  1
  O  O29  1  0.50000000  0.25514500  0.00000000  1
  O  O30  1  0.18778150  0.87788850  0.73147800  1
  O  O31  1  0.39937650  0.69677150  0.64955600  1
  O  O32  1  0.60062350  0.30322850  0.35044400  1
  O  O33  1  0.13589600  0.00000000  0.36329100  1
  O  O34  1  0.45434300  0.10863200  0.66930500  1
  O  O35  1  0.86410400  0.00000000  0.63670900  1
  O  O36  1  0.39937650  0.30322850  0.64955600  1
  O  O37  1  0.24142150  0.14237250  0.33220200  1
  O  O38  1  0.81221850  0.87788850  0.26852200  1
  O  O39  1  0.36653300  0.83252400  0.97266100  1
  O  O40  1  0.50000000  0.74485500  0.00000000  1
  O  O41  1  0.75857850  0.14237250  0.66779800  1
  O  O42  1  0.63346700  0.83252400  0.02733900  1
  O  O43  1  0.24142150  0.85762750  0.33220200  1
  O  O44  1  0.63346700  0.16747600  0.02733900  1
  O  O45  1  0.81221850  0.12211150  0.26852200  1
  O  O46  1  0.54565700  0.89136800  0.33069500  1
  O  O47  1  0.45434300  0.89136800  0.66930500  1
  O  O48  1  0.86653300  0.66747600  0.97266100  1
  O  O49  1  0.25857850  0.35762750  0.66779800  1
  O  O50  1  0.04565700  0.60863200  0.33069500  1
  O  O51  1  0.68778150  0.62211150  0.73147800  1
  O  O52  1  0.10062350  0.19677150  0.35044400  1
  O  O53  1  0.00000000  0.75514500  0.00000000  1
  O  O54  1  0.68778150  0.37788850  0.73147800  1
  O  O55  1  0.89937650  0.19677150  0.64955600  1
  O  O56  1  0.10062350  0.80322850  0.35044400  1
  O  O57  1  0.63589600  0.50000000  0.36329100  1
  O  O58  1  0.95434300  0.60863200  0.66930500  1
  O  O59  1  0.36410400  0.50000000  0.63670900  1
  O  O60  1  0.89937650  0.80322850  0.64955600  1
  O  O61  1  0.74142150  0.64237250  0.33220200  1
  O  O62  1  0.31221850  0.37788850  0.26852200  1
  O  O63  1  0.86653300  0.33252400  0.97266100  1
  O  O64  1  0.00000000  0.24485500  0.00000000  1
  O  O65  1  0.25857850  0.64237250  0.66779800  1
  O  O66  1  0.13346700  0.33252400  0.02733900  1
  O  O67  1  0.74142150  0.35762750  0.33220200  1
  O  O68  1  0.13346700  0.66747600  0.02733900  1
  O  O69  1  0.31221850  0.62211150  0.26852200  1
  O  O70  1  0.04565700  0.39136800  0.33069500  1
  O  O71  1  0.95434300  0.39136800  0.66930500  1
