# generated using pymatgen
data_Li2B12H26O7
_symmetry_space_group_name_H-M   'P 1'
_cell_length_a   9.37325600
_cell_length_b   12.16335200
_cell_length_c   14.78118600
_cell_angle_alpha   90.00000000
_cell_angle_beta   90.00000000
_cell_angle_gamma   90.00000000
_symmetry_Int_Tables_number   1
_chemical_formula_structural   Li2B12H26O7
_chemical_formula_sum   'Li8 B48 H104 O28'
_cell_volume   1685.20615116
_cell_formula_units_Z   4
loop_
 _symmetry_equiv_pos_site_id
 _symmetry_equiv_pos_as_xyz
  1  'x, y, z'
loop_
 _atom_site_type_symbol
 _atom_site_label
 _atom_site_symmetry_multiplicity
 _atom_site_fract_x
 _atom_site_fract_y
 _atom_site_fract_z
 _atom_site_occupancy
  Li  Li0  1  0.45291300  0.36195600  0.25000000  1
  Li  Li1  1  0.54708700  0.36195600  0.75000000  1
  Li  Li2  1  0.54708700  0.63804400  0.75000000  1
  Li  Li3  1  0.45291300  0.63804400  0.25000000  1
  Li  Li4  1  0.95291300  0.86195600  0.25000000  1
  Li  Li5  1  0.04708700  0.86195600  0.75000000  1
  Li  Li6  1  0.04708700  0.13804400  0.75000000  1
  Li  Li7  1  0.95291300  0.13804400  0.25000000  1
  B  B8  1  0.32039100  0.00000000  0.98474600  1
  B  B9  1  0.67960900  0.00000000  0.01525400  1
  B  B10  1  0.32039100  0.00000000  0.51525400  1
  B  B11  1  0.67960900  0.00000000  0.48474600  1
  B  B12  1  0.39866900  0.00000000  0.09447900  1
  B  B13  1  0.60133100  0.00000000  0.90552100  1
  B  B14  1  0.39866900  0.00000000  0.40552100  1
  B  B15  1  0.60133100  0.00000000  0.59447900  1
  B  B16  1  0.56305100  0.92669200  0.08909000  1
  B  B17  1  0.43694900  0.92669200  0.91091000  1
  B  B18  1  0.56305100  0.92669200  0.41091000  1
  B  B19  1  0.43694900  0.92669200  0.58909000  1
  B  B20  1  0.43694900  0.07330800  0.91091000  1
  B  B21  1  0.56305100  0.07330800  0.08909000  1
  B  B22  1  0.43694900  0.07330800  0.58909000  1
  B  B23  1  0.56305100  0.07330800  0.41091000  1
  B  B24  1  0.41343950  0.11829150  0.02437700  1
  B  B25  1  0.58656050  0.11829150  0.97562300  1
  B  B26  1  0.41343950  0.11829150  0.47562300  1
  B  B27  1  0.58656050  0.11829150  0.52437700  1
  B  B28  1  0.58656050  0.88170850  0.97562300  1
  B  B29  1  0.41343950  0.88170850  0.02437700  1
  B  B30  1  0.58656050  0.88170850  0.52437700  1
  B  B31  1  0.41343950  0.88170850  0.47562300  1
  B  B32  1  0.82039100  0.50000000  0.98474600  1
  B  B33  1  0.17960900  0.50000000  0.01525400  1
  B  B34  1  0.82039100  0.50000000  0.51525400  1
  B  B35  1  0.17960900  0.50000000  0.48474600  1
  B  B36  1  0.89866900  0.50000000  0.09447900  1
  B  B37  1  0.10133100  0.50000000  0.90552100  1
  B  B38  1  0.89866900  0.50000000  0.40552100  1
  B  B39  1  0.10133100  0.50000000  0.59447900  1
  B  B40  1  0.06305100  0.42669200  0.08909000  1
  B  B41  1  0.93694900  0.42669200  0.91091000  1
  B  B42  1  0.06305100  0.42669200  0.41091000  1
  B  B43  1  0.93694900  0.42669200  0.58909000  1
  B  B44  1  0.93694900  0.57330800  0.91091000  1
  B  B45  1  0.06305100  0.57330800  0.08909000  1
  B  B46  1  0.93694900  0.57330800  0.58909000  1
  B  B47  1  0.06305100  0.57330800  0.41091000  1
  B  B48  1  0.91343950  0.61829150  0.02437700  1
  B  B49  1  0.08656050  0.61829150  0.97562300  1
  B  B50  1  0.91343950  0.61829150  0.47562300  1
  B  B51  1  0.08656050  0.61829150  0.52437700  1
  B  B52  1  0.08656050  0.38170850  0.97562300  1
  B  B53  1  0.91343950  0.38170850  0.02437700  1
  B  B54  1  0.08656050  0.38170850  0.52437700  1
  B  B55  1  0.91343950  0.38170850  0.47562300  1
  H  H56  1  0.76237200  0.00000000  0.19765600  1
  H  H57  1  0.23762800  0.00000000  0.80234400  1
  H  H58  1  0.76237200  0.00000000  0.30234400  1
  H  H59  1  0.23762800  0.00000000  0.69765600  1
  H  H60  1  0.34183350  0.82038450  0.19756900  1
  H  H61  1  0.65816650  0.82038450  0.80243100  1
  H  H62  1  0.34183350  0.82038450  0.30243100  1
  H  H63  1  0.65816650  0.82038450  0.69756900  1
  H  H64  1  0.65816650  0.17961550  0.80243100  1
  H  H65  1  0.34183350  0.17961550  0.19756900  1
  H  H66  1  0.65816650  0.17961550  0.69756900  1
  H  H67  1  0.34183350  0.17961550  0.30243100  1
  H  H68  1  0.12494500  0.08869500  0.39350100  1
  H  H69  1  0.87505500  0.08869500  0.60649900  1
  H  H70  1  0.12494500  0.08869500  0.10649900  1
  H  H71  1  0.87505500  0.08869500  0.89350100  1
  H  H72  1  0.87505500  0.91130500  0.60649900  1
  H  H73  1  0.12494500  0.91130500  0.39350100  1
  H  H74  1  0.87505500  0.91130500  0.89350100  1
  H  H75  1  0.12494500  0.91130500  0.10649900  1
  H  H76  1  0.54530350  0.69883750  0.40640200  1
  H  H77  1  0.45469650  0.69883750  0.59359800  1
  H  H78  1  0.54530350  0.69883750  0.09359800  1
  H  H79  1  0.45469650  0.69883750  0.90640200  1
  H  H80  1  0.45469650  0.30116250  0.59359800  1
  H  H81  1  0.54530350  0.30116250  0.40640200  1
  H  H82  1  0.45469650  0.30116250  0.90640200  1
  H  H83  1  0.54530350  0.30116250  0.09359800  1
  H  H84  1  0.19304700  0.00000000  0.97391500  1
  H  H85  1  0.80695300  0.00000000  0.02608500  1
  H  H86  1  0.19304700  0.00000000  0.52608500  1
  H  H87  1  0.80695300  0.00000000  0.47391500  1
  H  H88  1  0.32524400  0.00000000  0.16189200  1
  H  H89  1  0.67475600  0.00000000  0.83810800  1
  H  H90  1  0.32524400  0.00000000  0.33810800  1
  H  H91  1  0.67475600  0.00000000  0.66189200  1
  H  H92  1  0.60653950  0.87356050  0.15173000  1
  H  H93  1  0.39346050  0.87356050  0.84827000  1
  H  H94  1  0.60653950  0.87356050  0.34827000  1
  H  H95  1  0.39346050  0.87356050  0.65173000  1
  H  H96  1  0.39346050  0.12643950  0.84827000  1
  H  H97  1  0.60653950  0.12643950  0.15173000  1
  H  H98  1  0.39346050  0.12643950  0.65173000  1
  H  H99  1  0.60653950  0.12643950  0.34827000  1
  H  H100  1  0.35322200  0.20337800  0.04135200  1
  H  H101  1  0.64677800  0.20337800  0.95864800  1
  H  H102  1  0.35322200  0.20337800  0.45864800  1
  H  H103  1  0.64677800  0.20337800  0.54135200  1
  H  H104  1  0.64677800  0.79662200  0.95864800  1
  H  H105  1  0.35322200  0.79662200  0.04135200  1
  H  H106  1  0.64677800  0.79662200  0.54135200  1
  H  H107  1  0.35322200  0.79662200  0.45864800  1
  H  H108  1  0.26237200  0.50000000  0.19765600  1
  H  H109  1  0.73762800  0.50000000  0.80234400  1
  H  H110  1  0.26237200  0.50000000  0.30234400  1
  H  H111  1  0.73762800  0.50000000  0.69765600  1
  H  H112  1  0.84183350  0.32038450  0.19756900  1
  H  H113  1  0.15816650  0.32038450  0.80243100  1
  H  H114  1  0.84183350  0.32038450  0.30243100  1
  H  H115  1  0.15816650  0.32038450  0.69756900  1
  H  H116  1  0.15816650  0.67961550  0.80243100  1
  H  H117  1  0.84183350  0.67961550  0.19756900  1
  H  H118  1  0.15816650  0.67961550  0.69756900  1
  H  H119  1  0.84183350  0.67961550  0.30243100  1
  H  H120  1  0.62494500  0.58869500  0.39350100  1
  H  H121  1  0.37505500  0.58869500  0.60649900  1
  H  H122  1  0.62494500  0.58869500  0.10649900  1
  H  H123  1  0.37505500  0.58869500  0.89350100  1
  H  H124  1  0.37505500  0.41130500  0.60649900  1
  H  H125  1  0.62494500  0.41130500  0.39350100  1
  H  H126  1  0.37505500  0.41130500  0.89350100  1
  H  H127  1  0.62494500  0.41130500  0.10649900  1
  H  H128  1  0.04530350  0.19883750  0.40640200  1
  H  H129  1  0.95469650  0.19883750  0.59359800  1
  H  H130  1  0.04530350  0.19883750  0.09359800  1
  H  H131  1  0.95469650  0.19883750  0.90640200  1
  H  H132  1  0.95469650  0.80116250  0.59359800  1
  H  H133  1  0.04530350  0.80116250  0.40640200  1
  H  H134  1  0.95469650  0.80116250  0.90640200  1
  H  H135  1  0.04530350  0.80116250  0.09359800  1
  H  H136  1  0.69304700  0.50000000  0.97391500  1
  H  H137  1  0.30695300  0.50000000  0.02608500  1
  H  H138  1  0.69304700  0.50000000  0.52608500  1
  H  H139  1  0.30695300  0.50000000  0.47391500  1
  H  H140  1  0.82524400  0.50000000  0.16189200  1
  H  H141  1  0.17475600  0.50000000  0.83810800  1
  H  H142  1  0.82524400  0.50000000  0.33810800  1
  H  H143  1  0.17475600  0.50000000  0.66189200  1
  H  H144  1  0.10653950  0.37356050  0.15173000  1
  H  H145  1  0.89346050  0.37356050  0.84827000  1
  H  H146  1  0.10653950  0.37356050  0.34827000  1
  H  H147  1  0.89346050  0.37356050  0.65173000  1
  H  H148  1  0.89346050  0.62643950  0.84827000  1
  H  H149  1  0.10653950  0.62643950  0.15173000  1
  H  H150  1  0.89346050  0.62643950  0.65173000  1
  H  H151  1  0.10653950  0.62643950  0.34827000  1
  H  H152  1  0.85322200  0.70337800  0.04135200  1
  H  H153  1  0.14677800  0.70337800  0.95864800  1
  H  H154  1  0.85322200  0.70337800  0.45864800  1
  H  H155  1  0.14677800  0.70337800  0.54135200  1
  H  H156  1  0.14677800  0.29662200  0.95864800  1
  H  H157  1  0.85322200  0.29662200  0.04135200  1
  H  H158  1  0.14677800  0.29662200  0.54135200  1
  H  H159  1  0.85322200  0.29662200  0.45864800  1
  O  O160  1  0.82680000  0.00000000  0.25000000  1
  O  O161  1  0.17320000  0.00000000  0.75000000  1
  O  O162  1  0.34085650  0.77174050  0.25000000  1
  O  O163  1  0.65914350  0.77174050  0.75000000  1
  O  O164  1  0.65914350  0.22825950  0.75000000  1
  O  O165  1  0.34085650  0.22825950  0.25000000  1
  O  O166  1  0.54710450  0.63284550  0.36892600  1
  O  O167  1  0.45289550  0.63284550  0.63107400  1
  O  O168  1  0.54710450  0.63284550  0.13107400  1
  O  O169  1  0.45289550  0.63284550  0.86892600  1
  O  O170  1  0.45289550  0.36715450  0.63107400  1
  O  O171  1  0.54710450  0.36715450  0.36892600  1
  O  O172  1  0.45289550  0.36715450  0.86892600  1
  O  O173  1  0.54710450  0.36715450  0.13107400  1
  O  O174  1  0.32680000  0.50000000  0.25000000  1
  O  O175  1  0.67320000  0.50000000  0.75000000  1
  O  O176  1  0.84085650  0.27174050  0.25000000  1
  O  O177  1  0.15914350  0.27174050  0.75000000  1
  O  O178  1  0.15914350  0.72825950  0.75000000  1
  O  O179  1  0.84085650  0.72825950  0.25000000  1
  O  O180  1  0.04710450  0.13284550  0.36892600  1
  O  O181  1  0.95289550  0.13284550  0.63107400  1
  O  O182  1  0.04710450  0.13284550  0.13107400  1
  O  O183  1  0.95289550  0.13284550  0.86892600  1
  O  O184  1  0.95289550  0.86715450  0.63107400  1
  O  O185  1  0.04710450  0.86715450  0.36892600  1
  O  O186  1  0.95289550  0.86715450  0.86892600  1
  O  O187  1  0.04710450  0.86715450  0.13107400  1
