# generated using pymatgen
data_Na2CO5
_symmetry_space_group_name_H-M   'P 1'
_cell_length_a   9.25230000
_cell_length_b   5.21035800
_cell_length_c   6.13626216
_cell_angle_alpha   90.00000000
_cell_angle_beta   108.07180908
_cell_angle_gamma   90.00000000
_symmetry_Int_Tables_number   1
_chemical_formula_structural   Na2CO5
_chemical_formula_sum   'Na4 C2 O10'
_cell_volume   281.22263262
_cell_formula_units_Z   2
loop_
 _symmetry_equiv_pos_site_id
 _symmetry_equiv_pos_as_xyz
  1  'x, y, z'
loop_
 _atom_site_type_symbol
 _atom_site_label
 _atom_site_symmetry_multiplicity
 _atom_site_fract_x
 _atom_site_fract_y
 _atom_site_fract_z
 _atom_site_occupancy
  Na  Na0  1  0.95416100  0.00000000  0.99471200  1
  Na  Na1  1  0.52930100  0.50000000  0.47325100  1
  Na  Na2  1  0.45416100  0.50000000  0.99471200  1
  Na  Na3  1  0.02930100  0.00000000  0.47325100  1
  C  C4  1  0.66034100  0.00000000  0.23113800  1
  C  C5  1  0.16034100  0.50000000  0.23113800  1
  O  O6  1  0.86901000  0.37740100  0.70309100  1
  O  O7  1  0.86901000  0.62259900  0.70309100  1
  O  O8  1  0.59595850  0.78601750  0.24953000  1
  O  O9  1  0.59595850  0.21398250  0.24953000  1
  O  O10  1  0.79226100  0.00000000  0.20165600  1
  O  O11  1  0.36901000  0.87740100  0.70309100  1
  O  O12  1  0.36901000  0.12259900  0.70309100  1
  O  O13  1  0.09595850  0.28601750  0.24953000  1
  O  O14  1  0.09595850  0.71398250  0.24953000  1
  O  O15  1  0.29226100  0.50000000  0.20165600  1
