# generated using pymatgen
data_Na2CuP2O7
_symmetry_space_group_name_H-M   'P 1'
_cell_length_a   14.83977400
_cell_length_b   5.83842000
_cell_length_c   8.13301263
_cell_angle_alpha   90.00000000
_cell_angle_beta   114.86189734
_cell_angle_gamma   90.00000000
_symmetry_Int_Tables_number   1
_chemical_formula_structural   Na2CuP2O7
_chemical_formula_sum   'Na8 Cu4 P8 O28'
_cell_volume   639.34662192
_cell_formula_units_Z   4
loop_
 _symmetry_equiv_pos_site_id
 _symmetry_equiv_pos_as_xyz
  1  'x, y, z'
loop_
 _atom_site_type_symbol
 _atom_site_label
 _atom_site_symmetry_multiplicity
 _atom_site_fract_x
 _atom_site_fract_y
 _atom_site_fract_z
 _atom_site_occupancy
  Na  Na0  1  0.22816500  0.85814900  0.29948300  1
  Na  Na1  1  0.27183500  0.35814900  0.20051700  1
  Na  Na2  1  0.27183500  0.64185100  0.70051700  1
  Na  Na3  1  0.22816500  0.14185100  0.79948300  1
  Na  Na4  1  0.72816500  0.35814900  0.29948300  1
  Na  Na5  1  0.77183500  0.85814900  0.20051700  1
  Na  Na6  1  0.77183500  0.14185100  0.70051700  1
  Na  Na7  1  0.72816500  0.64185100  0.79948300  1
  Cu  Cu8  1  0.00000000  0.00000000  0.50000000  1
  Cu  Cu9  1  0.00000000  0.00000000  0.00000000  1
  Cu  Cu10  1  0.50000000  0.50000000  0.50000000  1
  Cu  Cu11  1  0.50000000  0.50000000  0.00000000  1
  P  P12  1  0.39521650  0.16189350  0.65620500  1
  P  P13  1  0.10478350  0.66189350  0.84379500  1
  P  P14  1  0.10478350  0.33810650  0.34379500  1
  P  P15  1  0.39521650  0.83810650  0.15620500  1
  P  P16  1  0.89521650  0.66189350  0.65620500  1
  P  P17  1  0.60478350  0.16189350  0.84379500  1
  P  P18  1  0.60478350  0.83810650  0.34379500  1
  P  P19  1  0.89521650  0.33810650  0.15620500  1
  O  O20  1  0.00000000  0.52352300  0.75000000  1
  O  O21  1  0.00000000  0.47647700  0.25000000  1
  O  O22  1  0.39089350  0.33232750  0.79973300  1
  O  O23  1  0.10910650  0.83232750  0.70026700  1
  O  O24  1  0.10910650  0.16767250  0.20026700  1
  O  O25  1  0.39089350  0.66767250  0.29973300  1
  O  O26  1  0.31242600  0.98779900  0.60155400  1
  O  O27  1  0.18757400  0.48779900  0.89844600  1
  O  O28  1  0.18757400  0.51220100  0.39844600  1
  O  O29  1  0.31242600  0.01220100  0.10155400  1
  O  O30  1  0.39803150  0.71200250  0.99147000  1
  O  O31  1  0.10196850  0.21200250  0.50853000  1
  O  O32  1  0.10196850  0.78799750  0.00853000  1
  O  O33  1  0.39803150  0.28799750  0.49147000  1
  O  O34  1  0.50000000  0.02352300  0.75000000  1
  O  O35  1  0.50000000  0.97647700  0.25000000  1
  O  O36  1  0.89089350  0.83232750  0.79973300  1
  O  O37  1  0.60910650  0.33232750  0.70026700  1
  O  O38  1  0.60910650  0.66767250  0.20026700  1
  O  O39  1  0.89089350  0.16767250  0.29973300  1
  O  O40  1  0.81242600  0.48779900  0.60155400  1
  O  O41  1  0.68757400  0.98779900  0.89844600  1
  O  O42  1  0.68757400  0.01220100  0.39844600  1
  O  O43  1  0.81242600  0.51220100  0.10155400  1
  O  O44  1  0.89803150  0.21200250  0.99147000  1
  O  O45  1  0.60196850  0.71200250  0.50853000  1
  O  O46  1  0.60196850  0.28799750  0.00853000  1
  O  O47  1  0.89803150  0.78799750  0.49147000  1
