# generated using pymatgen
data_CsTiZnOF5
_symmetry_space_group_name_H-M   'P 1'
_cell_length_a   7.30136800
_cell_length_b   7.45381000
_cell_length_c   10.75770600
_cell_angle_alpha   90.00000000
_cell_angle_beta   90.00000000
_cell_angle_gamma   90.00000000
_symmetry_Int_Tables_number   1
_chemical_formula_structural   CsTiZnOF5
_chemical_formula_sum   'Cs4 Ti4 Zn4 O4 F20'
_cell_volume   585.46673919
_cell_formula_units_Z   4
loop_
 _symmetry_equiv_pos_site_id
 _symmetry_equiv_pos_as_xyz
  1  'x, y, z'
loop_
 _atom_site_type_symbol
 _atom_site_label
 _atom_site_symmetry_multiplicity
 _atom_site_fract_x
 _atom_site_fract_y
 _atom_site_fract_z
 _atom_site_occupancy
  Cs  Cs0  1  0.50000000  0.75000000  0.87620600  1
  Cs  Cs1  1  0.00000000  0.75000000  0.62379400  1
  Cs  Cs2  1  0.00000000  0.25000000  0.37620600  1
  Cs  Cs3  1  0.50000000  0.25000000  0.12379400  1
  Ti  Ti4  1  0.75000000  0.25000000  0.75000000  1
  Ti  Ti5  1  0.25000000  0.25000000  0.75000000  1
  Ti  Ti6  1  0.25000000  0.75000000  0.25000000  1
  Ti  Ti7  1  0.75000000  0.75000000  0.25000000  1
  Zn  Zn8  1  0.00000000  0.50000000  0.00000000  1
  Zn  Zn9  1  0.00000000  0.00000000  0.00000000  1
  Zn  Zn10  1  0.50000000  0.00000000  0.50000000  1
  Zn  Zn11  1  0.50000000  0.50000000  0.50000000  1
  O  O12  1  0.50000000  0.25000000  0.78978700  1
  O  O13  1  0.00000000  0.25000000  0.71021300  1
  O  O14  1  0.00000000  0.75000000  0.28978700  1
  O  O15  1  0.50000000  0.75000000  0.21021300  1
  F  F16  1  0.20883450  0.43799450  0.87475150  1
  F  F17  1  0.50000000  0.75000000  0.57078400  1
  F  F18  1  0.79116550  0.43799450  0.87475150  1
  F  F19  1  0.20883450  0.06200550  0.87475150  1
  F  F20  1  0.70883450  0.43799450  0.62524850  1
  F  F21  1  0.79116550  0.06200550  0.87475150  1
  F  F22  1  0.29116550  0.43799450  0.62524850  1
  F  F23  1  0.70883450  0.06200550  0.62524850  1
  F  F24  1  0.00000000  0.75000000  0.92921600  1
  F  F25  1  0.29116550  0.06200550  0.62524850  1
  F  F26  1  0.70883450  0.93799450  0.37475150  1
  F  F27  1  0.00000000  0.25000000  0.07078400  1
  F  F28  1  0.29116550  0.93799450  0.37475150  1
  F  F29  1  0.70883450  0.56200550  0.37475150  1
  F  F30  1  0.20883450  0.93799450  0.12524850  1
  F  F31  1  0.29116550  0.56200550  0.37475150  1
  F  F32  1  0.79116550  0.93799450  0.12524850  1
  F  F33  1  0.20883450  0.56200550  0.12524850  1
  F  F34  1  0.50000000  0.25000000  0.42921600  1
  F  F35  1  0.79116550  0.56200550  0.12524850  1
