# generated using pymatgen
data_SiO2
_symmetry_space_group_name_H-M   'P 1'
_cell_length_a   7.20953800
_cell_length_b   9.85163800
_cell_length_c   20.54099500
_cell_angle_alpha   90.00000000
_cell_angle_beta   90.00000000
_cell_angle_gamma   90.00000000
_symmetry_Int_Tables_number   1
_chemical_formula_structural   SiO2
_chemical_formula_sum   'Si24 O48'
_cell_volume   1458.93975070
_cell_formula_units_Z   24
loop_
 _symmetry_equiv_pos_site_id
 _symmetry_equiv_pos_as_xyz
  1  'x, y, z'
loop_
 _atom_site_type_symbol
 _atom_site_label
 _atom_site_symmetry_multiplicity
 _atom_site_fract_x
 _atom_site_fract_y
 _atom_site_fract_z
 _atom_site_occupancy
  Si  Si0  1  0.51764900  0.16136300  0.18849200  1
  Si  Si1  1  0.48235100  0.83863700  0.18849200  1
  Si  Si2  1  0.51764900  0.33863700  0.31150800  1
  Si  Si3  1  0.48235100  0.66136300  0.31150800  1
  Si  Si4  1  0.48235100  0.83863700  0.81150800  1
  Si  Si5  1  0.51764900  0.16136300  0.81150800  1
  Si  Si6  1  0.48235100  0.66136300  0.68849200  1
  Si  Si7  1  0.51764900  0.33863700  0.68849200  1
  Si  Si8  1  0.24112100  0.14608900  0.07371500  1
  Si  Si9  1  0.75887900  0.85391100  0.07371500  1
  Si  Si10  1  0.24112100  0.35391100  0.42628500  1
  Si  Si11  1  0.75887900  0.64608900  0.42628500  1
  Si  Si12  1  0.75887900  0.85391100  0.92628500  1
  Si  Si13  1  0.24112100  0.14608900  0.92628500  1
  Si  Si14  1  0.75887900  0.64608900  0.57371500  1
  Si  Si15  1  0.24112100  0.35391100  0.57371500  1
  Si  Si16  1  0.88150500  0.11195600  0.13096500  1
  Si  Si17  1  0.11849500  0.88804400  0.13096500  1
  Si  Si18  1  0.88150500  0.38804400  0.36903500  1
  Si  Si19  1  0.11849500  0.61195600  0.36903500  1
  Si  Si20  1  0.11849500  0.88804400  0.86903500  1
  Si  Si21  1  0.88150500  0.11195600  0.86903500  1
  Si  Si22  1  0.11849500  0.61195600  0.63096500  1
  Si  Si23  1  0.88150500  0.38804400  0.63096500  1
  O  O24  1  0.50000000  0.00000000  0.20495500  1
  O  O25  1  0.50000000  0.50000000  0.29504500  1
  O  O26  1  0.50000000  0.00000000  0.79504500  1
  O  O27  1  0.50000000  0.50000000  0.70495500  1
  O  O28  1  0.60372200  0.79866300  0.12433900  1
  O  O29  1  0.39627800  0.20133700  0.12433900  1
  O  O30  1  0.60372200  0.70133700  0.37566100  1
  O  O31  1  0.39627800  0.29866300  0.37566100  1
  O  O32  1  0.39627800  0.20133700  0.87566100  1
  O  O33  1  0.60372200  0.79866300  0.87566100  1
  O  O34  1  0.39627800  0.29866300  0.62433900  1
  O  O35  1  0.60372200  0.70133700  0.62433900  1
  O  O36  1  0.00000000  0.00000000  0.17451800  1
  O  O37  1  0.00000000  0.50000000  0.32548200  1
  O  O38  1  0.00000000  0.00000000  0.82548200  1
  O  O39  1  0.00000000  0.50000000  0.67451800  1
  O  O40  1  0.73685300  0.19792900  0.17473000  1
  O  O41  1  0.26314700  0.80207100  0.17473000  1
  O  O42  1  0.73685300  0.30207100  0.32527000  1
  O  O43  1  0.26314700  0.69792900  0.32527000  1
  O  O44  1  0.26314700  0.80207100  0.82527000  1
  O  O45  1  0.73685300  0.19792900  0.82527000  1
  O  O46  1  0.26314700  0.69792900  0.67473000  1
  O  O47  1  0.73685300  0.30207100  0.67473000  1
  O  O48  1  0.55442400  0.75000000  0.25000000  1
  O  O49  1  0.44557600  0.25000000  0.25000000  1
  O  O50  1  0.44557600  0.25000000  0.75000000  1
  O  O51  1  0.55442400  0.75000000  0.75000000  1
  O  O52  1  0.96454800  0.79345500  0.09382500  1
  O  O53  1  0.03545200  0.20654500  0.09382500  1
  O  O54  1  0.96454800  0.70654500  0.40617500  1
  O  O55  1  0.03545200  0.29345500  0.40617500  1
  O  O56  1  0.03545200  0.20654500  0.90617500  1
  O  O57  1  0.96454800  0.79345500  0.90617500  1
  O  O58  1  0.03545200  0.29345500  0.59382500  1
  O  O59  1  0.96454800  0.70654500  0.59382500  1
  O  O60  1  0.23473100  0.97896400  0.07733100  1
  O  O61  1  0.76526900  0.02103600  0.07733100  1
  O  O62  1  0.23473100  0.52103600  0.42266900  1
  O  O63  1  0.76526900  0.47896400  0.42266900  1
  O  O64  1  0.76526900  0.02103600  0.92266900  1
  O  O65  1  0.23473100  0.97896400  0.92266900  1
  O  O66  1  0.76526900  0.47896400  0.57733100  1
  O  O67  1  0.23473100  0.52103600  0.57733100  1
  O  O68  1  0.29219900  0.19213700  0.00000000  1
  O  O69  1  0.70780100  0.80786300  0.00000000  1
  O  O70  1  0.29219900  0.30786300  0.50000000  1
  O  O71  1  0.70780100  0.69213700  0.50000000  1
