# generated using pymatgen
data_Li16Nb2N8O
_symmetry_space_group_name_H-M   'P 1'
_cell_length_a   6.00651202
_cell_length_b   6.00651202
_cell_length_c   25.55860197
_cell_angle_alpha   90.00000000
_cell_angle_beta   90.00000000
_cell_angle_gamma   120.00000000
_symmetry_Int_Tables_number   1
_chemical_formula_structural   Li16Nb2N8O
_chemical_formula_sum   'Li48 Nb6 N24 O3'
_cell_volume   798.56896431
_cell_formula_units_Z   3
loop_
 _symmetry_equiv_pos_site_id
 _symmetry_equiv_pos_as_xyz
  1  'x, y, z'
loop_
 _atom_site_type_symbol
 _atom_site_label
 _atom_site_symmetry_multiplicity
 _atom_site_fract_x
 _atom_site_fract_y
 _atom_site_fract_z
 _atom_site_occupancy
  Li  Li0  1  0.33333333  0.66666667  0.08387067  1
  Li  Li1  1  0.33333333  0.66666667  0.24946267  1
  Li  Li2  1  0.00000000  0.00000000  0.07771500  1
  Li  Li3  1  0.66666667  0.33333333  0.25561833  1
  Li  Li4  1  0.03189600  0.34048300  0.02376800  1
  Li  Li5  1  0.30858700  0.96810400  0.02376800  1
  Li  Li6  1  0.65951700  0.69141300  0.02376800  1
  Li  Li7  1  0.63477067  0.99285033  0.30956533  1
  Li  Li8  1  0.35807967  0.36522933  0.30956533  1
  Li  Li9  1  0.00714967  0.64192033  0.30956533  1
  Li  Li10  1  0.27920133  0.31015967  0.14172667  1
  Li  Li11  1  0.97682633  0.36429167  0.19160667  1
  Li  Li12  1  0.63570833  0.61253467  0.19160667  1
  Li  Li13  1  0.38746533  0.02317367  0.19160667  1
  Li  Li14  1  0.68984033  0.96904167  0.14172667  1
  Li  Li15  1  0.03095833  0.72079867  0.14172667  1
  Li  Li16  1  0.00000000  0.00000000  0.41720400  1
  Li  Li17  1  0.00000000  0.00000000  0.58279600  1
  Li  Li18  1  0.66666667  0.33333333  0.41104833  1
  Li  Li19  1  0.33333333  0.66666667  0.58895167  1
  Li  Li20  1  0.69856267  0.67381633  0.35710133  1
  Li  Li21  1  0.97525367  0.30143733  0.35710133  1
  Li  Li22  1  0.32618367  0.02474633  0.35710133  1
  Li  Li23  1  0.30143733  0.32618367  0.64289867  1
  Li  Li24  1  0.02474633  0.69856267  0.64289867  1
  Li  Li25  1  0.67381633  0.97525367  0.64289867  1
  Li  Li26  1  0.94586800  0.64349300  0.47506000  1
  Li  Li27  1  0.64349300  0.69762500  0.52494000  1
  Li  Li28  1  0.30237500  0.94586800  0.52494000  1
  Li  Li29  1  0.05413200  0.35650700  0.52494000  1
  Li  Li30  1  0.35650700  0.30237500  0.47506000  1
  Li  Li31  1  0.69762500  0.05413200  0.47506000  1
  Li  Li32  1  0.66666667  0.33333333  0.75053733  1
  Li  Li33  1  0.66666667  0.33333333  0.91612933  1
  Li  Li34  1  0.33333333  0.66666667  0.74438167  1
  Li  Li35  1  0.00000000  0.00000000  0.92228500  1
  Li  Li36  1  0.36522933  0.00714967  0.69043467  1
  Li  Li37  1  0.64192033  0.63477067  0.69043467  1
  Li  Li38  1  0.99285033  0.35807967  0.69043467  1
  Li  Li39  1  0.96810400  0.65951700  0.97623200  1
  Li  Li40  1  0.69141300  0.03189600  0.97623200  1
  Li  Li41  1  0.34048300  0.30858700  0.97623200  1
  Li  Li42  1  0.61253467  0.97682633  0.80839333  1
  Li  Li43  1  0.31015967  0.03095833  0.85827333  1
  Li  Li44  1  0.96904167  0.27920133  0.85827333  1
  Li  Li45  1  0.72079867  0.68984033  0.85827333  1
  Li  Li46  1  0.02317367  0.63570833  0.80839333  1
  Li  Li47  1  0.36429167  0.38746533  0.80839333  1
  Nb  Nb48  1  0.66666667  0.33333333  0.08395833  1
  Nb  Nb49  1  0.00000000  0.00000000  0.24937500  1
  Nb  Nb50  1  0.33333333  0.66666667  0.41729167  1
  Nb  Nb51  1  0.66666667  0.33333333  0.58270833  1
  Nb  Nb52  1  0.00000000  0.00000000  0.75062500  1
  Nb  Nb53  1  0.33333333  0.66666667  0.91604167  1
  N  N54  1  0.66666667  0.33333333  0.00662533  1
  N  N55  1  0.00000000  0.00000000  0.32670800  1
  N  N56  1  0.35516267  0.02053833  0.10880133  1
  N  N57  1  0.66537567  0.64483733  0.10880133  1
  N  N58  1  0.97946167  0.33462433  0.10880133  1
  N  N59  1  0.31150400  0.31279500  0.22453200  1
  N  N60  1  0.00129100  0.68849600  0.22453200  1
  N  N61  1  0.68720500  0.99870900  0.22453200  1
  N  N62  1  0.33333333  0.66666667  0.33995867  1
  N  N63  1  0.66666667  0.33333333  0.66004133  1
  N  N64  1  0.02182933  0.35387167  0.44213467  1
  N  N65  1  0.33204233  0.97817067  0.44213467  1
  N  N66  1  0.64612833  0.66795767  0.44213467  1
  N  N67  1  0.97817067  0.64612833  0.55786533  1
  N  N68  1  0.66795767  0.02182933  0.55786533  1
  N  N69  1  0.35387167  0.33204233  0.55786533  1
  N  N70  1  0.00000000  0.00000000  0.67329200  1
  N  N71  1  0.33333333  0.66666667  0.99337467  1
  N  N72  1  0.68849600  0.68720500  0.77546800  1
  N  N73  1  0.99870900  0.31150400  0.77546800  1
  N  N74  1  0.31279500  0.00129100  0.77546800  1
  N  N75  1  0.64483733  0.97946167  0.89119867  1
  N  N76  1  0.33462433  0.35516267  0.89119867  1
  N  N77  1  0.02053833  0.66537567  0.89119867  1
  O  O78  1  0.00000000  0.00000000  0.00000000  1
  O  O79  1  0.66666667  0.33333333  0.33333333  1
  O  O80  1  0.33333333  0.66666667  0.66666667  1
