# generated using pymatgen
data_Na3Sr4La3Ti10O30
_symmetry_space_group_name_H-M   'P 1'
_cell_length_a   5.54360800
_cell_length_b   5.54882950
_cell_length_c   19.90459225
_cell_angle_alpha   97.93838560
_cell_angle_beta   97.92666537
_cell_angle_gamma   90.43714451
_symmetry_Int_Tables_number   1
_chemical_formula_structural   Na3Sr4La3Ti10O30
_chemical_formula_sum   'Na3 Sr4 La3 Ti10 O30'
_cell_volume   600.39246699
_cell_formula_units_Z   1
loop_
 _symmetry_equiv_pos_site_id
 _symmetry_equiv_pos_as_xyz
  1  'x, y, z'
loop_
 _atom_site_type_symbol
 _atom_site_label
 _atom_site_symmetry_multiplicity
 _atom_site_fract_x
 _atom_site_fract_y
 _atom_site_fract_z
 _atom_site_occupancy
  Na  Na0  1  0.14880700  0.64303900  0.30011600  1
  Na  Na1  1  0.74608700  0.24639200  0.49904300  1
  Na  Na2  1  0.34718000  0.84963700  0.69849200  1
  Sr  Sr3  1  0.04891300  0.55092400  0.10053200  1
  Sr  Sr4  1  0.54959000  0.04989100  0.09893000  1
  Sr  Sr5  1  0.44824700  0.95260300  0.89732100  1
  Sr  Sr6  1  0.94934600  0.45310400  0.89890000  1
  La  La7  1  0.64921300  0.14059700  0.29966000  1
  La  La8  1  0.24603900  0.74557600  0.49853900  1
  La  La9  1  0.84621500  0.35011400  0.69727100  1
  Ti  Ti10  1  0.09735900  0.09520800  0.20048200  1
  Ti  Ti11  1  0.69673000  0.69017800  0.39920700  1
  Ti  Ti12  1  0.59979300  0.59599000  0.20106400  1
  Ti  Ti13  1  0.29531400  0.29716900  0.59766200  1
  Ti  Ti14  1  0.19708600  0.19131600  0.39971800  1
  Ti  Ti15  1  0.79361100  0.79679200  0.59808300  1
  Ti  Ti16  1  0.39336000  0.40203200  0.79627700  1
  Ti  Ti17  1  0.99873300  0.00240100  0.99828500  1
  Ti  Ti18  1  0.89772500  0.90601100  0.79618000  1
  Ti  Ti19  1  0.49918600  0.50318600  0.99848500  1
  O  O20  1  0.75299000  0.25165400  0.00034000  1
  O  O21  1  0.52780700  0.52951800  0.10148800  1
  O  O22  1  0.11068000  0.12289500  0.30165700  1
  O  O23  1  0.84819200  0.34944300  0.20247000  1
  O  O24  1  0.75557500  0.75536000  0.00912200  1
  O  O25  1  0.84340000  0.85245500  0.19069800  1
  O  O26  1  0.70403800  0.71926100  0.50027700  1
  O  O27  1  0.44758500  0.95071200  0.40145200  1
  O  O28  1  0.45435200  0.43639900  0.38470900  1
  O  O29  1  0.36740800  0.35226100  0.21428100  1
  O  O30  1  0.35906100  0.86016400  0.20281100  1
  O  O31  1  0.07537400  0.07570200  0.10136400  1
  O  O32  1  0.30969200  0.31842900  0.69902600  1
  O  O33  1  0.14789600  0.64609900  0.79813800  1
  O  O34  1  0.04593000  0.54790100  0.60016200  1
  O  O35  1  0.96144100  0.96142600  0.41621200  1
  O  O36  1  0.05263500  0.03500200  0.58378200  1
  O  O37  1  0.95731700  0.46105200  0.40128300  1
  O  O38  1  0.68328200  0.69682300  0.30150300  1
  O  O39  1  0.92586600  0.92814500  0.89940900  1
  O  O40  1  0.65431900  0.15212100  0.79806500  1
  O  O41  1  0.56014900  0.55910000  0.61536000  1
  O  O42  1  0.65569900  0.63254700  0.78613800  1
  O  O43  1  0.55537400  0.05731200  0.59999300  1
  O  O44  1  0.28464700  0.30161200  0.50042700  1
  O  O45  1  0.15219200  0.16002500  0.80993500  1
  O  O46  1  0.24918400  0.24401900  0.99108800  1
  O  O47  1  0.88277100  0.89271900  0.69900300  1
  O  O48  1  0.47337400  0.47460100  0.89938300  1
  O  O49  1  0.25003100  0.74888200  0.00012400  1
