# generated using pymatgen
data_K2BaNi(NO2)6
_symmetry_space_group_name_H-M   'P 1'
_cell_length_a   7.62441600
_cell_length_b   7.81024273
_cell_length_c   7.92741595
_cell_angle_alpha   94.21306912
_cell_angle_beta   116.71285931
_cell_angle_gamma   117.35471982
_symmetry_Int_Tables_number   1
_chemical_formula_structural   K2BaNi(NO2)6
_chemical_formula_sum   'K2 Ba1 Ni1 N6 O12'
_cell_volume   350.42675307
_cell_formula_units_Z   1
loop_
 _symmetry_equiv_pos_site_id
 _symmetry_equiv_pos_as_xyz
  1  'x, y, z'
loop_
 _atom_site_type_symbol
 _atom_site_label
 _atom_site_symmetry_multiplicity
 _atom_site_fract_x
 _atom_site_fract_y
 _atom_site_fract_z
 _atom_site_occupancy
  K  K0  1  0.48482200  0.74221600  0.23627100  1
  K  K1  1  0.50766300  0.25370200  0.75939700  1
  Ba  Ba2  1  0.00794900  0.50007500  0.50747800  1
  Ni  Ni3  1  0.99130800  0.99235000  0.99790600  1
  N  N4  1  0.61383800  0.79972600  0.80246500  1
  N  N5  1  0.02876600  0.80325600  0.83632000  1
  N  N6  1  0.99627200  0.80792500  0.19877600  1
  N  N7  1  0.00061800  0.18363300  0.80668800  1
  N  N8  1  0.99068800  0.18894400  0.18808700  1
  N  N9  1  0.39418500  0.20284700  0.20624500  1
  O  O10  1  0.14821700  0.87264200  0.75922400  1
  O  O11  1  0.49773800  0.82173100  0.64298500  1
  O  O12  1  0.49722300  0.65167500  0.84181100  1
  O  O13  1  0.94137100  0.61563300  0.81888700  1
  O  O14  1  0.20593100  0.32908400  0.86802200  1
  O  O15  1  0.20074200  0.85746700  0.32729900  1
  O  O16  1  0.83510000  0.17127400  0.65096200  1
  O  O17  1  0.83072900  0.66804700  0.20621300  1
  O  O18  1  0.49432900  0.36495700  0.34983700  1
  O  O19  1  0.00295500  0.16094100  0.34685700  1
  O  O20  1  0.00193600  0.35033900  0.16187400  1
  O  O21  1  0.52730200  0.16306700  0.18488600  1
