# generated using pymatgen
data_Ba3In4(CuO4)3
_symmetry_space_group_name_H-M   'P 1'
_cell_length_a   12.33403400
_cell_length_b   12.33403400
_cell_length_c   8.62752000
_cell_angle_alpha   90.00000000
_cell_angle_beta   90.00000000
_cell_angle_gamma   90.00000000
_symmetry_Int_Tables_number   1
_chemical_formula_structural   Ba3In4(CuO4)3
_chemical_formula_sum   'Ba12 In16 Cu12 O48'
_cell_volume   1312.49076796
_cell_formula_units_Z   4
loop_
 _symmetry_equiv_pos_site_id
 _symmetry_equiv_pos_as_xyz
  1  'x, y, z'
loop_
 _atom_site_type_symbol
 _atom_site_label
 _atom_site_symmetry_multiplicity
 _atom_site_fract_x
 _atom_site_fract_y
 _atom_site_fract_z
 _atom_site_occupancy
  Ba  Ba0  1  0.27957300  0.77957300  0.50000000  1
  Ba  Ba1  1  0.72042700  0.77957300  0.00000000  1
  Ba  Ba2  1  0.72042700  0.22042700  0.50000000  1
  Ba  Ba3  1  0.00000000  0.00000000  0.50000000  1
  Ba  Ba4  1  0.27957300  0.22042700  0.00000000  1
  Ba  Ba5  1  0.00000000  0.00000000  0.00000000  1
  Ba  Ba6  1  0.77957300  0.27957300  0.00000000  1
  Ba  Ba7  1  0.22042700  0.27957300  0.50000000  1
  Ba  Ba8  1  0.22042700  0.72042700  0.00000000  1
  Ba  Ba9  1  0.50000000  0.50000000  0.00000000  1
  Ba  Ba10  1  0.77957300  0.72042700  0.50000000  1
  Ba  Ba11  1  0.50000000  0.50000000  0.50000000  1
  In  In12  1  0.75711500  0.00000000  0.75000000  1
  In  In13  1  0.24288500  0.00000000  0.25000000  1
  In  In14  1  0.50000000  0.74288500  0.25000000  1
  In  In15  1  0.50000000  0.25711500  0.75000000  1
  In  In16  1  0.75711500  0.00000000  0.25000000  1
  In  In17  1  0.50000000  0.74288500  0.75000000  1
  In  In18  1  0.24288500  0.00000000  0.75000000  1
  In  In19  1  0.50000000  0.25711500  0.25000000  1
  In  In20  1  0.25711500  0.50000000  0.25000000  1
  In  In21  1  0.74288500  0.50000000  0.75000000  1
  In  In22  1  0.00000000  0.24288500  0.75000000  1
  In  In23  1  0.00000000  0.75711500  0.25000000  1
  In  In24  1  0.25711500  0.50000000  0.75000000  1
  In  In25  1  0.00000000  0.24288500  0.25000000  1
  In  In26  1  0.74288500  0.50000000  0.25000000  1
  In  In27  1  0.00000000  0.75711500  0.75000000  1
  Cu  Cu28  1  0.39515850  0.10484150  0.50000000  1
  Cu  Cu29  1  0.60484150  0.10484150  0.00000000  1
  Cu  Cu30  1  0.60484150  0.89515850  0.50000000  1
  Cu  Cu31  1  0.50000000  0.00000000  0.25000000  1
  Cu  Cu32  1  0.39515850  0.89515850  0.00000000  1
  Cu  Cu33  1  0.50000000  0.00000000  0.75000000  1
  Cu  Cu34  1  0.89515850  0.60484150  0.00000000  1
  Cu  Cu35  1  0.10484150  0.60484150  0.50000000  1
  Cu  Cu36  1  0.10484150  0.39515850  0.00000000  1
  Cu  Cu37  1  0.00000000  0.50000000  0.75000000  1
  Cu  Cu38  1  0.89515850  0.39515850  0.50000000  1
  Cu  Cu39  1  0.00000000  0.50000000  0.25000000  1
  O  O40  1  0.26916100  0.99823300  0.00000000  1
  O  O41  1  0.87019150  0.87019150  0.25000000  1
  O  O42  1  0.49823300  0.76916100  0.00000000  1
  O  O43  1  0.38757400  0.88757400  0.77233450  1
  O  O44  1  0.62980850  0.62980850  0.25000000  1
  O  O45  1  0.61242600  0.11242600  0.22766550  1
  O  O46  1  0.87019150  0.87019150  0.75000000  1
  O  O47  1  0.26916100  0.00176700  0.50000000  1
  O  O48  1  0.50176700  0.23083900  0.00000000  1
  O  O49  1  0.61242600  0.88757400  0.27233450  1
  O  O50  1  0.62980850  0.62980850  0.75000000  1
  O  O51  1  0.49823300  0.23083900  0.50000000  1
  O  O52  1  0.50176700  0.76916100  0.50000000  1
  O  O53  1  0.38757400  0.11242600  0.27233450  1
  O  O54  1  0.87019150  0.12980850  0.25000000  1
  O  O55  1  0.87019150  0.12980850  0.75000000  1
  O  O56  1  0.62980850  0.37019150  0.25000000  1
  O  O57  1  0.38757400  0.88757400  0.22766550  1
  O  O58  1  0.38757400  0.11242600  0.72766550  1
  O  O59  1  0.61242600  0.11242600  0.77233450  1
  O  O60  1  0.61242600  0.88757400  0.72766550  1
  O  O61  1  0.73083900  0.99823300  0.50000000  1
  O  O62  1  0.62980850  0.37019150  0.75000000  1
  O  O63  1  0.73083900  0.00176700  0.00000000  1
  O  O64  1  0.76916100  0.49823300  0.50000000  1
  O  O65  1  0.37019150  0.37019150  0.75000000  1
  O  O66  1  0.99823300  0.26916100  0.50000000  1
  O  O67  1  0.88757400  0.38757400  0.27233450  1
  O  O68  1  0.12980850  0.12980850  0.75000000  1
  O  O69  1  0.11242600  0.61242600  0.72766550  1
  O  O70  1  0.37019150  0.37019150  0.25000000  1
  O  O71  1  0.76916100  0.50176700  0.00000000  1
  O  O72  1  0.00176700  0.73083900  0.50000000  1
  O  O73  1  0.11242600  0.38757400  0.77233450  1
  O  O74  1  0.12980850  0.12980850  0.25000000  1
  O  O75  1  0.99823300  0.73083900  0.00000000  1
  O  O76  1  0.00176700  0.26916100  0.00000000  1
  O  O77  1  0.88757400  0.61242600  0.77233450  1
  O  O78  1  0.37019150  0.62980850  0.75000000  1
  O  O79  1  0.37019150  0.62980850  0.25000000  1
  O  O80  1  0.12980850  0.87019150  0.75000000  1
  O  O81  1  0.88757400  0.38757400  0.72766550  1
  O  O82  1  0.88757400  0.61242600  0.22766550  1
  O  O83  1  0.11242600  0.61242600  0.27233450  1
  O  O84  1  0.11242600  0.38757400  0.22766550  1
  O  O85  1  0.23083900  0.49823300  0.00000000  1
  O  O86  1  0.12980850  0.87019150  0.25000000  1
  O  O87  1  0.23083900  0.50176700  0.50000000  1
