# generated using pymatgen
data_Na13Zr8Si9(PO16)3
_symmetry_space_group_name_H-M   'P 1'
_cell_length_a   9.19207300
_cell_length_b   9.19567848
_cell_length_c   16.22682351
_cell_angle_alpha   90.21416873
_cell_angle_beta   105.98629300
_cell_angle_gamma   119.74300719
_symmetry_Int_Tables_number   1
_chemical_formula_structural   Na13Zr8Si9(PO16)3
_chemical_formula_sum   'Na13 Zr8 Si9 P3 O48'
_cell_volume   1128.55253693
_cell_formula_units_Z   1
loop_
 _symmetry_equiv_pos_site_id
 _symmetry_equiv_pos_as_xyz
  1  'x, y, z'
loop_
 _atom_site_type_symbol
 _atom_site_label
 _atom_site_symmetry_multiplicity
 _atom_site_fract_x
 _atom_site_fract_y
 _atom_site_fract_z
 _atom_site_occupancy
  Na  Na0  1  0.29692700  0.74341600  0.79889400  1
  Na  Na1  1  0.09643700  0.36651400  0.59900600  1
  Na  Na2  1  0.99859300  0.99778800  0.50288000  1
  Na  Na3  1  0.59776800  0.48124600  0.86902000  1
  Na  Na4  1  0.30289200  0.24408500  0.29391900  1
  Na  Na5  1  0.39401200  0.01069200  0.63045900  1
  Na  Na6  1  0.01150300  0.56222800  0.01135800  1
  Na  Na7  1  0.91576100  0.17068300  0.91612000  1
  Na  Na8  1  0.60119300  0.98335800  0.37031900  1
  Na  Na9  1  0.70537500  0.75037800  0.69656900  1
  Na  Na10  1  0.38438200  0.51006000  0.12228900  1
  Na  Na11  1  0.90669700  0.64224800  0.40578000  1
  Na  Na12  1  0.71488100  0.25805800  0.19548500  1
  Zr  Zr13  1  0.15354500  0.07287200  0.72174700  1
  Zr  Zr14  1  0.64487400  0.82306100  0.97276100  1
  Zr  Zr15  1  0.15800400  0.57530900  0.22121700  1
  Zr  Zr16  1  0.35882500  0.68683000  0.53049100  1
  Zr  Zr17  1  0.64191800  0.31710400  0.47287400  1
  Zr  Zr18  1  0.84913800  0.42530900  0.77698600  1
  Zr  Zr19  1  0.34683100  0.17529000  0.03237900  1
  Zr  Zr20  1  0.85318600  0.93055100  0.27716000  1
  Si  Si21  1  0.24940300  0.41348900  0.88072600  1
  Si  Si22  1  0.03956300  0.67020300  0.62238800  1
  Si  Si23  1  0.46199000  0.37521600  0.62922000  1
  Si  Si24  1  0.53706800  0.12740400  0.87400200  1
  Si  Si25  1  0.24627100  0.91214300  0.38067000  1
  Si  Si26  1  0.04127600  0.17380600  0.12300800  1
  Si  Si27  1  0.75339900  0.08760000  0.61865600  1
  Si  Si28  1  0.46502000  0.87818900  0.13025900  1
  Si  Si29  1  0.53944100  0.62534600  0.37182500  1
  P  P30  1  0.96023500  0.83072700  0.87788900  1
  P  P31  1  0.96025500  0.32955300  0.37670900  1
  P  P32  1  0.75232800  0.58678500  0.11952000  1
  O  O33  1  0.11461500  0.95486100  0.95801700  1
  O  O34  1  0.99995100  0.59715800  0.71115100  1
  O  O35  1  0.07082500  0.42591800  0.85699600  1
  O  O36  1  0.26270100  0.33760300  0.97212200  1
  O  O37  1  0.11147900  0.45161300  0.45873800  1
  O  O38  1  0.42330300  0.60073400  0.88741600  1
  O  O39  1  0.23473300  0.28507300  0.80411900  1
  O  O40  1  0.06588700  0.86002400  0.62406300  1
  O  O41  1  0.00198700  0.09820800  0.21147700  1
  O  O42  1  0.43089300  0.53041300  0.60133200  1
  O  O43  1  0.27389700  0.21485600  0.63326600  1
  O  O44  1  0.47969100  0.19479400  0.94554600  1
  O  O45  1  0.78357600  0.81474200  0.87771800  1
  O  O46  1  0.06666600  0.92204700  0.35904900  1
  O  O47  1  0.37712900  0.05254600  0.77928300  1
  O  O48  1  0.62332800  0.45001700  0.72294200  1
  O  O49  1  0.22309500  0.67659000  0.62363500  1
  O  O50  1  0.51398500  0.29914900  0.55775200  1
  O  O51  1  0.26206900  0.83891800  0.47292800  1
  O  O52  1  0.72326100  0.28961500  0.86845700  1
  O  O53  1  0.56904800  0.96933400  0.89794800  1
  O  O54  1  0.41911300  0.09840500  0.38571300  1
  O  O55  1  0.22837600  0.77955600  0.30537800  1
  O  O56  1  0.94009400  0.65293500  0.87776600  1
  O  O57  1  0.05621200  0.35980900  0.12429900  1
  O  O58  1  0.76238000  0.21402900  0.69435000  1
  O  O59  1  0.58198500  0.89981700  0.61316900  1
  O  O60  1  0.44548300  0.04029500  0.10442000  1
  O  O61  1  0.27910000  0.71528500  0.13466300  1
  O  O62  1  0.73780400  0.15978100  0.52619400  1
  O  O63  1  0.48438200  0.69661200  0.44320400  1
  O  O64  1  0.78351700  0.31785700  0.37315100  1
  O  O65  1  0.37747600  0.55410000  0.27785500  1
  O  O66  1  0.62559800  0.94636400  0.22410000  1
  O  O67  1  0.93214700  0.07745200  0.64300900  1
  O  O68  1  0.23400600  0.20077700  0.12614700  1
  O  O69  1  0.51782700  0.80252300  0.05872200  1
  O  O70  1  0.72700700  0.78577800  0.36693000  1
  O  O71  1  0.56808400  0.46625800  0.39542400  1
  O  O72  1  0.99514900  0.89863300  0.79364200  1
  O  O73  1  0.93725900  0.14975500  0.37726000  1
  O  O74  1  0.76749200  0.71086800  0.19142100  1
  O  O75  1  0.58811500  0.41000500  0.11575000  1
  O  O76  1  0.87795300  0.53928000  0.53641300  1
  O  O77  1  0.72940600  0.64808100  0.03121000  1
  O  O78  1  0.91568600  0.56693200  0.14344500  1
  O  O79  1  0.00198800  0.39834300  0.29387500  1
  O  O80  1  0.88125400  0.04021900  0.03745500  1
