# generated using pymatgen
data_ZrPbO3
_symmetry_space_group_name_H-M   'P 1'
_cell_length_a   6.04234100
_cell_length_b   8.38609900
_cell_length_c   11.95611900
_cell_angle_alpha   90.00000000
_cell_angle_beta   90.00000000
_cell_angle_gamma   90.00000000
_symmetry_Int_Tables_number   1
_chemical_formula_structural   ZrPbO3
_chemical_formula_sum   'Zr8 Pb8 O24'
_cell_volume   605.83651427
_cell_formula_units_Z   8
loop_
 _symmetry_equiv_pos_site_id
 _symmetry_equiv_pos_as_xyz
  1  'x, y, z'
loop_
 _atom_site_type_symbol
 _atom_site_label
 _atom_site_symmetry_multiplicity
 _atom_site_fract_x
 _atom_site_fract_y
 _atom_site_fract_z
 _atom_site_occupancy
  Zr  Zr0  1  0.74137800  0.24580800  0.38022000  1
  Zr  Zr1  1  0.24137800  0.24580800  0.11978000  1
  Zr  Zr2  1  0.25862200  0.24580800  0.61978000  1
  Zr  Zr3  1  0.25906900  0.74783700  0.61954600  1
  Zr  Zr4  1  0.24093100  0.74783700  0.11954600  1
  Zr  Zr5  1  0.74093100  0.74783700  0.38045400  1
  Zr  Zr6  1  0.75906900  0.74783700  0.88045400  1
  Zr  Zr7  1  0.75862200  0.24580800  0.88022000  1
  Pb  Pb8  1  0.30926800  0.01140700  0.86311000  1
  Pb  Pb9  1  0.69073200  0.01140700  0.13689000  1
  Pb  Pb10  1  0.80926800  0.01140700  0.63689000  1
  Pb  Pb11  1  0.30765500  0.51068700  0.85777100  1
  Pb  Pb12  1  0.69234500  0.51068700  0.14222900  1
  Pb  Pb13  1  0.19073200  0.01140700  0.36311000  1
  Pb  Pb14  1  0.80765500  0.51068700  0.64222900  1
  Pb  Pb15  1  0.19234500  0.51068700  0.35777100  1
  O  O16  1  0.00000000  0.22641400  0.00000000  1
  O  O17  1  0.45351600  0.24837700  0.76453200  1
  O  O18  1  0.53343400  0.72469500  0.24060400  1
  O  O19  1  0.21015400  0.49146200  0.62408900  1
  O  O20  1  0.95351600  0.24837700  0.73546800  1
  O  O21  1  0.00000000  0.20709000  0.50000000  1
  O  O22  1  0.78984600  0.49146200  0.37591100  1
  O  O23  1  0.54648400  0.24837700  0.23546800  1
  O  O24  1  0.50000000  0.20709000  0.00000000  1
  O  O25  1  0.71643800  0.99251100  0.85045900  1
  O  O26  1  0.03343400  0.72469500  0.25939600  1
  O  O27  1  0.00000000  0.75020400  0.50000000  1
  O  O28  1  0.71015400  0.49146200  0.87591100  1
  O  O29  1  0.21643800  0.99251100  0.64954100  1
  O  O30  1  0.04648400  0.24837700  0.26453200  1
  O  O31  1  0.50000000  0.22641400  0.50000000  1
  O  O32  1  0.46656600  0.72469500  0.75939600  1
  O  O33  1  0.78356200  0.99251100  0.35045900  1
  O  O34  1  0.50000000  0.75020400  0.00000000  1
  O  O35  1  0.28984600  0.49146200  0.12408900  1
  O  O36  1  0.28356200  0.99251100  0.14954100  1
  O  O37  1  0.50000000  0.75072300  0.50000000  1
  O  O38  1  0.96656600  0.72469500  0.74060400  1
  O  O39  1  0.00000000  0.75072300  0.00000000  1
