# generated using pymatgen
data_Y2Ti2O7
_symmetry_space_group_name_H-M   'P 1'
_cell_length_a   7.36587500
_cell_length_b   7.39743107
_cell_length_c   10.69679628
_cell_angle_alpha   86.13988558
_cell_angle_beta   88.87738194
_cell_angle_gamma   89.17811148
_symmetry_Int_Tables_number   1
_chemical_formula_structural   Y2Ti2O7
_chemical_formula_sum   'Y8 Ti8 O28'
_cell_volume   581.36948970
_cell_formula_units_Z   4
loop_
 _symmetry_equiv_pos_site_id
 _symmetry_equiv_pos_as_xyz
  1  'x, y, z'
loop_
 _atom_site_type_symbol
 _atom_site_label
 _atom_site_symmetry_multiplicity
 _atom_site_fract_x
 _atom_site_fract_y
 _atom_site_fract_z
 _atom_site_occupancy
  Y  Y0  1  0.00854100  0.99578700  0.00549100  1
  Y  Y1  1  0.72162500  0.25561800  0.75433100  1
  Y  Y2  1  0.98453100  0.03031900  0.51063400  1
  Y  Y3  1  0.29055600  0.21579200  0.24202900  1
  Y  Y4  1  0.22591100  0.76184700  0.76326900  1
  Y  Y5  1  0.47601700  0.99337900  0.52839000  1
  Y  Y6  1  0.51518300  0.50009600  0.00631900  1
  Y  Y7  1  0.80224800  0.69823400  0.24591500  1
  Ti  Ti8  1  0.52129600  0.94534300  0.01852000  1
  Ti  Ti9  1  0.70192700  0.73073300  0.72496000  1
  Ti  Ti10  1  0.75672600  0.21200800  0.24497100  1
  Ti  Ti11  1  0.01459100  0.47579400  0.98567800  1
  Ti  Ti12  1  0.97822100  0.53827300  0.56562900  1
  Ti  Ti13  1  0.23670100  0.72446000  0.32617100  1
  Ti  Ti14  1  0.26141600  0.27986500  0.71611000  1
  Ti  Ti15  1  0.53929600  0.50336700  0.46369400  1
  O  O16  1  0.29649800  0.03617000  0.07131300  1
  O  O17  1  0.60178600  0.10849400  0.35944800  1
  O  O18  1  0.81610300  0.99501400  0.16020300  1
  O  O19  1  0.72449800  0.99598100  0.64667900  1
  O  O20  1  0.72706400  0.53267900  0.60607000  1
  O  O21  1  0.99088700  0.19877100  0.32086100  1
  O  O22  1  0.02635000  0.27549700  0.87463300  1
  O  O23  1  0.04273400  0.72173300  0.92955800  1
  O  O24  1  0.97170800  0.28517800  0.60140900  1
  O  O25  1  0.19664800  0.51621500  0.66005000  1
  O  O26  1  0.21994700  0.42407000  0.07066400  1
  O  O27  1  0.24445200  0.95946500  0.39462200  1
  O  O28  1  0.21981100  0.03368600  0.66707200  1
  O  O29  1  0.42068600  0.30783800  0.83832500  1
  O  O30  1  0.45888600  0.28986800  0.59050800  1
  O  O31  1  0.44779900  0.79429800  0.89807300  1
  O  O32  1  0.54294500  0.74149200  0.40120400  1
  O  O33  1  0.55245700  0.26879700  0.13758500  1
  O  O34  1  0.56002900  0.73823900  0.12453700  1
  O  O35  1  0.72928500  0.54239900  0.85073600  1
  O  O36  1  0.71400400  0.44038700  0.35849100  1
  O  O37  1  0.84396200  0.45892300  0.11165300  1
  O  O38  1  0.11121200  0.75055800  0.19078800  1
  O  O39  1  0.00548400  0.69007400  0.41880100  1
  O  O40  1  0.95520800  0.75195000  0.66094900  1
  O  O41  1  0.32032100  0.47700800  0.36359700  1
  O  O42  1  0.47840300  0.73750000  0.65224500  1
  O  O43  1  0.71815800  0.04288200  0.91625700  1
