# generated using pymatgen
data_Dy14(PbS8)3
_symmetry_space_group_name_H-M   'P 1'
_cell_length_a   11.96073000
_cell_length_b   8.38906800
_cell_length_c   18.86991683
_cell_angle_alpha   90.00000000
_cell_angle_beta   108.36118874
_cell_angle_gamma   90.00000000
_symmetry_Int_Tables_number   1
_chemical_formula_structural   Dy14(PbS8)3
_chemical_formula_sum   'Dy28 Pb6 S48'
_cell_volume   1797.00219019
_cell_formula_units_Z   2
loop_
 _symmetry_equiv_pos_site_id
 _symmetry_equiv_pos_as_xyz
  1  'x, y, z'
loop_
 _atom_site_type_symbol
 _atom_site_label
 _atom_site_symmetry_multiplicity
 _atom_site_fract_x
 _atom_site_fract_y
 _atom_site_fract_z
 _atom_site_occupancy
  Dy  Dy0  1  0.54146400  0.75108800  0.19680300  1
  Dy  Dy1  1  0.82120050  0.00708550  0.03730100  1
  Dy  Dy2  1  0.87599550  0.74258250  0.87864500  1
  Dy  Dy3  1  0.62400450  0.24258250  0.12135500  1
  Dy  Dy4  1  0.21040600  0.75174700  0.53947800  1
  Dy  Dy5  1  0.66826350  0.50400550  0.71337600  1
  Dy  Dy6  1  0.67879950  0.50708550  0.96269900  1
  Dy  Dy7  1  0.95853600  0.25108800  0.80319700  1
  Dy  Dy8  1  0.33094550  0.12631350  0.16247600  1
  Dy  Dy9  1  0.49412800  0.99786100  0.37056900  1
  Dy  Dy10  1  0.00587200  0.49786100  0.62943100  1
  Dy  Dy11  1  0.78959400  0.75174700  0.46052200  1
  Dy  Dy12  1  0.16905450  0.62631350  0.83752400  1
  Dy  Dy13  1  0.83173650  0.00400550  0.28662400  1
  Dy  Dy14  1  0.04146400  0.25108800  0.19680300  1
  Dy  Dy15  1  0.32120050  0.50708550  0.03730100  1
  Dy  Dy16  1  0.37599550  0.24258250  0.87864500  1
  Dy  Dy17  1  0.12400450  0.74258250  0.12135500  1
  Dy  Dy18  1  0.71040600  0.25174700  0.53947800  1
  Dy  Dy19  1  0.16826350  0.00400550  0.71337600  1
  Dy  Dy20  1  0.17879950  0.00708550  0.96269900  1
  Dy  Dy21  1  0.45853600  0.75108800  0.80319700  1
  Dy  Dy22  1  0.83094550  0.62631350  0.16247600  1
  Dy  Dy23  1  0.99412800  0.49786100  0.37056900  1
  Dy  Dy24  1  0.50587200  0.99786100  0.62943100  1
  Dy  Dy25  1  0.28959400  0.25174700  0.46052200  1
  Dy  Dy26  1  0.66905450  0.12631350  0.83752400  1
  Dy  Dy27  1  0.33173650  0.50400550  0.28662400  1
  Pb  Pb28  1  0.83632300  0.87775800  0.66858900  1
  Pb  Pb29  1  0.66367700  0.37775800  0.33141100  1
  Pb  Pb30  1  0.50000000  0.62318100  0.50000000  1
  Pb  Pb31  1  0.33632300  0.37775800  0.66858900  1
  Pb  Pb32  1  0.16367700  0.87775800  0.33141100  1
  Pb  Pb33  1  0.00000000  0.12318100  0.50000000  1
  S  S34  1  0.60161000  0.55911500  0.08507600  1
  S  S35  1  0.34031050  0.82293950  0.08259900  1
  S  S36  1  0.93760200  0.56331700  0.75585000  1
  S  S37  1  0.10972300  0.69316800  0.96222400  1
  S  S38  1  0.67800500  0.81977800  0.75457500  1
  S  S39  1  0.15968950  0.32293950  0.91740100  1
  S  S40  1  0.69492850  0.92765250  0.13400300  1
  S  S41  1  0.97104600  0.93328500  0.19648300  1
  S  S42  1  0.75479150  0.06116050  0.41106600  1
  S  S43  1  0.39027700  0.19316800  0.03777600  1
  S  S44  1  0.43980800  0.69019300  0.63640100  1
  S  S45  1  0.00586250  0.80956150  0.41688600  1
  S  S46  1  0.99413750  0.80956150  0.58311400  1
  S  S47  1  0.02895400  0.93328500  0.80351700  1
  S  S48  1  0.80507150  0.42765250  0.86599700  1
  S  S49  1  0.39839000  0.55911500  0.91492400  1
  S  S50  1  0.22475100  0.68861000  0.70672900  1
  S  S51  1  0.77524900  0.68861000  0.29327100  1
  S  S52  1  0.32199500  0.81977800  0.24542500  1
  S  S53  1  0.85955600  0.44042400  0.46751900  1
  S  S54  1  0.64044400  0.94042400  0.53248100  1
  S  S55  1  0.74520850  0.56116050  0.58893400  1
  S  S56  1  0.56019200  0.69019300  0.36359900  1
  S  S57  1  0.56239800  0.06331700  0.24415000  1
  S  S58  1  0.10161000  0.05911500  0.08507600  1
  S  S59  1  0.84031050  0.32293950  0.08259900  1
  S  S60  1  0.43760200  0.06331700  0.75585000  1
  S  S61  1  0.60972300  0.19316800  0.96222400  1
  S  S62  1  0.17800500  0.31977800  0.75457500  1
  S  S63  1  0.65968950  0.82293950  0.91740100  1
  S  S64  1  0.19492850  0.42765250  0.13400300  1
  S  S65  1  0.47104600  0.43328500  0.19648300  1
  S  S66  1  0.25479150  0.56116050  0.41106600  1
  S  S67  1  0.89027700  0.69316800  0.03777600  1
  S  S68  1  0.93980800  0.19019300  0.63640100  1
  S  S69  1  0.50586250  0.30956150  0.41688600  1
  S  S70  1  0.49413750  0.30956150  0.58311400  1
  S  S71  1  0.52895400  0.43328500  0.80351700  1
  S  S72  1  0.30507150  0.92765250  0.86599700  1
  S  S73  1  0.89839000  0.05911500  0.91492400  1
  S  S74  1  0.72475100  0.18861000  0.70672900  1
  S  S75  1  0.27524900  0.18861000  0.29327100  1
  S  S76  1  0.82199500  0.31977800  0.24542500  1
  S  S77  1  0.35955600  0.94042400  0.46751900  1
  S  S78  1  0.14044400  0.44042400  0.53248100  1
  S  S79  1  0.24520850  0.06116050  0.58893400  1
  S  S80  1  0.06019200  0.19019300  0.36359900  1
  S  S81  1  0.06239800  0.56331700  0.24415000  1
