# generated using pymatgen
data_K3Cr11S18
_symmetry_space_group_name_H-M   'P 1'
_cell_length_a   21.47248000
_cell_length_b   3.52010800
_cell_length_c   16.47179061
_cell_angle_alpha   90.00000000
_cell_angle_beta   99.95973883
_cell_angle_gamma   90.00000000
_symmetry_Int_Tables_number   1
_chemical_formula_structural   K3Cr11S18
_chemical_formula_sum   'K6 Cr22 S36'
_cell_volume   1226.26453184
_cell_formula_units_Z   2
loop_
 _symmetry_equiv_pos_site_id
 _symmetry_equiv_pos_as_xyz
  1  'x, y, z'
loop_
 _atom_site_type_symbol
 _atom_site_label
 _atom_site_symmetry_multiplicity
 _atom_site_fract_x
 _atom_site_fract_y
 _atom_site_fract_z
 _atom_site_occupancy
  K  K0  1  0.69672600  0.50000000  0.08866200  1
  K  K1  1  0.80327400  0.00000000  0.91133800  1
  K  K2  1  0.00000000  0.50000000  0.50000000  1
  K  K3  1  0.19672600  0.00000000  0.08866200  1
  K  K4  1  0.30327400  0.50000000  0.91133800  1
  K  K5  1  0.50000000  0.00000000  0.50000000  1
  Cr  Cr6  1  0.65406700  0.50000000  0.72165700  1
  Cr  Cr7  1  0.84593300  0.00000000  0.27834300  1
  Cr  Cr8  1  0.70819000  0.00000000  0.57025500  1
  Cr  Cr9  1  0.91139200  0.50000000  0.13220300  1
  Cr  Cr10  1  0.53245000  0.00000000  0.25679200  1
  Cr  Cr11  1  0.96755000  0.50000000  0.74320800  1
  Cr  Cr12  1  0.79181000  0.50000000  0.42974500  1
  Cr  Cr13  1  0.58860800  0.00000000  0.86779700  1
  Cr  Cr14  1  0.66756300  0.50000000  0.32043200  1
  Cr  Cr15  1  0.83243700  0.00000000  0.67956800  1
  Cr  Cr16  1  0.00000000  0.00000000  0.00000000  1
  Cr  Cr17  1  0.15406700  0.00000000  0.72165700  1
  Cr  Cr18  1  0.34593300  0.50000000  0.27834300  1
  Cr  Cr19  1  0.20819000  0.50000000  0.57025500  1
  Cr  Cr20  1  0.41139200  0.00000000  0.13220300  1
  Cr  Cr21  1  0.03245000  0.50000000  0.25679200  1
  Cr  Cr22  1  0.46755000  0.00000000  0.74320800  1
  Cr  Cr23  1  0.29181000  0.00000000  0.42974500  1
  Cr  Cr24  1  0.08860800  0.50000000  0.86779700  1
  Cr  Cr25  1  0.16756300  0.00000000  0.32043200  1
  Cr  Cr26  1  0.33243700  0.50000000  0.67956800  1
  Cr  Cr27  1  0.50000000  0.50000000  0.00000000  1
  S  S28  1  0.86708600  0.50000000  0.77320300  1
  S  S29  1  0.57947500  0.00000000  0.00837700  1
  S  S30  1  0.66766200  0.50000000  0.87384800  1
  S  S31  1  0.77318500  0.50000000  0.28142000  1
  S  S32  1  0.70834100  0.00000000  0.42403200  1
  S  S33  1  0.92450000  0.50000000  0.28118500  1
  S  S34  1  0.63291400  0.00000000  0.22679700  1
  S  S35  1  0.56402100  0.50000000  0.35198600  1
  S  S36  1  0.83233800  0.00000000  0.12615200  1
  S  S37  1  0.86653800  0.00000000  0.42603100  1
  S  S38  1  0.93597900  0.00000000  0.64801400  1
  S  S39  1  0.57550000  0.00000000  0.71881500  1
  S  S40  1  0.63346200  0.50000000  0.57396900  1
  S  S41  1  0.92052500  0.50000000  0.99162300  1
  S  S42  1  0.50604500  0.50000000  0.85235800  1
  S  S43  1  0.72681500  0.00000000  0.71858000  1
  S  S44  1  0.99395500  0.00000000  0.14764200  1
  S  S45  1  0.79165900  0.50000000  0.57596800  1
  S  S46  1  0.36708600  0.00000000  0.77320300  1
  S  S47  1  0.07947500  0.50000000  0.00837700  1
  S  S48  1  0.16766200  0.00000000  0.87384800  1
  S  S49  1  0.27318500  0.00000000  0.28142000  1
  S  S50  1  0.20834100  0.50000000  0.42403200  1
  S  S51  1  0.42450000  0.00000000  0.28118500  1
  S  S52  1  0.13291400  0.50000000  0.22679700  1
  S  S53  1  0.06402100  0.00000000  0.35198600  1
  S  S54  1  0.33233800  0.50000000  0.12615200  1
  S  S55  1  0.36653800  0.50000000  0.42603100  1
  S  S56  1  0.43597900  0.50000000  0.64801400  1
  S  S57  1  0.07550000  0.50000000  0.71881500  1
  S  S58  1  0.13346200  0.00000000  0.57396900  1
  S  S59  1  0.42052500  0.00000000  0.99162300  1
  S  S60  1  0.00604500  0.00000000  0.85235800  1
  S  S61  1  0.22681500  0.50000000  0.71858000  1
  S  S62  1  0.49395500  0.50000000  0.14764200  1
  S  S63  1  0.29165900  0.00000000  0.57596800  1
