# generated using pymatgen
data_Ce4(GeS4)3
_symmetry_space_group_name_H-M   'P 1'
_cell_length_a   19.46590122
_cell_length_b   19.46590122
_cell_length_c   8.04776116
_cell_angle_alpha   90.00000000
_cell_angle_beta   90.00000000
_cell_angle_gamma   120.00000000
_symmetry_Int_Tables_number   1
_chemical_formula_structural   Ce4(GeS4)3
_chemical_formula_sum   'Ce24 Ge18 S72'
_cell_volume   2640.91693405
_cell_formula_units_Z   6
loop_
 _symmetry_equiv_pos_site_id
 _symmetry_equiv_pos_as_xyz
  1  'x, y, z'
loop_
 _atom_site_type_symbol
 _atom_site_label
 _atom_site_symmetry_multiplicity
 _atom_site_fract_x
 _atom_site_fract_y
 _atom_site_fract_z
 _atom_site_occupancy
  Ce  Ce0  1  0.43489233  0.10535667  0.03724167  1
  Ce  Ce1  1  0.22797667  0.99620233  0.70390833  1
  Ce  Ce2  1  0.43489233  0.32953567  0.53724167  1
  Ce  Ce3  1  0.33713100  0.89844100  0.37057500  1
  Ce  Ce4  1  0.22797667  0.23177433  0.20390833  1
  Ce  Ce5  1  0.00000000  0.00000000  0.99978800  1
  Ce  Ce6  1  0.33713100  0.43869000  0.87057500  1
  Ce  Ce7  1  0.00000000  0.00000000  0.49978800  1
  Ce  Ce8  1  0.10155900  0.43869000  0.37057500  1
  Ce  Ce9  1  0.89464333  0.32953567  0.03724167  1
  Ce  Ce10  1  0.10155900  0.66286900  0.87057500  1
  Ce  Ce11  1  0.00379767  0.23177433  0.70390833  1
  Ce  Ce12  1  0.89464333  0.56510767  0.53724167  1
  Ce  Ce13  1  0.66666667  0.33333333  0.33312133  1
  Ce  Ce14  1  0.00379767  0.77202333  0.20390833  1
  Ce  Ce15  1  0.66666667  0.33333333  0.83312133  1
  Ce  Ce16  1  0.76822567  0.77202333  0.70390833  1
  Ce  Ce17  1  0.56131000  0.66286900  0.37057500  1
  Ce  Ce18  1  0.76822567  0.99620233  0.20390833  1
  Ce  Ce19  1  0.67046433  0.56510767  0.03724167  1
  Ce  Ce20  1  0.56131000  0.89844100  0.87057500  1
  Ce  Ce21  1  0.33333333  0.66666667  0.66645467  1
  Ce  Ce22  1  0.67046433  0.10535667  0.53724167  1
  Ce  Ce23  1  0.33333333  0.66666667  0.16645467  1
  Ge  Ge24  1  0.20000633  0.18729167  0.65429467  1
  Ge  Ge25  1  0.20000633  0.01271467  0.15429467  1
  Ge  Ge26  1  0.32061867  0.85395833  0.82096133  1
  Ge  Ge27  1  0.32061867  0.46666033  0.32096133  1
  Ge  Ge28  1  0.47937500  0.34604800  0.98762800  1
  Ge  Ge29  1  0.47937500  0.13332700  0.48762800  1
  Ge  Ge30  1  0.86667300  0.52062500  0.98762800  1
  Ge  Ge31  1  0.86667300  0.34604800  0.48762800  1
  Ge  Ge32  1  0.98728533  0.18729167  0.15429467  1
  Ge  Ge33  1  0.98728533  0.79999367  0.65429467  1
  Ge  Ge34  1  0.14604167  0.67938133  0.32096133  1
  Ge  Ge35  1  0.14604167  0.46666033  0.82096133  1
  Ge  Ge36  1  0.53333967  0.85395833  0.32096133  1
  Ge  Ge37  1  0.53333967  0.67938133  0.82096133  1
  Ge  Ge38  1  0.65395200  0.52062500  0.48762800  1
  Ge  Ge39  1  0.65395200  0.13332700  0.98762800  1
  Ge  Ge40  1  0.81270833  0.01271467  0.65429467  1
  Ge  Ge41  1  0.81270833  0.79999367  0.15429467  1
  S  S42  1  0.12309733  0.06134567  0.75027167  1
  S  S43  1  0.27198767  0.54356933  0.91693833  1
  S  S44  1  0.11339000  0.20057900  0.49606300  1
  S  S45  1  0.46608767  0.24614433  0.82939633  1
  S  S46  1  0.22408067  0.37782633  0.15944333  1
  S  S47  1  0.27198767  0.72841833  0.41693833  1
  S  S48  1  0.42052233  0.55327667  0.16272967  1
  S  S49  1  0.22408067  0.84625433  0.65944333  1
  S  S50  1  0.33060400  0.39188600  0.52147400  1
  S  S51  1  0.27478067  0.00272933  0.35480733  1
  S  S52  1  0.27478067  0.27205133  0.85480733  1
  S  S53  1  0.11339000  0.91281100  0.99606300  1
  S  S54  1  0.46608767  0.21994333  0.32939633  1
  S  S55  1  0.60491500  0.39467900  0.58360500  1
  S  S56  1  0.12309733  0.06175167  0.25027167  1
  S  S57  1  0.39461533  0.05855267  0.68814067  1
  S  S58  1  0.48707900  0.44258600  0.82611000  1
  S  S59  1  0.33060400  0.93871800  0.02147400  1
  S  S60  1  0.48707900  0.04449300  0.32611000  1
  S  S61  1  0.28884033  0.10925267  0.99277667  1
  S  S62  1  0.28884033  0.17958767  0.49277667  1
  S  S63  1  0.39461533  0.33606267  0.18814067  1
  S  S64  1  0.60491500  0.21023600  0.08360500  1
  S  S65  1  0.42052233  0.86724567  0.66272967  1
  S  S66  1  0.78976400  0.39467900  0.08360500  1
  S  S67  1  0.93865433  0.87690267  0.25027167  1
  S  S68  1  0.78005667  0.53391233  0.82939633  1
  S  S69  1  0.13275433  0.57947767  0.16272967  1
  S  S70  1  0.89074733  0.71115967  0.49277667  1
  S  S71  1  0.93865433  0.06175167  0.75027167  1
  S  S72  1  0.08718900  0.88661000  0.49606300  1
  S  S73  1  0.89074733  0.17958767  0.99277667  1
  S  S74  1  0.99727067  0.72521933  0.85480733  1
  S  S75  1  0.94144733  0.33606267  0.68814067  1
  S  S76  1  0.94144733  0.60538467  0.18814067  1
  S  S77  1  0.78005667  0.24614433  0.32939633  1
  S  S78  1  0.13275433  0.55327667  0.66272967  1
  S  S79  1  0.27158167  0.72801233  0.91693833  1
  S  S80  1  0.78976400  0.39508500  0.58360500  1
  S  S81  1  0.06128200  0.39188600  0.02147400  1
  S  S82  1  0.15374567  0.77591933  0.15944333  1
  S  S83  1  0.99727067  0.27205133  0.35480733  1
  S  S84  1  0.15374567  0.37782633  0.65944333  1
  S  S85  1  0.95550700  0.44258600  0.32611000  1
  S  S86  1  0.95550700  0.51292100  0.82611000  1
  S  S87  1  0.06128200  0.66939600  0.52147400  1
  S  S88  1  0.27158167  0.54356933  0.41693833  1
  S  S89  1  0.08718900  0.20057900  0.99606300  1
  S  S90  1  0.45643067  0.72801233  0.41693833  1
  S  S91  1  0.60532100  0.21023600  0.58360500  1
  S  S92  1  0.44672333  0.86724567  0.16272967  1
  S  S93  1  0.79942100  0.91281100  0.49606300  1
  S  S94  1  0.55741400  0.04449300  0.82611000  1
  S  S95  1  0.60532100  0.39508500  0.08360500  1
  S  S96  1  0.75385567  0.21994333  0.82939633  1
  S  S97  1  0.55741400  0.51292100  0.32611000  1
  S  S98  1  0.66393733  0.05855267  0.18814067  1
  S  S99  1  0.60811400  0.66939600  0.02147400  1
  S  S100  1  0.60811400  0.93871800  0.52147400  1
  S  S101  1  0.44672333  0.57947767  0.66272967  1
  S  S102  1  0.79942100  0.88661000  0.99606300  1
  S  S103  1  0.93824833  0.06134567  0.25027167  1
  S  S104  1  0.45643067  0.72841833  0.91693833  1
  S  S105  1  0.72794867  0.72521933  0.35480733  1
  S  S106  1  0.82041233  0.10925267  0.49277667  1
  S  S107  1  0.66393733  0.60538467  0.68814067  1
  S  S108  1  0.82041233  0.71115967  0.99277667  1
  S  S109  1  0.62217367  0.77591933  0.65944333  1
  S  S110  1  0.62217367  0.84625433  0.15944333  1
  S  S111  1  0.72794867  0.00272933  0.85480733  1
  S  S112  1  0.93824833  0.87690267  0.75027167  1
  S  S113  1  0.75385567  0.53391233  0.32939633  1
