# generated using pymatgen
data_As5Pb3S10
_symmetry_space_group_name_H-M   'P 1'
_cell_length_a   8.74002400
_cell_length_b   8.17179400
_cell_length_c   26.46405561
_cell_angle_alpha   90.00000000
_cell_angle_beta   104.03040488
_cell_angle_gamma   90.00000000
_symmetry_Int_Tables_number   1
_chemical_formula_structural   As5Pb3S10
_chemical_formula_sum   'As20 Pb12 S40'
_cell_volume   1833.72002620
_cell_formula_units_Z   4
loop_
 _symmetry_equiv_pos_site_id
 _symmetry_equiv_pos_as_xyz
  1  'x, y, z'
loop_
 _atom_site_type_symbol
 _atom_site_label
 _atom_site_symmetry_multiplicity
 _atom_site_fract_x
 _atom_site_fract_y
 _atom_site_fract_z
 _atom_site_occupancy
  As  As0  1  0.28964600  0.66240900  0.95272600  1
  As  As1  1  0.71035400  0.33759100  0.04727400  1
  As  As2  1  0.28964600  0.83759100  0.45272600  1
  As  As3  1  0.14204100  0.19463600  0.56748700  1
  As  As4  1  0.25293400  0.84305000  0.64823900  1
  As  As5  1  0.38901300  0.00815800  0.04781400  1
  As  As6  1  0.38901300  0.49184200  0.54781400  1
  As  As7  1  0.61098700  0.50815800  0.45218600  1
  As  As8  1  0.30841600  0.35059700  0.83936300  1
  As  As9  1  0.30841600  0.14940300  0.33936300  1
  As  As10  1  0.74706600  0.15695000  0.35176100  1
  As  As11  1  0.14204100  0.30536400  0.06748700  1
  As  As12  1  0.85795900  0.80536400  0.43251300  1
  As  As13  1  0.25293400  0.65695000  0.14823900  1
  As  As14  1  0.85795900  0.69463600  0.93251300  1
  As  As15  1  0.61098700  0.99184200  0.95218600  1
  As  As16  1  0.71035400  0.16240900  0.54727400  1
  As  As17  1  0.69158400  0.85059700  0.66063700  1
  As  As18  1  0.69158400  0.64940300  0.16063700  1
  As  As19  1  0.74706600  0.34305000  0.85176100  1
  Pb  Pb20  1  0.98448100  0.27360700  0.19868200  1
  Pb  Pb21  1  0.47500000  0.23717900  0.70918800  1
  Pb  Pb22  1  0.90232500  0.58671500  0.57918000  1
  Pb  Pb23  1  0.09767500  0.08671500  0.92082000  1
  Pb  Pb24  1  0.52500000  0.73717900  0.79081200  1
  Pb  Pb25  1  0.52500000  0.76282100  0.29081200  1
  Pb  Pb26  1  0.90232500  0.91328500  0.07918000  1
  Pb  Pb27  1  0.47500000  0.26282100  0.20918800  1
  Pb  Pb28  1  0.01551900  0.72639300  0.80131800  1
  Pb  Pb29  1  0.01551900  0.77360700  0.30131800  1
  Pb  Pb30  1  0.98448100  0.22639300  0.69868200  1
  Pb  Pb31  1  0.09767500  0.41328500  0.42082000  1
  S  S32  1  0.48284600  0.68496900  0.67528700  1
  S  S33  1  0.05438200  0.98084600  0.41145500  1
  S  S34  1  0.73770200  0.50292200  0.23539300  1
  S  S35  1  0.82301200  0.17047800  0.99341400  1
  S  S36  1  0.25776800  0.98708100  0.72184800  1
  S  S37  1  0.17698800  0.67047800  0.50658600  1
  S  S38  1  0.70833700  0.34424500  0.61123500  1
  S  S39  1  0.63805800  0.97027200  0.39849500  1
  S  S40  1  0.40740800  0.31639100  0.48555900  1
  S  S41  1  0.10758500  0.17564200  0.81721600  1
  S  S42  1  0.16436100  0.37534500  0.63361700  1
  S  S43  1  0.17698800  0.82952200  0.00658600  1
  S  S44  1  0.48284600  0.81503100  0.17528700  1
  S  S45  1  0.73770200  0.99707800  0.73539300  1
  S  S46  1  0.89241500  0.67564200  0.68278400  1
  S  S47  1  0.51715400  0.18496900  0.82471300  1
  S  S48  1  0.05438200  0.51915400  0.91145500  1
  S  S49  1  0.59259200  0.81639100  0.01444100  1
  S  S50  1  0.10758500  0.32435800  0.31721600  1
  S  S51  1  0.94561800  0.01915400  0.58854500  1
  S  S52  1  0.89241500  0.82435800  0.18278400  1
  S  S53  1  0.74223200  0.48708100  0.77815200  1
  S  S54  1  0.59259200  0.68360900  0.51444100  1
  S  S55  1  0.70833700  0.15575500  0.11123500  1
  S  S56  1  0.63805800  0.52972800  0.89849500  1
  S  S57  1  0.26229800  0.00292200  0.26460700  1
  S  S58  1  0.29166300  0.65575500  0.38876500  1
  S  S59  1  0.36194200  0.47027200  0.10150500  1
  S  S60  1  0.16436100  0.12465500  0.13361700  1
  S  S61  1  0.82301200  0.32952200  0.49341400  1
  S  S62  1  0.26229800  0.49707800  0.76460700  1
  S  S63  1  0.83563900  0.62465500  0.36638300  1
  S  S64  1  0.83563900  0.87534500  0.86638300  1
  S  S65  1  0.29166300  0.84424500  0.88876500  1
  S  S66  1  0.36194200  0.02972800  0.60150500  1
  S  S67  1  0.74223200  0.01291900  0.27815200  1
  S  S68  1  0.51715400  0.31503100  0.32471300  1
  S  S69  1  0.94561800  0.48084600  0.08854500  1
  S  S70  1  0.40740800  0.18360900  0.98555900  1
  S  S71  1  0.25776800  0.51291900  0.22184800  1
