# generated using pymatgen
data_K2SiAs2
_symmetry_space_group_name_H-M   'P 1'
_cell_length_a   6.43864400
_cell_length_b   7.07408800
_cell_length_c   13.44171200
_cell_angle_alpha   90.00000000
_cell_angle_beta   90.00000000
_cell_angle_gamma   90.00000000
_symmetry_Int_Tables_number   1
_chemical_formula_structural   K2SiAs2
_chemical_formula_sum   'K8 Si4 As8'
_cell_volume   612.23683779
_cell_formula_units_Z   4
loop_
 _symmetry_equiv_pos_site_id
 _symmetry_equiv_pos_as_xyz
  1  'x, y, z'
loop_
 _atom_site_type_symbol
 _atom_site_label
 _atom_site_symmetry_multiplicity
 _atom_site_fract_x
 _atom_site_fract_y
 _atom_site_fract_z
 _atom_site_occupancy
  K  K0  1  0.00000000  0.16488900  0.14311700  1
  K  K1  1  0.50000000  0.83511100  0.14311700  1
  K  K2  1  0.00000000  0.66488900  0.35688300  1
  K  K3  1  0.50000000  0.33511100  0.35688300  1
  K  K4  1  0.50000000  0.66488900  0.64311700  1
  K  K5  1  0.00000000  0.33511100  0.64311700  1
  K  K6  1  0.50000000  0.16488900  0.85688300  1
  K  K7  1  0.00000000  0.83511100  0.85688300  1
  Si  Si8  1  0.75000000  0.50000000  0.00000000  1
  Si  Si9  1  0.25000000  0.50000000  0.00000000  1
  Si  Si10  1  0.25000000  0.00000000  0.50000000  1
  Si  Si11  1  0.75000000  0.00000000  0.50000000  1
  As  As12  1  0.00000000  0.16516300  0.39909500  1
  As  As13  1  0.50000000  0.83483700  0.39909500  1
  As  As14  1  0.00000000  0.66516300  0.10090500  1
  As  As15  1  0.50000000  0.33483700  0.10090500  1
  As  As16  1  0.50000000  0.66516300  0.89909500  1
  As  As17  1  0.00000000  0.33483700  0.89909500  1
  As  As18  1  0.50000000  0.16516300  0.60090500  1
  As  As19  1  0.00000000  0.83483700  0.60090500  1
