# generated using pymatgen
data_RbNa2P3(HO2)6
_symmetry_space_group_name_H-M   'P 1'
_cell_length_a   7.63659800
_cell_length_b   8.80598562
_cell_length_c   9.86827829
_cell_angle_alpha   65.99685007
_cell_angle_beta   84.58259156
_cell_angle_gamma   77.75640850
_symmetry_Int_Tables_number   1
_chemical_formula_structural   RbNa2P3(HO2)6
_chemical_formula_sum   'Rb2 Na4 P6 H12 O24'
_cell_volume   592.41844985
_cell_formula_units_Z   2
loop_
 _symmetry_equiv_pos_site_id
 _symmetry_equiv_pos_as_xyz
  1  'x, y, z'
loop_
 _atom_site_type_symbol
 _atom_site_label
 _atom_site_symmetry_multiplicity
 _atom_site_fract_x
 _atom_site_fract_y
 _atom_site_fract_z
 _atom_site_occupancy
  Rb  Rb0  1  0.75427100  0.85252800  0.61981800  1
  Rb  Rb1  1  0.24572900  0.14747200  0.38018200  1
  Na  Na2  1  0.47032200  0.22181800  0.71354400  1
  Na  Na3  1  0.52967800  0.77818200  0.28645600  1
  Na  Na4  1  0.85166100  0.52720000  0.14084200  1
  Na  Na5  1  0.14833900  0.47280000  0.85915800  1
  P  P6  1  0.92663600  0.13826600  0.75741500  1
  P  P7  1  0.07336400  0.86173400  0.24258500  1
  P  P8  1  0.25810200  0.61861300  0.11831200  1
  P  P9  1  0.74189800  0.38138700  0.88168800  1
  P  P10  1  0.75468700  0.12767800  0.20041400  1
  P  P11  1  0.24531300  0.87232200  0.79958600  1
  H  H12  1  0.71480900  0.90198600  0.97029000  1
  H  H13  1  0.28519100  0.09801400  0.02971000  1
  H  H14  1  0.56901600  0.79418800  0.99283600  1
  H  H15  1  0.43098400  0.20581200  0.00716400  1
  H  H16  1  0.48680500  0.39678500  0.38691200  1
  H  H17  1  0.51319500  0.60321500  0.61308800  1
  H  H18  1  0.65640300  0.25921600  0.40421100  1
  H  H19  1  0.34359700  0.74078400  0.59578900  1
  H  H20  1  0.81714400  0.44302500  0.46119300  1
  H  H21  1  0.18285600  0.55697500  0.53880700  1
  H  H22  1  0.88014000  0.61794200  0.40144700  1
  H  H23  1  0.11986000  0.38205800  0.59855300  1
  O  O24  1  0.23838900  0.93839600  0.21104500  1
  O  O25  1  0.76161100  0.06160400  0.78895500  1
  O  O26  1  0.01709600  0.76928000  0.40106000  1
  O  O27  1  0.98290400  0.23072000  0.59894000  1
  O  O28  1  0.91584900  0.26226300  0.84412600  1
  O  O29  1  0.08415100  0.73773700  0.15587400  1
  O  O30  1  0.90893200  0.00405400  0.14841400  1
  O  O31  1  0.09106800  0.99594600  0.85158600  1
  O  O32  1  0.66647200  0.25218500  0.03791500  1
  O  O33  1  0.33352800  0.74781500  0.96208500  1
  O  O34  1  0.18102300  0.48788900  0.09409200  1
  O  O35  1  0.81897700  0.51211100  0.90590800  1
  O  O36  1  0.40296700  0.56889300  0.22886000  1
  O  O37  1  0.59703300  0.43110700  0.77114000  1
  O  O38  1  0.83899600  0.22582700  0.26259200  1
  O  O39  1  0.16100400  0.77417300  0.73740800  1
  O  O40  1  0.38478800  0.96960000  0.71011700  1
  O  O41  1  0.61521200  0.03040000  0.28988300  1
  O  O42  1  0.66538600  0.80556400  0.04483500  1
  O  O43  1  0.33461400  0.19443600  0.95516500  1
  O  O44  1  0.44900500  0.71147200  0.53937900  1
  O  O45  1  0.55099500  0.28852800  0.46062100  1
  O  O46  1  0.79627000  0.55741400  0.38223400  1
  O  O47  1  0.20373000  0.44258600  0.61776600  1
