# generated using pymatgen
data_Na2BeSiO4
_symmetry_space_group_name_H-M   'P 1'
_cell_length_a   4.96259500
_cell_length_b   9.96591100
_cell_length_c   14.00428000
_cell_angle_alpha   90.00000000
_cell_angle_beta   90.00000000
_cell_angle_gamma   90.00000000
_symmetry_Int_Tables_number   1
_chemical_formula_structural   Na2BeSiO4
_chemical_formula_sum   'Na16 Be8 Si8 O32'
_cell_volume   692.60659641
_cell_formula_units_Z   8
loop_
 _symmetry_equiv_pos_site_id
 _symmetry_equiv_pos_as_xyz
  1  'x, y, z'
loop_
 _atom_site_type_symbol
 _atom_site_label
 _atom_site_symmetry_multiplicity
 _atom_site_fract_x
 _atom_site_fract_y
 _atom_site_fract_z
 _atom_site_occupancy
  Na  Na0  1  0.97153700  0.72783500  0.30005100  1
  Na  Na1  1  0.02846300  0.27216500  0.80005100  1
  Na  Na2  1  0.02846300  0.22783500  0.30005100  1
  Na  Na3  1  0.97153700  0.77216500  0.80005100  1
  Na  Na4  1  0.46836800  0.73251200  0.16893200  1
  Na  Na5  1  0.53163200  0.26748800  0.66893200  1
  Na  Na6  1  0.53163200  0.23251200  0.16893200  1
  Na  Na7  1  0.46836800  0.76748800  0.66893200  1
  Na  Na8  1  0.47792300  0.99699000  0.04221200  1
  Na  Na9  1  0.00787700  0.01074900  0.92551200  1
  Na  Na10  1  0.99212300  0.98925100  0.42551200  1
  Na  Na11  1  0.99212300  0.51074900  0.92551200  1
  Na  Na12  1  0.52207700  0.00301000  0.54221200  1
  Na  Na13  1  0.47792300  0.50301000  0.54221200  1
  Na  Na14  1  0.52207700  0.49699000  0.04221200  1
  Na  Na15  1  0.00787700  0.48925100  0.42551200  1
  Be  Be16  1  0.99297500  0.76822200  0.55027600  1
  Be  Be17  1  0.00702500  0.23177800  0.05027600  1
  Be  Be18  1  0.00702500  0.26822200  0.55027600  1
  Be  Be19  1  0.99297500  0.73177800  0.05027600  1
  Be  Be20  1  0.47357700  0.98629800  0.29455900  1
  Be  Be21  1  0.52642300  0.01370200  0.79455900  1
  Be  Be22  1  0.52642300  0.48629800  0.29455900  1
  Be  Be23  1  0.47357700  0.51370200  0.79455900  1
  Si  Si24  1  0.97431700  0.98320900  0.17427000  1
  Si  Si25  1  0.49091200  0.76611600  0.91999800  1
  Si  Si26  1  0.50908800  0.23388400  0.41999800  1
  Si  Si27  1  0.50908800  0.26611600  0.91999800  1
  Si  Si28  1  0.49091200  0.73388400  0.41999800  1
  Si  Si29  1  0.97431700  0.51679100  0.67427000  1
  Si  Si30  1  0.02568300  0.48320900  0.17427000  1
  Si  Si31  1  0.02568300  0.01679100  0.67427000  1
  O  O32  1  0.11976300  0.91384400  0.58784600  1
  O  O33  1  0.70341700  0.51112500  0.19589500  1
  O  O34  1  0.29658300  0.48887500  0.69589500  1
  O  O35  1  0.29658300  0.01112500  0.19589500  1
  O  O36  1  0.70341700  0.98887500  0.69589500  1
  O  O37  1  0.20200800  0.51316000  0.27200300  1
  O  O38  1  0.79799200  0.48684000  0.77200300  1
  O  O39  1  0.79799200  0.01316000  0.27200300  1
  O  O40  1  0.20200800  0.98684000  0.77200300  1
  O  O41  1  0.62048300  0.59295000  0.37907000  1
  O  O42  1  0.37951700  0.40705000  0.87907000  1
  O  O43  1  0.37951700  0.09295000  0.37907000  1
  O  O44  1  0.62048300  0.90705000  0.87907000  1
  O  O45  1  0.11976300  0.58615600  0.08784600  1
  O  O46  1  0.88023700  0.41384400  0.58784600  1
  O  O47  1  0.88023700  0.08615600  0.08784600  1
  O  O48  1  0.22686600  0.69267900  0.48538000  1
  O  O49  1  0.77313400  0.30732100  0.98538000  1
  O  O50  1  0.77313400  0.19267900  0.48538000  1
  O  O51  1  0.22686600  0.80732100  0.98538000  1
  O  O52  1  0.72429200  0.69182100  0.98493800  1
  O  O53  1  0.27570800  0.30817900  0.48493800  1
  O  O54  1  0.27570800  0.19182100  0.98493800  1
  O  O55  1  0.72429200  0.80817900  0.48493800  1
  O  O56  1  0.91454200  0.82614500  0.14289900  1
  O  O57  1  0.08545800  0.17385500  0.64289900  1
  O  O58  1  0.08545800  0.32614500  0.14289900  1
  O  O59  1  0.91454200  0.67385500  0.64289900  1
  O  O60  1  0.40275800  0.66913200  0.83016000  1
  O  O61  1  0.59724200  0.16913200  0.83016000  1
  O  O62  1  0.59724200  0.33086800  0.33016000  1
  O  O63  1  0.40275800  0.83086800  0.33016000  1
