# generated using pymatgen
data_Ta6Pb4O19
_symmetry_space_group_name_H-M   'P 1'
_cell_length_a   13.06326200
_cell_length_b   7.51245600
_cell_length_c   18.44780072
_cell_angle_alpha   90.00000000
_cell_angle_beta   90.46697951
_cell_angle_gamma   90.00000000
_symmetry_Int_Tables_number   1
_chemical_formula_structural   Ta6Pb4O19
_chemical_formula_sum   'Ta24 Pb16 O76'
_cell_volume   1810.35502754
_cell_formula_units_Z   4
loop_
 _symmetry_equiv_pos_site_id
 _symmetry_equiv_pos_as_xyz
  1  'x, y, z'
loop_
 _atom_site_type_symbol
 _atom_site_label
 _atom_site_symmetry_multiplicity
 _atom_site_fract_x
 _atom_site_fract_y
 _atom_site_fract_z
 _atom_site_occupancy
  Ta  Ta0  1  0.66711600  0.50000000  0.32844600  1
  Ta  Ta1  1  0.91644700  0.24974900  0.33131000  1
  Ta  Ta2  1  0.91644700  0.75025100  0.33131000  1
  Ta  Ta3  1  0.75000000  0.75000000  0.00000000  1
  Ta  Ta4  1  0.83514600  0.50000000  0.16437900  1
  Ta  Ta5  1  0.66485400  0.00000000  0.83562100  1
  Ta  Ta6  1  0.75000000  0.25000000  0.00000000  1
  Ta  Ta7  1  0.58355300  0.25025100  0.66869000  1
  Ta  Ta8  1  0.00000000  0.00000000  0.50000000  1
  Ta  Ta9  1  0.58355300  0.74974900  0.66869000  1
  Ta  Ta10  1  0.00000000  0.50000000  0.00000000  1
  Ta  Ta11  1  0.83288400  0.00000000  0.67155400  1
  Ta  Ta12  1  0.16711600  0.00000000  0.32844600  1
  Ta  Ta13  1  0.41644700  0.74974900  0.33131000  1
  Ta  Ta14  1  0.41644700  0.25025100  0.33131000  1
  Ta  Ta15  1  0.25000000  0.25000000  0.00000000  1
  Ta  Ta16  1  0.33514600  0.00000000  0.16437900  1
  Ta  Ta17  1  0.16485400  0.50000000  0.83562100  1
  Ta  Ta18  1  0.25000000  0.75000000  0.00000000  1
  Ta  Ta19  1  0.08355300  0.75025100  0.66869000  1
  Ta  Ta20  1  0.50000000  0.50000000  0.50000000  1
  Ta  Ta21  1  0.08355300  0.24974900  0.66869000  1
  Ta  Ta22  1  0.50000000  0.00000000  0.00000000  1
  Ta  Ta23  1  0.33288400  0.50000000  0.67155400  1
  Pb  Pb24  1  0.82640700  0.00000000  0.17108000  1
  Pb  Pb25  1  0.00000000  0.00000000  0.00000000  1
  Pb  Pb26  1  0.67359300  0.50000000  0.82892000  1
  Pb  Pb27  1  0.84241700  0.50000000  0.67611800  1
  Pb  Pb28  1  0.00000000  0.50000000  0.50000000  1
  Pb  Pb29  1  0.65758300  0.00000000  0.32388200  1
  Pb  Pb30  1  0.75000000  0.75000000  0.50000000  1
  Pb  Pb31  1  0.75000000  0.25000000  0.50000000  1
  Pb  Pb32  1  0.32640700  0.50000000  0.17108000  1
  Pb  Pb33  1  0.50000000  0.50000000  0.00000000  1
  Pb  Pb34  1  0.17359300  0.00000000  0.82892000  1
  Pb  Pb35  1  0.34241700  0.00000000  0.67611800  1
  Pb  Pb36  1  0.50000000  0.00000000  0.50000000  1
  Pb  Pb37  1  0.15758300  0.50000000  0.32388200  1
  Pb  Pb38  1  0.25000000  0.25000000  0.50000000  1
  Pb  Pb39  1  0.25000000  0.75000000  0.50000000  1
  O  O40  1  0.95494000  0.50000000  0.10259200  1
  O  O41  1  0.56266500  0.68996700  0.31609700  1
  O  O42  1  0.77200900  0.69263200  0.10434900  1
  O  O43  1  0.56266500  0.31003300  0.31609700  1
  O  O44  1  0.79645200  0.00000000  0.02350500  1
  O  O45  1  0.89693150  0.69452150  0.98124800  1
  O  O46  1  0.89143650  0.69756650  0.22773500  1
  O  O47  1  0.78724800  0.00000000  0.76858300  1
  O  O48  1  0.77200900  0.30736800  0.10434900  1
  O  O49  1  0.87307600  0.00000000  0.30846200  1
  O  O50  1  0.89693150  0.30547850  0.98124800  1
  O  O51  1  0.60306850  0.19452150  0.01875200  1
  O  O52  1  0.89143650  0.30243350  0.22773500  1
  O  O53  1  0.60856350  0.19756650  0.77226500  1
  O  O54  1  0.62692400  0.50000000  0.69153800  1
  O  O55  1  0.72808450  0.18897150  0.64478800  1
  O  O56  1  0.72799100  0.19263200  0.89565100  1
  O  O57  1  0.62728100  0.50000000  0.44003200  1
  O  O58  1  0.60856350  0.80243350  0.77226500  1
  O  O59  1  0.60306850  0.80547850  0.01875200  1
  O  O60  1  0.71275200  0.50000000  0.23141700  1
  O  O61  1  0.70354800  0.50000000  0.97649500  1
  O  O62  1  0.72808450  0.81102850  0.64478800  1
  O  O63  1  0.83490300  0.50000000  0.55998200  1
  O  O64  1  0.93733500  0.18996700  0.68390300  1
  O  O65  1  0.72799100  0.80736800  0.89565100  1
  O  O66  1  0.93649650  0.19064650  0.43755000  1
  O  O67  1  0.96091000  0.50000000  0.35078300  1
  O  O68  1  0.56350350  0.69064650  0.56245000  1
  O  O69  1  0.93649650  0.80935350  0.43755000  1
  O  O70  1  0.93733500  0.81003300  0.68390300  1
  O  O71  1  0.54506000  0.00000000  0.89740800  1
  O  O72  1  0.53909000  0.00000000  0.64921700  1
  O  O73  1  0.56350350  0.30935350  0.56245000  1
  O  O74  1  0.66509700  0.00000000  0.44001800  1
  O  O75  1  0.77191550  0.68897150  0.35521200  1
  O  O76  1  0.77191550  0.31102850  0.35521200  1
  O  O77  1  0.87271900  0.00000000  0.55996800  1
  O  O78  1  0.45494000  0.00000000  0.10259200  1
  O  O79  1  0.06266500  0.18996700  0.31609700  1
  O  O80  1  0.27200900  0.19263200  0.10434900  1
  O  O81  1  0.06266500  0.81003300  0.31609700  1
  O  O82  1  0.29645200  0.50000000  0.02350500  1
  O  O83  1  0.39693150  0.19452150  0.98124800  1
  O  O84  1  0.39143650  0.19756650  0.22773500  1
  O  O85  1  0.28724800  0.50000000  0.76858300  1
  O  O86  1  0.27200900  0.80736800  0.10434900  1
  O  O87  1  0.37307600  0.50000000  0.30846200  1
  O  O88  1  0.39693150  0.80547850  0.98124800  1
  O  O89  1  0.10306850  0.69452150  0.01875200  1
  O  O90  1  0.39143650  0.80243350  0.22773500  1
  O  O91  1  0.10856350  0.69756650  0.77226500  1
  O  O92  1  0.12692400  0.00000000  0.69153800  1
  O  O93  1  0.22808450  0.68897150  0.64478800  1
  O  O94  1  0.22799100  0.69263200  0.89565100  1
  O  O95  1  0.12728100  0.00000000  0.44003200  1
  O  O96  1  0.10856350  0.30243350  0.77226500  1
  O  O97  1  0.10306850  0.30547850  0.01875200  1
  O  O98  1  0.21275200  0.00000000  0.23141700  1
  O  O99  1  0.20354800  0.00000000  0.97649500  1
  O  O100  1  0.22808450  0.31102850  0.64478800  1
  O  O101  1  0.33490300  0.00000000  0.55998200  1
  O  O102  1  0.43733500  0.68996700  0.68390300  1
  O  O103  1  0.22799100  0.30736800  0.89565100  1
  O  O104  1  0.43649650  0.69064650  0.43755000  1
  O  O105  1  0.46091000  0.00000000  0.35078300  1
  O  O106  1  0.06350350  0.19064650  0.56245000  1
  O  O107  1  0.43649650  0.30935350  0.43755000  1
  O  O108  1  0.43733500  0.31003300  0.68390300  1
  O  O109  1  0.04506000  0.50000000  0.89740800  1
  O  O110  1  0.03909000  0.50000000  0.64921700  1
  O  O111  1  0.06350350  0.80935350  0.56245000  1
  O  O112  1  0.16509700  0.50000000  0.44001800  1
  O  O113  1  0.27191550  0.18897150  0.35521200  1
  O  O114  1  0.27191550  0.81102850  0.35521200  1
  O  O115  1  0.37271900  0.50000000  0.55996800  1
