# generated using pymatgen
data_Tb2YbS4
_symmetry_space_group_name_H-M   'P 1'
_cell_length_a   8.36356000
_cell_length_b   8.36356000
_cell_length_c   8.34806800
_cell_angle_alpha   90.00000000
_cell_angle_beta   90.00000000
_cell_angle_gamma   90.00000000
_symmetry_Int_Tables_number   1
_chemical_formula_structural   Tb2YbS4
_chemical_formula_sum   'Tb8 Yb4 S16'
_cell_volume   583.94014281
_cell_formula_units_Z   4
loop_
 _symmetry_equiv_pos_site_id
 _symmetry_equiv_pos_as_xyz
  1  'x, y, z'
loop_
 _atom_site_type_symbol
 _atom_site_label
 _atom_site_symmetry_multiplicity
 _atom_site_fract_x
 _atom_site_fract_y
 _atom_site_fract_z
 _atom_site_occupancy
  Tb  Tb0  1  0.75000000  0.62776100  0.12500000  1
  Tb  Tb1  1  0.87223900  0.25000000  0.37500000  1
  Tb  Tb2  1  0.75000000  0.87223900  0.62500000  1
  Tb  Tb3  1  0.62776100  0.25000000  0.87500000  1
  Tb  Tb4  1  0.25000000  0.12776100  0.62500000  1
  Tb  Tb5  1  0.37223900  0.75000000  0.87500000  1
  Tb  Tb6  1  0.25000000  0.37223900  0.12500000  1
  Tb  Tb7  1  0.12776100  0.75000000  0.37500000  1
  Yb  Yb8  1  0.50000000  0.00000000  0.25000000  1
  Yb  Yb9  1  0.50000000  0.50000000  0.50000000  1
  Yb  Yb10  1  0.00000000  0.50000000  0.75000000  1
  Yb  Yb11  1  0.00000000  0.00000000  0.00000000  1
  S  S12  1  0.67747050  0.92677150  0.94380450  1
  S  S13  1  0.92677150  0.17747050  0.69380450  1
  S  S14  1  0.32252950  0.42677150  0.80619550  1
  S  S15  1  0.57322850  0.32252950  0.19380450  1
  S  S16  1  0.92677150  0.32252950  0.05619550  1
  S  S17  1  0.82252950  0.57322850  0.44380450  1
  S  S18  1  0.57322850  0.17747050  0.55619550  1
  S  S19  1  0.17747050  0.07322850  0.30619550  1
  S  S20  1  0.17747050  0.42677150  0.44380450  1
  S  S21  1  0.42677150  0.67747050  0.19380450  1
  S  S22  1  0.82252950  0.92677150  0.30619550  1
  S  S23  1  0.07322850  0.82252950  0.69380450  1
  S  S24  1  0.42677150  0.82252950  0.55619550  1
  S  S25  1  0.32252950  0.07322850  0.94380450  1
  S  S26  1  0.07322850  0.67747050  0.05619550  1
  S  S27  1  0.67747050  0.57322850  0.80619550  1
