# generated using pymatgen
data_NaZn(HO)3
_symmetry_space_group_name_H-M   'P 1'
_cell_length_a   10.94096200
_cell_length_b   10.94096200
_cell_length_c   5.42079900
_cell_angle_alpha   90.00000000
_cell_angle_beta   90.00000000
_cell_angle_gamma   90.00000000
_symmetry_Int_Tables_number   1
_chemical_formula_structural   NaZn(HO)3
_chemical_formula_sum   'Na8 Zn8 H24 O24'
_cell_volume   648.89484423
_cell_formula_units_Z   8
loop_
 _symmetry_equiv_pos_site_id
 _symmetry_equiv_pos_as_xyz
  1  'x, y, z'
loop_
 _atom_site_type_symbol
 _atom_site_label
 _atom_site_symmetry_multiplicity
 _atom_site_fract_x
 _atom_site_fract_y
 _atom_site_fract_z
 _atom_site_occupancy
  Na  Na0  1  0.09145600  0.12599600  0.46506800  1
  Na  Na1  1  0.40854400  0.62599600  0.46506800  1
  Na  Na2  1  0.12599600  0.90854400  0.96506800  1
  Na  Na3  1  0.62599600  0.59145600  0.96506800  1
  Na  Na4  1  0.90854400  0.87400400  0.46506800  1
  Na  Na5  1  0.59145600  0.37400400  0.46506800  1
  Na  Na6  1  0.87400400  0.09145600  0.96506800  1
  Na  Na7  1  0.37400400  0.40854400  0.96506800  1
  Zn  Zn8  1  0.19651200  0.44577600  0.48275300  1
  Zn  Zn9  1  0.30348800  0.94577600  0.48275300  1
  Zn  Zn10  1  0.44577600  0.80348800  0.98275300  1
  Zn  Zn11  1  0.94577600  0.69651200  0.98275300  1
  Zn  Zn12  1  0.80348800  0.55422400  0.48275300  1
  Zn  Zn13  1  0.69651200  0.05422400  0.48275300  1
  Zn  Zn14  1  0.55422400  0.19651200  0.98275300  1
  Zn  Zn15  1  0.05422400  0.30348800  0.98275300  1
  H  H16  1  0.51171100  0.86659900  0.40286000  1
  H  H17  1  0.98828900  0.36659900  0.40286000  1
  H  H18  1  0.86659900  0.48828900  0.90286000  1
  H  H19  1  0.36659900  0.01171100  0.90286000  1
  H  H20  1  0.48828900  0.13340100  0.40286000  1
  H  H21  1  0.01171100  0.63340100  0.40286000  1
  H  H22  1  0.13340100  0.51171100  0.90286000  1
  H  H23  1  0.63340100  0.98828900  0.90286000  1
  H  H24  1  0.36546300  0.31052200  0.43938600  1
  H  H25  1  0.13453700  0.81052200  0.43938600  1
  H  H26  1  0.31052200  0.63453700  0.93938600  1
  H  H27  1  0.81052200  0.86546300  0.93938600  1
  H  H28  1  0.63453700  0.68947800  0.43938600  1
  H  H29  1  0.86546300  0.18947800  0.43938600  1
  H  H30  1  0.68947800  0.36546300  0.93938600  1
  H  H31  1  0.18947800  0.13453700  0.93938600  1
  H  H32  1  0.17651300  0.64060900  0.24652900  1
  H  H33  1  0.32348700  0.14060900  0.24652900  1
  H  H34  1  0.64060900  0.82348700  0.74652900  1
  H  H35  1  0.14060900  0.67651300  0.74652900  1
  H  H36  1  0.82348700  0.35939100  0.24652900  1
  H  H37  1  0.67651300  0.85939100  0.24652900  1
  H  H38  1  0.35939100  0.17651300  0.74652900  1
  H  H39  1  0.85939100  0.32348700  0.74652900  1
  O  O40  1  0.43051200  0.83672700  0.34880200  1
  O  O41  1  0.06948800  0.33672700  0.34880200  1
  O  O42  1  0.83672700  0.56948800  0.84880200  1
  O  O43  1  0.33672700  0.93051200  0.84880200  1
  O  O44  1  0.56948800  0.16327300  0.34880200  1
  O  O45  1  0.93051200  0.66327300  0.34880200  1
  O  O46  1  0.16327300  0.43051200  0.84880200  1
  O  O47  1  0.66327300  0.06948800  0.84880200  1
  O  O48  1  0.36987400  0.40017400  0.42824500  1
  O  O49  1  0.13012600  0.90017400  0.42824500  1
  O  O50  1  0.40017400  0.63012600  0.92824500  1
  O  O51  1  0.90017400  0.86987400  0.92824500  1
  O  O52  1  0.63012600  0.59982600  0.42824500  1
  O  O53  1  0.86987400  0.09982600  0.42824500  1
  O  O54  1  0.59982600  0.36987400  0.92824500  1
  O  O55  1  0.09982600  0.13012600  0.92824500  1
  O  O56  1  0.18678000  0.62352000  0.42435600  1
  O  O57  1  0.31322000  0.12352000  0.42435600  1
  O  O58  1  0.62352000  0.81322000  0.92435600  1
  O  O59  1  0.12352000  0.68678000  0.92435600  1
  O  O60  1  0.81322000  0.37648000  0.42435600  1
  O  O61  1  0.68678000  0.87648000  0.42435600  1
  O  O62  1  0.37648000  0.18678000  0.92435600  1
  O  O63  1  0.87648000  0.31322000  0.92435600  1
