# generated using pymatgen
data_BaNd2(MoO4)4
_symmetry_space_group_name_H-M   'P 1'
_cell_length_a   5.44103800
_cell_length_b   12.96724600
_cell_length_c   19.72078796
_cell_angle_alpha   90.00000000
_cell_angle_beta   91.32234771
_cell_angle_gamma   90.00000000
_symmetry_Int_Tables_number   1
_chemical_formula_structural   BaNd2(MoO4)4
_chemical_formula_sum   'Ba4 Nd8 Mo16 O64'
_cell_volume   1391.03512816
_cell_formula_units_Z   4
loop_
 _symmetry_equiv_pos_site_id
 _symmetry_equiv_pos_as_xyz
  1  'x, y, z'
loop_
 _atom_site_type_symbol
 _atom_site_label
 _atom_site_symmetry_multiplicity
 _atom_site_fract_x
 _atom_site_fract_y
 _atom_site_fract_z
 _atom_site_occupancy
  Ba  Ba0  1  0.00000000  0.96809100  0.75000000  1
  Ba  Ba1  1  0.50000000  0.53190900  0.25000000  1
  Ba  Ba2  1  0.50000000  0.46809100  0.75000000  1
  Ba  Ba3  1  0.00000000  0.03190900  0.25000000  1
  Nd  Nd4  1  0.49778750  0.64798050  0.03355900  1
  Nd  Nd5  1  0.99778750  0.85201950  0.53355900  1
  Nd  Nd6  1  0.50221250  0.64798050  0.46644100  1
  Nd  Nd7  1  0.00221250  0.85201950  0.96644100  1
  Nd  Nd8  1  0.99778750  0.14798050  0.03355900  1
  Nd  Nd9  1  0.49778750  0.35201950  0.53355900  1
  Nd  Nd10  1  0.00221250  0.14798050  0.46644100  1
  Nd  Nd11  1  0.50221250  0.35201950  0.96644100  1
  Mo  Mo12  1  0.00933300  0.55758000  0.59195100  1
  Mo  Mo13  1  0.50424800  0.76032100  0.84888200  1
  Mo  Mo14  1  0.50933300  0.94242000  0.09195100  1
  Mo  Mo15  1  0.99575200  0.73967900  0.15111800  1
  Mo  Mo16  1  0.99066700  0.55758000  0.90804900  1
  Mo  Mo17  1  0.49066700  0.94242000  0.40804900  1
  Mo  Mo18  1  0.49575200  0.76032100  0.65111800  1
  Mo  Mo19  1  0.00424800  0.73967900  0.34888200  1
  Mo  Mo20  1  0.50933300  0.05758000  0.59195100  1
  Mo  Mo21  1  0.00424800  0.26032100  0.84888200  1
  Mo  Mo22  1  0.00933300  0.44242000  0.09195100  1
  Mo  Mo23  1  0.49575200  0.23967900  0.15111800  1
  Mo  Mo24  1  0.49066700  0.05758000  0.90804900  1
  Mo  Mo25  1  0.99066700  0.44242000  0.40804900  1
  Mo  Mo26  1  0.99575200  0.26032100  0.65111800  1
  Mo  Mo27  1  0.50424800  0.23967900  0.34888200  1
  O  O28  1  0.85315550  0.66942450  0.95284000  1
  O  O29  1  0.65624100  0.74256100  0.56886100  1
  O  O30  1  0.12264250  0.86022850  0.32432500  1
  O  O31  1  0.38170000  0.91805900  0.17047300  1
  O  O32  1  0.75130900  0.98343800  0.46369200  1
  O  O33  1  0.26977950  0.95555850  0.89581300  1
  O  O34  1  0.23022050  0.54444150  0.10418700  1
  O  O35  1  0.37735750  0.63977150  0.67567500  1
  O  O36  1  0.35315550  0.83057550  0.45284000  1
  O  O37  1  0.70964600  0.80496400  0.71235900  1
  O  O38  1  0.20964600  0.69503600  0.21235900  1
  O  O39  1  0.11830000  0.58194100  0.82952700  1
  O  O40  1  0.74869100  0.51656200  0.53630800  1
  O  O41  1  0.15624100  0.75743900  0.06886100  1
  O  O42  1  0.84375900  0.75743900  0.43113900  1
  O  O43  1  0.74219500  0.64856800  0.13675500  1
  O  O44  1  0.64684450  0.83057550  0.04716000  1
  O  O45  1  0.61830000  0.91805900  0.32952700  1
  O  O46  1  0.76977950  0.54444150  0.39581300  1
  O  O47  1  0.62264250  0.63977150  0.82432500  1
  O  O48  1  0.24869100  0.98343800  0.03630800  1
  O  O49  1  0.88170000  0.58194100  0.67047300  1
  O  O50  1  0.25130900  0.51656200  0.96369200  1
  O  O51  1  0.29035400  0.80496400  0.78764100  1
  O  O52  1  0.34375900  0.74256100  0.93113900  1
  O  O53  1  0.79035400  0.69503600  0.28764100  1
  O  O54  1  0.14684450  0.66942450  0.54716000  1
  O  O55  1  0.75780500  0.85143200  0.86324500  1
  O  O56  1  0.24219500  0.85143200  0.63675500  1
  O  O57  1  0.73022050  0.95555850  0.60418700  1
  O  O58  1  0.25780500  0.64856800  0.36324500  1
  O  O59  1  0.87735750  0.86022850  0.17567500  1
  O  O60  1  0.35315550  0.16942450  0.95284000  1
  O  O61  1  0.15624100  0.24256100  0.56886100  1
  O  O62  1  0.62264250  0.36022850  0.32432500  1
  O  O63  1  0.88170000  0.41805900  0.17047300  1
  O  O64  1  0.25130900  0.48343800  0.46369200  1
  O  O65  1  0.76977950  0.45555850  0.89581300  1
  O  O66  1  0.73022050  0.04444150  0.10418700  1
  O  O67  1  0.87735750  0.13977150  0.67567500  1
  O  O68  1  0.85315550  0.33057550  0.45284000  1
  O  O69  1  0.20964600  0.30496400  0.71235900  1
  O  O70  1  0.70964600  0.19503600  0.21235900  1
  O  O71  1  0.61830000  0.08194100  0.82952700  1
  O  O72  1  0.24869100  0.01656200  0.53630800  1
  O  O73  1  0.65624100  0.25743900  0.06886100  1
  O  O74  1  0.34375900  0.25743900  0.43113900  1
  O  O75  1  0.24219500  0.14856800  0.13675500  1
  O  O76  1  0.14684450  0.33057550  0.04716000  1
  O  O77  1  0.11830000  0.41805900  0.32952700  1
  O  O78  1  0.26977950  0.04444150  0.39581300  1
  O  O79  1  0.12264250  0.13977150  0.82432500  1
  O  O80  1  0.74869100  0.48343800  0.03630800  1
  O  O81  1  0.38170000  0.08194100  0.67047300  1
  O  O82  1  0.75130900  0.01656200  0.96369200  1
  O  O83  1  0.79035400  0.30496400  0.78764100  1
  O  O84  1  0.84375900  0.24256100  0.93113900  1
  O  O85  1  0.29035400  0.19503600  0.28764100  1
  O  O86  1  0.64684450  0.16942450  0.54716000  1
  O  O87  1  0.25780500  0.35143200  0.86324500  1
  O  O88  1  0.74219500  0.35143200  0.63675500  1
  O  O89  1  0.23022050  0.45555850  0.60418700  1
  O  O90  1  0.75780500  0.14856800  0.36324500  1
  O  O91  1  0.37735750  0.36022850  0.17567500  1
