# generated using pymatgen
data_GdTi2CdO6F
_symmetry_space_group_name_H-M   'P 1'
_cell_length_a   7.13523000
_cell_length_b   7.40155400
_cell_length_c   10.20069400
_cell_angle_alpha   90.00000000
_cell_angle_beta   90.00000000
_cell_angle_gamma   90.00000000
_symmetry_Int_Tables_number   1
_chemical_formula_structural   GdTi2CdO6F
_chemical_formula_sum   'Gd4 Ti8 Cd4 O24 F4'
_cell_volume   538.71691089
_cell_formula_units_Z   4
loop_
 _symmetry_equiv_pos_site_id
 _symmetry_equiv_pos_as_xyz
  1  'x, y, z'
loop_
 _atom_site_type_symbol
 _atom_site_label
 _atom_site_symmetry_multiplicity
 _atom_site_fract_x
 _atom_site_fract_y
 _atom_site_fract_z
 _atom_site_occupancy
  Gd  Gd0  1  0.00000000  0.00000000  0.00000000  1
  Gd  Gd1  1  0.50000000  0.00000000  0.50000000  1
  Gd  Gd2  1  0.50000000  0.50000000  0.50000000  1
  Gd  Gd3  1  0.00000000  0.50000000  0.00000000  1
  Ti  Ti4  1  0.00000000  0.00000000  0.50000000  1
  Ti  Ti5  1  0.50000000  0.00000000  0.00000000  1
  Ti  Ti6  1  0.75000000  0.75000000  0.25000000  1
  Ti  Ti7  1  0.25000000  0.75000000  0.25000000  1
  Ti  Ti8  1  0.50000000  0.50000000  0.00000000  1
  Ti  Ti9  1  0.00000000  0.50000000  0.50000000  1
  Ti  Ti10  1  0.25000000  0.25000000  0.75000000  1
  Ti  Ti11  1  0.75000000  0.25000000  0.75000000  1
  Cd  Cd12  1  0.25000000  0.25000000  0.25000000  1
  Cd  Cd13  1  0.75000000  0.25000000  0.25000000  1
  Cd  Cd14  1  0.75000000  0.75000000  0.75000000  1
  Cd  Cd15  1  0.25000000  0.75000000  0.75000000  1
  O  O16  1  0.70786650  0.05087750  0.87703150  1
  O  O17  1  0.50000000  0.25000000  0.66611800  1
  O  O18  1  0.20786650  0.94912250  0.37703150  1
  O  O19  1  0.29213350  0.05087750  0.87703150  1
  O  O20  1  0.00000000  0.75000000  0.57646800  1
  O  O21  1  0.79213350  0.94912250  0.37703150  1
  O  O22  1  0.00000000  0.25000000  0.42353200  1
  O  O23  1  0.20786650  0.05087750  0.62296850  1
  O  O24  1  0.70786650  0.94912250  0.12296850  1
  O  O25  1  0.79213350  0.05087750  0.62296850  1
  O  O26  1  0.29213350  0.94912250  0.12296850  1
  O  O27  1  0.50000000  0.75000000  0.33388200  1
  O  O28  1  0.20786650  0.55087750  0.37703150  1
  O  O29  1  0.00000000  0.75000000  0.16611800  1
  O  O30  1  0.70786650  0.44912250  0.87703150  1
  O  O31  1  0.79213350  0.55087750  0.37703150  1
  O  O32  1  0.50000000  0.25000000  0.07646800  1
  O  O33  1  0.29213350  0.44912250  0.87703150  1
  O  O34  1  0.50000000  0.75000000  0.92353200  1
  O  O35  1  0.70786650  0.55087750  0.12296850  1
  O  O36  1  0.20786650  0.44912250  0.62296850  1
  O  O37  1  0.29213350  0.55087750  0.12296850  1
  O  O38  1  0.79213350  0.44912250  0.62296850  1
  O  O39  1  0.00000000  0.25000000  0.83388200  1
  F  F40  1  0.50000000  0.75000000  0.62265100  1
  F  F41  1  0.50000000  0.25000000  0.37734900  1
  F  F42  1  0.00000000  0.25000000  0.12265100  1
  F  F43  1  0.00000000  0.75000000  0.87734900  1
