# generated using pymatgen
data_KZn4(BO3)3
_symmetry_space_group_name_H-M   'P 1'
_cell_length_a   7.05019700
_cell_length_b   5.05523900
_cell_length_c   12.77338581
_cell_angle_alpha   90.00000000
_cell_angle_beta   94.02036338
_cell_angle_gamma   90.00000000
_symmetry_Int_Tables_number   1
_chemical_formula_structural   KZn4(BO3)3
_chemical_formula_sum   'K2 Zn8 B6 O18'
_cell_volume   454.12869456
_cell_formula_units_Z   2
loop_
 _symmetry_equiv_pos_site_id
 _symmetry_equiv_pos_as_xyz
  1  'x, y, z'
loop_
 _atom_site_type_symbol
 _atom_site_label
 _atom_site_symmetry_multiplicity
 _atom_site_fract_x
 _atom_site_fract_y
 _atom_site_fract_z
 _atom_site_occupancy
  K  K0  1  0.00000000  0.19056800  0.25000000  1
  K  K1  1  0.00000000  0.80943200  0.75000000  1
  Zn  Zn2  1  0.51116000  0.14880100  0.37668400  1
  Zn  Zn3  1  0.48884000  0.14880100  0.12331600  1
  Zn  Zn4  1  0.48884000  0.85119900  0.62331600  1
  Zn  Zn5  1  0.51116000  0.85119900  0.87668400  1
  Zn  Zn6  1  0.79072600  0.66204300  0.44145800  1
  Zn  Zn7  1  0.20927400  0.66204300  0.05854200  1
  Zn  Zn8  1  0.20927400  0.33795700  0.55854200  1
  Zn  Zn9  1  0.79072600  0.33795700  0.94145800  1
  B  B10  1  0.81449600  0.14714800  0.54873700  1
  B  B11  1  0.18550400  0.14714800  0.95126300  1
  B  B12  1  0.18550400  0.85285200  0.45126300  1
  B  B13  1  0.81449600  0.85285200  0.04873700  1
  B  B14  1  0.50000000  0.65295900  0.25000000  1
  B  B15  1  0.50000000  0.34704100  0.75000000  1
  O  O16  1  0.73993200  0.89182800  0.56674100  1
  O  O17  1  0.26006800  0.89182800  0.93325900  1
  O  O18  1  0.03257400  0.76240200  0.39183100  1
  O  O19  1  0.96742600  0.76240200  0.10816900  1
  O  O20  1  0.59110400  0.20989700  0.83262000  1
  O  O21  1  0.40889600  0.20989700  0.66738000  1
  O  O22  1  0.40889600  0.79010300  0.16738000  1
  O  O23  1  0.59110400  0.79010300  0.33262000  1
  O  O24  1  0.50000000  0.62236300  0.75000000  1
  O  O25  1  0.50000000  0.37763700  0.25000000  1
  O  O26  1  0.72493000  0.70654800  0.96652600  1
  O  O27  1  0.27507000  0.70654800  0.53347400  1
  O  O28  1  0.27507000  0.29345200  0.03347400  1
  O  O29  1  0.72493000  0.29345200  0.46652600  1
  O  O30  1  0.73993200  0.10817200  0.06674100  1
  O  O31  1  0.26006800  0.10817200  0.43325900  1
  O  O32  1  0.03257400  0.23759800  0.89183100  1
  O  O33  1  0.96742600  0.23759800  0.60816900  1
