# generated using pymatgen
data_U(HO2)2
_symmetry_space_group_name_H-M   'P 1'
_cell_length_a   4.14194800
_cell_length_b   10.40677200
_cell_length_c   7.17559200
_cell_angle_alpha   90.00000000
_cell_angle_beta   90.00000000
_cell_angle_gamma   90.00000000
_symmetry_Int_Tables_number   1
_chemical_formula_structural   U(HO2)2
_chemical_formula_sum   'U4 H8 O16'
_cell_volume   309.29893104
_cell_formula_units_Z   4
loop_
 _symmetry_equiv_pos_site_id
 _symmetry_equiv_pos_as_xyz
  1  'x, y, z'
loop_
 _atom_site_type_symbol
 _atom_site_label
 _atom_site_symmetry_multiplicity
 _atom_site_fract_x
 _atom_site_fract_y
 _atom_site_fract_z
 _atom_site_occupancy
  U  U0  1  0.50000000  0.25690200  0.50220200  1
  U  U1  1  0.00000000  0.24309800  0.00220200  1
  U  U2  1  0.00000000  0.75690200  0.50220200  1
  U  U3  1  0.50000000  0.74309800  0.00220200  1
  H  H4  1  0.00000000  0.42721800  0.36684600  1
  H  H5  1  0.50000000  0.07278200  0.86684600  1
  H  H6  1  0.00000000  0.08896300  0.63756400  1
  H  H7  1  0.50000000  0.41103700  0.13756400  1
  H  H8  1  0.50000000  0.92721800  0.36684600  1
  H  H9  1  0.00000000  0.57278200  0.86684600  1
  H  H10  1  0.50000000  0.58896300  0.63756400  1
  H  H11  1  0.00000000  0.91103700  0.13756400  1
  O  O12  1  0.50000000  0.41647700  0.60409300  1
  O  O13  1  0.50000000  0.09711400  0.39887700  1
  O  O14  1  0.00000000  0.08352300  0.10409300  1
  O  O15  1  0.00000000  0.40288600  0.89887700  1
  O  O16  1  0.00000000  0.18435200  0.64766600  1
  O  O17  1  0.00000000  0.33149800  0.36098300  1
  O  O18  1  0.50000000  0.31564800  0.14766600  1
  O  O19  1  0.50000000  0.16850200  0.86098300  1
  O  O20  1  0.00000000  0.91647700  0.60409300  1
  O  O21  1  0.00000000  0.59711400  0.39887700  1
  O  O22  1  0.50000000  0.58352300  0.10409300  1
  O  O23  1  0.50000000  0.90288600  0.89887700  1
  O  O24  1  0.50000000  0.68435200  0.64766600  1
  O  O25  1  0.50000000  0.83149800  0.36098300  1
  O  O26  1  0.00000000  0.81564800  0.14766600  1
  O  O27  1  0.00000000  0.66850200  0.86098300  1
