# generated using pymatgen
data_Bi9AuBr9
_symmetry_space_group_name_H-M   'P 1'
_cell_length_a   10.87644900
_cell_length_b   15.59380700
_cell_length_c   15.08766167
_cell_angle_alpha   90.00000000
_cell_angle_beta   93.00815614
_cell_angle_gamma   90.00000000
_symmetry_Int_Tables_number   1
_chemical_formula_structural   Bi9AuBr9
_chemical_formula_sum   'Bi36 Au4 Br36'
_cell_volume   2555.42054032
_cell_formula_units_Z   4
loop_
 _symmetry_equiv_pos_site_id
 _symmetry_equiv_pos_as_xyz
  1  'x, y, z'
loop_
 _atom_site_type_symbol
 _atom_site_label
 _atom_site_symmetry_multiplicity
 _atom_site_fract_x
 _atom_site_fract_y
 _atom_site_fract_z
 _atom_site_occupancy
  Bi  Bi0  1  0.58540100  0.68502400  0.06482100  1
  Bi  Bi1  1  0.22738100  0.45078600  0.02664600  1
  Bi  Bi2  1  0.22431000  0.00559600  0.22432900  1
  Bi  Bi3  1  0.55277200  0.86393600  0.35417200  1
  Bi  Bi4  1  0.22431000  0.49440400  0.72432900  1
  Bi  Bi5  1  0.94690700  0.14329900  0.81206800  1
  Bi  Bi6  1  0.69009900  0.14784500  0.52395300  1
  Bi  Bi7  1  0.61876300  0.07071500  0.32904800  1
  Bi  Bi8  1  0.03253400  0.35812100  0.69253400  1
  Bi  Bi9  1  0.77261900  0.95078600  0.47335400  1
  Bi  Bi10  1  0.05309300  0.64329900  0.68793200  1
  Bi  Bi11  1  0.30990100  0.85215500  0.47604700  1
  Bi  Bi12  1  0.61876300  0.42928500  0.82904800  1
  Bi  Bi13  1  0.44722800  0.13606400  0.64582800  1
  Bi  Bi14  1  0.38123700  0.92928500  0.67095200  1
  Bi  Bi15  1  0.03253400  0.14187900  0.19253400  1
  Bi  Bi16  1  0.69009900  0.35215500  0.02395300  1
  Bi  Bi17  1  0.41459900  0.18502400  0.43517900  1
  Bi  Bi18  1  0.22738100  0.04921400  0.52664600  1
  Bi  Bi19  1  0.96746600  0.85812100  0.80746600  1
  Bi  Bi20  1  0.77569000  0.50559600  0.27567100  1
  Bi  Bi21  1  0.05309300  0.85670100  0.18793200  1
  Bi  Bi22  1  0.33147700  0.01318700  0.04423600  1
  Bi  Bi23  1  0.96746600  0.64187900  0.30746600  1
  Bi  Bi24  1  0.38123700  0.57071500  0.17095200  1
  Bi  Bi25  1  0.77569000  0.99440400  0.77567100  1
  Bi  Bi26  1  0.77261900  0.54921400  0.97335400  1
  Bi  Bi27  1  0.94690700  0.35670100  0.31206800  1
  Bi  Bi28  1  0.41459900  0.31497600  0.93517900  1
  Bi  Bi29  1  0.33147700  0.48681300  0.54423600  1
  Bi  Bi30  1  0.66852300  0.98681300  0.95576400  1
  Bi  Bi31  1  0.30990100  0.64784500  0.97604700  1
  Bi  Bi32  1  0.44722800  0.36393600  0.14582800  1
  Bi  Bi33  1  0.66852300  0.51318700  0.45576400  1
  Bi  Bi34  1  0.55277200  0.63606400  0.85417200  1
  Bi  Bi35  1  0.58540100  0.81497600  0.56482100  1
  Au  Au36  1  0.61698200  0.99425600  0.61778800  1
  Au  Au37  1  0.38301800  0.00574400  0.38221200  1
  Au  Au38  1  0.61698200  0.50574400  0.11778800  1
  Au  Au39  1  0.38301800  0.49425600  0.88221200  1
  Br  Br40  1  0.17613500  0.33504800  0.51403000  1
  Br  Br41  1  0.83095500  0.14808200  0.98632200  1
  Br  Br42  1  0.49400100  0.11103200  0.87104000  1
  Br  Br43  1  0.50599900  0.61103200  0.62896000  1
  Br  Br44  1  0.00542400  0.62885800  0.12414100  1
  Br  Br45  1  0.74200800  0.24525100  0.74615900  1
  Br  Br46  1  0.02121900  0.63261900  0.87793500  1
  Br  Br47  1  0.76584300  0.75171000  0.24216300  1
  Br  Br48  1  0.83095500  0.35191800  0.48632200  1
  Br  Br49  1  0.16904500  0.85191800  0.01367800  1
  Br  Br50  1  0.50504400  0.13028700  0.12362700  1
  Br  Br51  1  0.49400100  0.38896800  0.37104000  1
  Br  Br52  1  0.14502200  0.49619000  0.32094000  1
  Br  Br53  1  0.25799200  0.74525100  0.75384100  1
  Br  Br54  1  0.74200800  0.25474900  0.24615900  1
  Br  Br55  1  0.14502200  0.00381000  0.82094000  1
  Br  Br56  1  0.49495600  0.86971300  0.87637300  1
  Br  Br57  1  0.16904500  0.64808200  0.51367800  1
  Br  Br58  1  0.23415700  0.24829000  0.75783700  1
  Br  Br59  1  0.50504400  0.36971300  0.62362700  1
  Br  Br60  1  0.76584300  0.74829000  0.74216300  1
  Br  Br61  1  0.85497800  0.99619000  0.17906000  1
  Br  Br62  1  0.17613500  0.16495200  0.01403000  1
  Br  Br63  1  0.97878100  0.36738100  0.12206500  1
  Br  Br64  1  0.25799200  0.75474900  0.25384100  1
  Br  Br65  1  0.97878100  0.13261900  0.62206500  1
  Br  Br66  1  0.00542400  0.87114200  0.62414100  1
  Br  Br67  1  0.85497800  0.50381000  0.67906000  1
  Br  Br68  1  0.82386500  0.66495200  0.48597000  1
  Br  Br69  1  0.49495600  0.63028700  0.37637300  1
  Br  Br70  1  0.02121900  0.86738100  0.37793500  1
  Br  Br71  1  0.99457600  0.37114200  0.87585900  1
  Br  Br72  1  0.50599900  0.88896800  0.12896000  1
  Br  Br73  1  0.23415700  0.25171000  0.25783700  1
  Br  Br74  1  0.99457600  0.12885800  0.37585900  1
  Br  Br75  1  0.82386500  0.83504800  0.98597000  1
