# generated using pymatgen
data_Re3(TeBr)7
_symmetry_space_group_name_H-M   'P 1'
_cell_length_a   10.61664432
_cell_length_b   10.61664432
_cell_length_c   35.50489154
_cell_angle_alpha   90.00000000
_cell_angle_beta   90.00000000
_cell_angle_gamma   120.00000000
_symmetry_Int_Tables_number   1
_chemical_formula_structural   Re3(TeBr)7
_chemical_formula_sum   'Re18 Te42 Br42'
_cell_volume   3465.71908282
_cell_formula_units_Z   6
loop_
 _symmetry_equiv_pos_site_id
 _symmetry_equiv_pos_as_xyz
  1  'x, y, z'
loop_
 _atom_site_type_symbol
 _atom_site_label
 _atom_site_symmetry_multiplicity
 _atom_site_fract_x
 _atom_site_fract_y
 _atom_site_fract_z
 _atom_site_occupancy
  Re  Re0  1  0.53272700  0.35827500  0.30175700  1
  Re  Re1  1  0.02494167  0.15888133  0.03157633  1
  Re  Re2  1  0.13393967  0.97505833  0.03157633  1
  Re  Re3  1  0.64172500  0.17445200  0.30175700  1
  Re  Re4  1  0.84111867  0.86606033  0.03157633  1
  Re  Re5  1  0.82554800  0.46727300  0.30175700  1
  Re  Re6  1  0.19939367  0.69160833  0.63509033  1
  Re  Re7  1  0.69160833  0.49221467  0.36490967  1
  Re  Re8  1  0.80060633  0.30839167  0.36490967  1
  Re  Re9  1  0.30839167  0.50778533  0.63509033  1
  Re  Re10  1  0.50778533  0.19939367  0.36490967  1
  Re  Re11  1  0.49221467  0.80060633  0.63509033  1
  Re  Re12  1  0.86606033  0.02494167  0.96842367  1
  Re  Re13  1  0.35827500  0.82554800  0.69824300  1
  Re  Re14  1  0.46727300  0.64172500  0.69824300  1
  Re  Re15  1  0.97505833  0.84111867  0.96842367  1
  Re  Re16  1  0.17445200  0.53272700  0.69824300  1
  Re  Re17  1  0.15888133  0.13393967  0.96842367  1
  Te  Te18  1  0.93492567  0.28425933  0.30229433  1
  Te  Te19  1  0.34043133  0.39241667  0.25942267  1
  Te  Te20  1  0.95092600  0.68266700  0.03103900  1
  Te  Te21  1  0.05198533  0.65956867  0.25942267  1
  Te  Te22  1  0.34933367  0.06507433  0.30229433  1
  Te  Te23  1  0.32623533  0.94091667  0.07391067  1
  Te  Te24  1  0.61468133  0.67376467  0.07391067  1
  Te  Te25  1  0.00000000  0.00000000  0.09361100  1
  Te  Te26  1  0.05908333  0.38531867  0.07391067  1
  Te  Te27  1  0.73174100  0.04907400  0.03103900  1
  Te  Te28  1  0.60758333  0.94801467  0.25942267  1
  Te  Te29  1  0.31733300  0.26825900  0.03103900  1
  Te  Te30  1  0.66666667  0.33333333  0.23972233  1
  Te  Te31  1  0.71574067  0.65066633  0.30229433  1
  Te  Te32  1  0.60159233  0.61759267  0.63562767  1
  Te  Te33  1  0.00709800  0.72575000  0.59275600  1
  Te  Te34  1  0.61759267  0.01600033  0.36437233  1
  Te  Te35  1  0.71865200  0.99290200  0.59275600  1
  Te  Te36  1  0.01600033  0.39840767  0.63562767  1
  Te  Te37  1  0.99290200  0.27425000  0.40724400  1
  Te  Te38  1  0.28134800  0.00709800  0.40724400  1
  Te  Te39  1  0.66666667  0.33333333  0.42694433  1
  Te  Te40  1  0.72575000  0.71865200  0.40724400  1
  Te  Te41  1  0.39840767  0.38240733  0.36437233  1
  Te  Te42  1  0.27425000  0.28134800  0.59275600  1
  Te  Te43  1  0.98399967  0.60159233  0.36437233  1
  Te  Te44  1  0.33333333  0.66666667  0.57305567  1
  Te  Te45  1  0.38240733  0.98399967  0.63562767  1
  Te  Te46  1  0.26825900  0.95092600  0.96896100  1
  Te  Te47  1  0.67376467  0.05908333  0.92608933  1
  Te  Te48  1  0.28425933  0.34933367  0.69770567  1
  Te  Te49  1  0.38531867  0.32623533  0.92608933  1
  Te  Te50  1  0.68266700  0.73174100  0.96896100  1
  Te  Te51  1  0.65956867  0.60758333  0.74057733  1
  Te  Te52  1  0.94801467  0.34043133  0.74057733  1
  Te  Te53  1  0.33333333  0.66666667  0.76027767  1
  Te  Te54  1  0.39241667  0.05198533  0.74057733  1
  Te  Te55  1  0.06507433  0.71574067  0.69770567  1
  Te  Te56  1  0.94091667  0.61468133  0.92608933  1
  Te  Te57  1  0.65066633  0.93492567  0.69770567  1
  Te  Te58  1  0.00000000  0.00000000  0.90638900  1
  Te  Te59  1  0.04907400  0.31733300  0.96896100  1
  Br  Br60  1  0.58146433  0.82372867  0.12546967  1
  Br  Br61  1  0.08520233  0.50960467  0.20786367  1
  Br  Br62  1  0.82357800  0.06174500  0.21232000  1
  Br  Br63  1  0.33333333  0.66666667  0.02967867  1
  Br  Br64  1  0.23816700  0.17642200  0.21232000  1
  Br  Br65  1  0.42849967  0.15691133  0.12101333  1
  Br  Br66  1  0.33333333  0.66666667  0.30365467  1
  Br  Br67  1  0.93825500  0.76183300  0.21232000  1
  Br  Br68  1  0.72841167  0.57150033  0.12101333  1
  Br  Br69  1  0.24226433  0.41853567  0.12546967  1
  Br  Br70  1  0.42440233  0.91479767  0.20786367  1
  Br  Br71  1  0.49039533  0.57559767  0.20786367  1
  Br  Br72  1  0.17627133  0.75773567  0.12546967  1
  Br  Br73  1  0.84308867  0.27158833  0.12101333  1
  Br  Br74  1  0.24813100  0.15706200  0.45880300  1
  Br  Br75  1  0.75186900  0.84293800  0.54119700  1
  Br  Br76  1  0.49024467  0.39507833  0.54565333  1
  Br  Br77  1  0.00000000  0.00000000  0.36301200  1
  Br  Br78  1  0.90483367  0.50975533  0.54565333  1
  Br  Br79  1  0.09516633  0.49024467  0.45434667  1
  Br  Br80  1  0.00000000  0.00000000  0.63698800  1
  Br  Br81  1  0.60492167  0.09516633  0.54565333  1
  Br  Br82  1  0.39507833  0.90483367  0.45434667  1
  Br  Br83  1  0.90893100  0.75186900  0.45880300  1
  Br  Br84  1  0.09106900  0.24813100  0.54119700  1
  Br  Br85  1  0.15706200  0.90893100  0.54119700  1
  Br  Br86  1  0.84293800  0.09106900  0.45880300  1
  Br  Br87  1  0.50975533  0.60492167  0.45434667  1
  Br  Br88  1  0.91479767  0.49039533  0.79213633  1
  Br  Br89  1  0.41853567  0.17627133  0.87453033  1
  Br  Br90  1  0.15691133  0.72841167  0.87898667  1
  Br  Br91  1  0.66666667  0.33333333  0.69634533  1
  Br  Br92  1  0.57150033  0.84308867  0.87898667  1
  Br  Br93  1  0.76183300  0.82357800  0.78768000  1
  Br  Br94  1  0.66666667  0.33333333  0.97032133  1
  Br  Br95  1  0.27158833  0.42849967  0.87898667  1
  Br  Br96  1  0.06174500  0.23816700  0.78768000  1
  Br  Br97  1  0.57559767  0.08520233  0.79213633  1
  Br  Br98  1  0.75773567  0.58146433  0.87453033  1
  Br  Br99  1  0.82372867  0.24226433  0.87453033  1
  Br  Br100  1  0.50960467  0.42440233  0.79213633  1
  Br  Br101  1  0.17642200  0.93825500  0.78768000  1
