# generated using pymatgen
data_AgH2SNO3
_symmetry_space_group_name_H-M   'P 1'
_cell_length_a   7.96327900
_cell_length_b   8.21835300
_cell_length_c   11.87004500
_cell_angle_alpha   90.00000000
_cell_angle_beta   90.00000000
_cell_angle_gamma   90.00000000
_symmetry_Int_Tables_number   1
_chemical_formula_structural   AgH2SNO3
_chemical_formula_sum   'Ag8 H16 S8 N8 O24'
_cell_volume   776.83554442
_cell_formula_units_Z   8
loop_
 _symmetry_equiv_pos_site_id
 _symmetry_equiv_pos_as_xyz
  1  'x, y, z'
loop_
 _atom_site_type_symbol
 _atom_site_label
 _atom_site_symmetry_multiplicity
 _atom_site_fract_x
 _atom_site_fract_y
 _atom_site_fract_z
 _atom_site_occupancy
  Ag  Ag0  1  0.61609600  0.25046700  0.10319200  1
  Ag  Ag1  1  0.11609600  0.74953300  0.39680800  1
  Ag  Ag2  1  0.38390400  0.24953300  0.60319200  1
  Ag  Ag3  1  0.88390400  0.75046700  0.89680800  1
  Ag  Ag4  1  0.38390400  0.74953300  0.89680800  1
  Ag  Ag5  1  0.88390400  0.25046700  0.60319200  1
  Ag  Ag6  1  0.61609600  0.75046700  0.39680800  1
  Ag  Ag7  1  0.11609600  0.24953300  0.10319200  1
  H  H8  1  0.49324400  0.13680200  0.89387700  1
  H  H9  1  0.99324400  0.86319800  0.60612300  1
  H  H10  1  0.50675600  0.36319800  0.39387700  1
  H  H11  1  0.00675600  0.63680200  0.10612300  1
  H  H12  1  0.50675600  0.86319800  0.10612300  1
  H  H13  1  0.00675600  0.13680200  0.39387700  1
  H  H14  1  0.49324400  0.63680200  0.60612300  1
  H  H15  1  0.99324400  0.36319800  0.89387700  1
  H  H16  1  0.70438400  0.11708500  0.88765800  1
  H  H17  1  0.20438400  0.88291500  0.61234200  1
  H  H18  1  0.29561600  0.38291500  0.38765800  1
  H  H19  1  0.79561600  0.61708500  0.11234200  1
  H  H20  1  0.29561600  0.88291500  0.11234200  1
  H  H21  1  0.79561600  0.11708500  0.38765800  1
  H  H22  1  0.70438400  0.61708500  0.61234200  1
  H  H23  1  0.20438400  0.38291500  0.88765800  1
  S  S24  1  0.88032100  0.36896600  0.33665700  1
  S  S25  1  0.38032100  0.63103400  0.16334300  1
  S  S26  1  0.11967900  0.13103400  0.83665700  1
  S  S27  1  0.61967900  0.86896600  0.66334300  1
  S  S28  1  0.11967900  0.63103400  0.66334300  1
  S  S29  1  0.61967900  0.36896600  0.83665700  1
  S  S30  1  0.88032100  0.86896600  0.16334300  1
  S  S31  1  0.38032100  0.13103400  0.33665700  1
  N  N32  1  0.60692700  0.19277700  0.91079500  1
  N  N33  1  0.10692700  0.80722300  0.58920500  1
  N  N34  1  0.39307300  0.30722300  0.41079500  1
  N  N35  1  0.89307300  0.69277700  0.08920500  1
  N  N36  1  0.39307300  0.80722300  0.08920500  1
  N  N37  1  0.89307300  0.19277700  0.41079500  1
  N  N38  1  0.60692700  0.69277700  0.58920500  1
  N  N39  1  0.10692700  0.30722300  0.91079500  1
  O  O40  1  0.86537600  0.32879300  0.21500100  1
  O  O41  1  0.36537600  0.67120700  0.28499900  1
  O  O42  1  0.13462400  0.17120700  0.71500100  1
  O  O43  1  0.63462400  0.82879300  0.78499900  1
  O  O44  1  0.13462400  0.67120700  0.78499900  1
  O  O45  1  0.63462400  0.32879300  0.71500100  1
  O  O46  1  0.86537600  0.82879300  0.28499900  1
  O  O47  1  0.36537600  0.17120700  0.21500100  1
  O  O48  1  0.72782200  0.44719400  0.37994100  1
  O  O49  1  0.22782200  0.55280600  0.12005900  1
  O  O50  1  0.27217800  0.05280600  0.87994100  1
  O  O51  1  0.77217800  0.94719400  0.62005900  1
  O  O52  1  0.27217800  0.55280600  0.62005900  1
  O  O53  1  0.77217800  0.44719400  0.87994100  1
  O  O54  1  0.72782200  0.94719400  0.12005900  1
  O  O55  1  0.22782200  0.05280600  0.37994100  1
  O  O56  1  0.53784900  0.54807200  0.13696500  1
  O  O57  1  0.03784900  0.45192800  0.36303500  1
  O  O58  1  0.46215100  0.95192800  0.63696500  1
  O  O59  1  0.96215100  0.04807200  0.86303500  1
  O  O60  1  0.46215100  0.45192800  0.86303500  1
  O  O61  1  0.96215100  0.54807200  0.63696500  1
  O  O62  1  0.53784900  0.04807200  0.36303500  1
  O  O63  1  0.03784900  0.95192800  0.13696500  1
