# generated using pymatgen
data_Al8P8H34N7O36F5
_symmetry_space_group_name_H-M   'P 1'
_cell_length_a   9.45672200
_cell_length_b   9.66971243
_cell_length_c   9.95561506
_cell_angle_alpha   89.92501011
_cell_angle_beta   89.95151309
_cell_angle_gamma   89.84933766
_symmetry_Int_Tables_number   1
_chemical_formula_structural   Al8P8H34N7O36F5
_chemical_formula_sum   'Al8 P8 H34 N7 O36 F5'
_cell_volume   910.37484576
_cell_formula_units_Z   1
loop_
 _symmetry_equiv_pos_site_id
 _symmetry_equiv_pos_as_xyz
  1  'x, y, z'
loop_
 _atom_site_type_symbol
 _atom_site_label
 _atom_site_symmetry_multiplicity
 _atom_site_fract_x
 _atom_site_fract_y
 _atom_site_fract_z
 _atom_site_occupancy
  Al  Al0  1  0.10061200  0.25787300  0.35964600  1
  Al  Al1  1  0.15519600  0.47703300  0.82273300  1
  Al  Al2  1  0.34753100  0.52381900  0.32472000  1
  Al  Al3  1  0.39726100  0.73677300  0.85901800  1
  Al  Al4  1  0.60359300  0.23837300  0.63996000  1
  Al  Al5  1  0.65404000  0.02243500  0.17590300  1
  Al  Al6  1  0.84560000  0.97526900  0.67462500  1
  Al  Al7  1  0.89745300  0.76221300  0.13943300  1
  P  P8  1  0.07651900  0.79122400  0.85421500  1
  P  P9  1  0.07961700  0.48510700  0.14077300  1
  P  P10  1  0.41736100  0.51498400  0.63846500  1
  P  P11  1  0.42242800  0.20923000  0.35826900  1
  P  P12  1  0.57763400  0.70865700  0.14257800  1
  P  P13  1  0.57866800  0.01613200  0.86148400  1
  P  P14  1  0.92187700  0.98246800  0.36166600  1
  P  P15  1  0.92362300  0.29352400  0.64232600  1
  H  H16  1  0.01214800  0.09825900  0.06645400  1
  H  H17  1  0.04743500  0.23806800  0.96821100  1
  H  H18  1  0.05071900  0.62960900  0.59768000  1
  H  H19  1  0.11972800  0.70337400  0.45860300  1
  H  H20  1  0.14612100  0.03637000  0.69279600  1
  H  H21  1  0.17762700  0.98022800  0.22413900  1
  H  H22  1  0.23504700  0.89077700  0.08601300  1
  H  H23  1  0.24039900  0.17509000  0.74325800  1
  H  H24  1  0.25808200  0.82546900  0.24254300  1
  H  H25  1  0.26530100  0.10986200  0.58680500  1
  H  H26  1  0.29157900  0.56410800  0.00862300  1
  H  H27  1  0.32198200  0.01992100  0.72475800  1
  H  H28  1  0.35380300  0.96415900  0.19264300  1
  H  H29  1  0.38521200  0.29176400  0.95872300  1
  H  H30  1  0.44251900  0.38719500  0.08935700  1
  H  H31  1  0.45475000  0.76063600  0.47109900  1
  H  H32  1  0.48808600  0.90163400  0.56738500  1
  H  H33  1  0.51221100  0.40157800  0.93264200  1
  H  H34  1  0.54731700  0.26149700  0.03088300  1
  H  H35  1  0.55754500  0.88660700  0.41055600  1
  H  H36  1  0.61659800  0.79265100  0.54249300  1
  H  H37  1  0.64615100  0.46442900  0.30769600  1
  H  H38  1  0.67788900  0.52095200  0.77437400  1
  H  H39  1  0.70782200  0.06309700  0.49293900  1
  H  H40  1  0.73450700  0.60996400  0.91230500  1
  H  H41  1  0.74041400  0.32494700  0.25701800  1
  H  H42  1  0.75931900  0.67584400  0.75514100  1
  H  H43  1  0.76494700  0.39052100  0.41404300  1
  H  H44  1  0.79169600  0.93759700  0.99153600  1
  H  H45  1  0.82137300  0.47993900  0.27562300  1
  H  H46  1  0.85326900  0.53526800  0.80622200  1
  H  H47  1  0.88509800  0.20863400  0.04046400  1
  H  H48  1  0.94288100  0.11309800  0.90959000  1
  H  H49  1  0.99354700  0.59900400  0.43850600  1
  N  N50  1  0.24411900  0.08483100  0.68538700  1
  N  N51  1  0.25590300  0.91544900  0.18482700  1
  N  N52  1  0.47304000  0.33553900  0.00431600  1
  N  N53  1  0.52796900  0.83540800  0.49609700  1
  N  N54  1  0.74383400  0.41515700  0.31516400  1
  N  N55  1  0.75586200  0.58511700  0.81375800  1
  N  N56  1  0.97309100  0.16469900  0.99498900  1
  O  O57  1  0.00268700  0.90672700  0.77551300  1
  O  O58  1  0.01169500  0.77242600  0.99514700  1
  O  O59  1  0.02321600  0.09044100  0.29637400  1
  O  O60  1  0.03095500  0.66626500  0.50317700  1
  O  O61  1  0.04786200  0.34236100  0.20667300  1
  O  O62  1  0.05160900  0.47207300  0.98940900  1
  O  O63  1  0.07174100  0.65439700  0.77285900  1
  O  O64  1  0.23309300  0.83711900  0.87785000  1
  O  O65  1  0.23691300  0.52666100  0.16475400  1
  O  O66  1  0.26257500  0.47671300  0.66606600  1
  O  O67  1  0.26541200  0.16492300  0.38197800  1
  O  O68  1  0.30471100  0.57097700  0.91000000  1
  O  O69  1  0.42696800  0.34859000  0.28299700  1
  O  O70  1  0.44533500  0.52991800  0.48665600  1
  O  O71  1  0.45265000  0.65815800  0.70367700  1
  O  O72  1  0.47701600  0.90854700  0.79820300  1
  O  O73  1  0.48833200  0.22067500  0.49836400  1
  O  O74  1  0.49444800  0.09635600  0.27404300  1
  O  O75  1  0.50224200  0.59749200  0.22670800  1
  O  O76  1  0.51294500  0.72071600  0.00130500  1
  O  O77  1  0.52191100  0.40794200  0.70011400  1
  O  O78  1  0.54701700  0.15878800  0.79514700  1
  O  O79  1  0.54988900  0.03008200  0.01282300  1
  O  O80  1  0.57080400  0.84769500  0.21778800  1
  O  O81  1  0.69428200  0.07064800  0.59139700  1
  O  O82  1  0.73409300  0.66101600  0.12199500  1
  O  O83  1  0.73648000  0.97715000  0.83813800  1
  O  O84  1  0.76430300  0.02292500  0.33625800  1
  O  O85  1  0.76670700  0.33903100  0.61888900  1
  O  O86  1  0.80622000  0.92907700  0.09023700  1
  O  O87  1  0.93006400  0.15362300  0.71557200  1
  O  O88  1  0.95058600  0.97344500  0.51244300  1
  O  O89  1  0.95484700  0.84094100  0.29448300  1
  O  O90  1  0.97825800  0.59166700  0.20736200  1
  O  O91  1  0.99024100  0.28615900  0.50082500  1
  O  O92  1  0.99499200  0.40600100  0.72739800  1
  F  F93  1  0.19561600  0.42760600  0.40085900  1
  F  F94  1  0.21761000  0.29908600  0.86486400  1
  F  F95  1  0.26633800  0.69693100  0.37043300  1
  F  F96  1  0.71780500  0.20010100  0.13748000  1
  F  F97  1  0.77358200  0.80208700  0.64127300  1
