# generated using pymatgen
data_TeHO3
_symmetry_space_group_name_H-M   'P 1'
_cell_length_a   4.95951600
_cell_length_b   8.34849800
_cell_length_c   11.71524491
_cell_angle_alpha   90.00000000
_cell_angle_beta   91.19240026
_cell_angle_gamma   90.00000000
_symmetry_Int_Tables_number   1
_chemical_formula_structural   TeHO3
_chemical_formula_sum   'Te8 H8 O24'
_cell_volume   484.95892857
_cell_formula_units_Z   8
loop_
 _symmetry_equiv_pos_site_id
 _symmetry_equiv_pos_as_xyz
  1  'x, y, z'
loop_
 _atom_site_type_symbol
 _atom_site_label
 _atom_site_symmetry_multiplicity
 _atom_site_fract_x
 _atom_site_fract_y
 _atom_site_fract_z
 _atom_site_occupancy
  Te  Te0  1  0.98776700  0.21280600  0.39102200  1
  Te  Te1  1  0.48623300  0.28469100  0.61959900  1
  Te  Te2  1  0.48623300  0.71530900  0.11959900  1
  Te  Te3  1  0.98776700  0.78719400  0.89102200  1
  Te  Te4  1  0.81520700  0.10241800  0.07075300  1
  Te  Te5  1  0.38208600  0.41001900  0.92562900  1
  Te  Te6  1  0.38208600  0.58998100  0.42562900  1
  Te  Te7  1  0.81520700  0.89758200  0.57075300  1
  H  H8  1  0.22940000  0.98338900  0.29649400  1
  H  H9  1  0.92280300  0.41356400  0.68325500  1
  H  H10  1  0.92280300  0.58643600  0.18325500  1
  H  H11  1  0.22940000  0.01661100  0.79649400  1
  H  H12  1  0.98401500  0.27711200  0.85716900  1
  H  H13  1  0.98401500  0.72288800  0.35716900  1
  H  H14  1  0.54805200  0.25018900  0.28134100  1
  H  H15  1  0.54805200  0.74981100  0.78134100  1
  O  O16  1  0.80442200  0.01045200  0.42187800  1
  O  O17  1  0.29824900  0.48214700  0.57349100  1
  O  O18  1  0.29824900  0.51785300  0.07349100  1
  O  O19  1  0.80442200  0.98954800  0.92187800  1
  O  O20  1  0.22238300  0.15831500  0.52392300  1
  O  O21  1  0.72448900  0.33328900  0.48517600  1
  O  O22  1  0.72448900  0.66671100  0.98517600  1
  O  O23  1  0.22238300  0.84168500  0.02392300  1
  O  O24  1  0.21344500  0.09990800  0.28219100  1
  O  O25  1  0.74325400  0.40098200  0.71574600  1
  O  O26  1  0.74325400  0.59901800  0.21574600  1
  O  O27  1  0.21344500  0.90009200  0.78219100  1
  O  O28  1  0.66620900  0.08014400  0.65282800  1
  O  O29  1  0.19182200  0.39679200  0.34578300  1
  O  O30  1  0.19182200  0.60320800  0.84578300  1
  O  O31  1  0.66620900  0.91985600  0.15282800  1
  O  O32  1  0.48468700  0.20260300  0.02900600  1
  O  O33  1  0.01920700  0.31439500  0.93679800  1
  O  O34  1  0.01920700  0.68560500  0.43679800  1
  O  O35  1  0.48468700  0.79739700  0.52900600  1
  O  O36  1  0.73980600  0.24771900  0.25932100  1
  O  O37  1  0.27612900  0.26366400  0.75150700  1
  O  O38  1  0.27612900  0.73633600  0.25150700  1
  O  O39  1  0.73980600  0.75228100  0.75932100  1
