# generated using pymatgen
data_Bi15PO25
_symmetry_space_group_name_H-M   'P 1'
_cell_length_a   14.62625014
_cell_length_b   14.62625014
_cell_length_c   44.79144135
_cell_angle_alpha   90.00000000
_cell_angle_beta   90.00000000
_cell_angle_gamma   120.00000000
_symmetry_Int_Tables_number   1
_chemical_formula_structural   Bi15PO25
_chemical_formula_sum   'Bi180 P12 O300'
_cell_volume   8298.34836696
_cell_formula_units_Z   12
loop_
 _symmetry_equiv_pos_site_id
 _symmetry_equiv_pos_as_xyz
  1  'x, y, z'
loop_
 _atom_site_type_symbol
 _atom_site_label
 _atom_site_symmetry_multiplicity
 _atom_site_fract_x
 _atom_site_fract_y
 _atom_site_fract_z
 _atom_site_occupancy
  Bi  Bi0  1  0.51628000  0.33578300  0.06285400  1
  Bi  Bi1  1  0.25933500  0.21832400  0.01822700  1
  Bi  Bi2  1  0.34910033  0.84586367  0.32983367  1
  Bi  Bi3  1  0.10359333  0.70186867  0.28921767  1
  Bi  Bi4  1  0.82272967  0.47672133  0.26943133  1
  Bi  Bi5  1  0.39678233  0.94599467  0.24979867  1
  Bi  Bi6  1  0.96437100  0.72820200  0.22307900  1
  Bi  Bi7  1  0.18470500  0.66957800  0.19684200  1
  Bi  Bi8  1  0.48454633  0.17438667  0.19785367  1
  Bi  Bi9  1  0.21534567  0.93566133  0.18488533  1
  Bi  Bi10  1  0.92896167  0.56535533  0.15561333  1
  Bi  Bi11  1  0.99784833  0.84902167  0.13136667  1
  Bi  Bi12  1  0.35197467  0.84878033  0.12953633  1
  Bi  Bi13  1  0.38041767  0.10994833  0.11578533  1
  Bi  Bi14  1  0.09592733  0.69983867  0.08725167  1
  Bi  Bi15  1  0.81950300  0.48372000  0.06285400  1
  Bi  Bi16  1  0.14660333  0.98487667  0.06296267  1
  Bi  Bi17  1  0.39282567  0.94849433  0.05084733  1
  Bi  Bi18  1  0.95898900  0.74066500  0.01822700  1
  Bi  Bi19  1  0.85422367  0.00928533  0.33011633  1
  Bi  Bi20  1  0.15413633  0.50323667  0.32983367  1
  Bi  Bi21  1  0.88170700  0.28594900  0.31635500  1
  Bi  Bi22  1  0.59827533  0.89640667  0.28921767  1
  Bi  Bi23  1  0.65399167  0.17727033  0.26943133  1
  Bi  Bi24  1  0.01678700  0.18251300  0.26515200  1
  Bi  Bi25  1  0.05400533  0.45078767  0.24979867  1
  Bi  Bi26  1  0.76383100  0.03562900  0.22307900  1
  Bi  Bi27  1  0.48487300  0.81529500  0.19684200  1
  Bi  Bi28  1  0.82561333  0.31015967  0.19785367  1
  Bi  Bi29  1  0.06433867  0.27968433  0.18488533  1
  Bi  Bi30  1  0.63639367  0.07103833  0.15561333  1
  Bi  Bi31  1  0.85117333  0.00215167  0.13136667  1
  Bi  Bi32  1  0.15121967  0.50319433  0.12953633  1
  Bi  Bi33  1  0.89005167  0.27046933  0.11578533  1
  Bi  Bi34  1  0.60391133  0.90407267  0.08725167  1
  Bi  Bi35  1  0.66421700  0.18049700  0.06285400  1
  Bi  Bi36  1  0.01512333  0.16172667  0.06296267  1
  Bi  Bi37  1  0.05150567  0.44433133  0.05084733  1
  Bi  Bi38  1  0.78167600  0.04101100  0.01822700  1
  Bi  Bi39  1  0.15506167  0.14577633  0.33011633  1
  Bi  Bi40  1  0.49676333  0.65089967  0.32983367  1
  Bi  Bi41  1  0.71405100  0.59575800  0.31635500  1
  Bi  Bi42  1  0.29813133  0.40172467  0.28921767  1
  Bi  Bi43  1  0.52327867  0.34600833  0.26943133  1
  Bi  Bi44  1  0.81748700  0.83427400  0.26515200  1
  Bi  Bi45  1  0.54921233  0.60321767  0.24979867  1
  Bi  Bi46  1  0.27179800  0.23616900  0.22307900  1
  Bi  Bi47  1  0.33042200  0.51512700  0.19684200  1
  Bi  Bi48  1  0.68984033  0.51545367  0.19785367  1
  Bi  Bi49  1  0.72031567  0.78465433  0.18488533  1
  Bi  Bi50  1  0.43464467  0.36360633  0.15561333  1
  Bi  Bi51  1  0.15097833  0.14882667  0.13136667  1
  Bi  Bi52  1  0.49680567  0.64802533  0.12953633  1
  Bi  Bi53  1  0.72953067  0.61958233  0.11578533  1
  Bi  Bi54  1  0.30016133  0.39608867  0.08725167  1
  Bi  Bi55  1  0.83827333  0.85339667  0.06296267  1
  Bi  Bi56  1  0.55566867  0.60717433  0.05084733  1
  Bi  Bi57  1  0.99071467  0.84493833  0.33011633  1
  Bi  Bi58  1  0.40424200  0.11829300  0.31635500  1
  Bi  Bi59  1  0.16572600  0.98321300  0.26515200  1
  Bi  Bi60  1  0.18294667  0.66911633  0.39618733  1
  Bi  Bi61  1  0.92600167  0.55165733  0.35156033  1
  Bi  Bi62  1  0.01576700  0.17919700  0.66316700  1
  Bi  Bi63  1  0.77026000  0.03520200  0.62255100  1
  Bi  Bi64  1  0.48939633  0.81005467  0.60276467  1
  Bi  Bi65  1  0.06344900  0.27932800  0.58313200  1
  Bi  Bi66  1  0.63103767  0.06153533  0.55641233  1
  Bi  Bi67  1  0.85137167  0.00291133  0.53017533  1
  Bi  Bi68  1  0.15121300  0.50772000  0.53118700  1
  Bi  Bi69  1  0.88201233  0.26899467  0.51821867  1
  Bi  Bi70  1  0.59562833  0.89868867  0.48894667  1
  Bi  Bi71  1  0.66451500  0.18235500  0.46470000  1
  Bi  Bi72  1  0.01864133  0.18211367  0.46286967  1
  Bi  Bi73  1  0.04708433  0.44328167  0.44911867  1
  Bi  Bi74  1  0.76259400  0.03317200  0.42058500  1
  Bi  Bi75  1  0.48616967  0.81705333  0.39618733  1
  Bi  Bi76  1  0.81327000  0.31821000  0.39629600  1
  Bi  Bi77  1  0.05949233  0.28182767  0.38418067  1
  Bi  Bi78  1  0.62565567  0.07399833  0.35156033  1
  Bi  Bi79  1  0.52089033  0.34261867  0.66344967  1
  Bi  Bi80  1  0.82080300  0.83657000  0.66316700  1
  Bi  Bi81  1  0.54837367  0.61928233  0.64968833  1
  Bi  Bi82  1  0.26494200  0.22974000  0.62255100  1
  Bi  Bi83  1  0.32065833  0.51060367  0.60276467  1
  Bi  Bi84  1  0.68345367  0.51584633  0.59848533  1
  Bi  Bi85  1  0.72067200  0.78412100  0.58313200  1
  Bi  Bi86  1  0.43049767  0.36896233  0.55641233  1
  Bi  Bi87  1  0.15153967  0.14862833  0.53017533  1
  Bi  Bi88  1  0.49228000  0.64349300  0.53118700  1
  Bi  Bi89  1  0.73100533  0.61301767  0.51821867  1
  Bi  Bi90  1  0.30306033  0.40437167  0.48894667  1
  Bi  Bi91  1  0.51784000  0.33548500  0.46470000  1
  Bi  Bi92  1  0.81788633  0.83652767  0.46286967  1
  Bi  Bi93  1  0.55671833  0.60380267  0.44911867  1
  Bi  Bi94  1  0.27057800  0.23740600  0.42058500  1
  Bi  Bi95  1  0.33088367  0.51383033  0.39618733  1
  Bi  Bi96  1  0.68179000  0.49506000  0.39629600  1
  Bi  Bi97  1  0.71817233  0.77766467  0.38418067  1
  Bi  Bi98  1  0.44834267  0.37434433  0.35156033  1
  Bi  Bi99  1  0.82172833  0.47910967  0.66344967  1
  Bi  Bi100  1  0.16343000  0.98423300  0.66316700  1
  Bi  Bi101  1  0.38071767  0.92909133  0.64968833  1
  Bi  Bi102  1  0.96479800  0.73505800  0.62255100  1
  Bi  Bi103  1  0.18994533  0.67934167  0.60276467  1
  Bi  Bi104  1  0.48415367  0.16760733  0.59848533  1
  Bi  Bi105  1  0.21587900  0.93655100  0.58313200  1
  Bi  Bi106  1  0.93846467  0.56950233  0.55641233  1
  Bi  Bi107  1  0.99708867  0.84846033  0.53017533  1
  Bi  Bi108  1  0.35650700  0.84878700  0.53118700  1
  Bi  Bi109  1  0.38698233  0.11798767  0.51821867  1
  Bi  Bi110  1  0.10131133  0.69693967  0.48894667  1
  Bi  Bi111  1  0.81764500  0.48216000  0.46470000  1
  Bi  Bi112  1  0.16347233  0.98135867  0.46286967  1
  Bi  Bi113  1  0.39619733  0.95291567  0.44911867  1
  Bi  Bi114  1  0.96682800  0.72942200  0.42058500  1
  Bi  Bi115  1  0.50494000  0.18673000  0.39629600  1
  Bi  Bi116  1  0.22233533  0.94050767  0.38418067  1
  Bi  Bi117  1  0.65738133  0.17827167  0.66344967  1
  Bi  Bi118  1  0.07090867  0.45162633  0.64968833  1
  Bi  Bi119  1  0.83239267  0.31654633  0.59848533  1
  Bi  Bi120  1  0.84961333  0.00244967  0.72952067  1
  Bi  Bi121  1  0.59266833  0.88499067  0.68489367  1
  Bi  Bi122  1  0.68243367  0.51253033  0.99650033  1
  Bi  Bi123  1  0.43692667  0.36853533  0.95588433  1
  Bi  Bi124  1  0.15606300  0.14338800  0.93609800  1
  Bi  Bi125  1  0.73011567  0.61266133  0.91646533  1
  Bi  Bi126  1  0.29770433  0.39486867  0.88974567  1
  Bi  Bi127  1  0.51803833  0.33624467  0.86350867  1
  Bi  Bi128  1  0.81787967  0.84105333  0.86452033  1
  Bi  Bi129  1  0.54867900  0.60232800  0.85155200  1
  Bi  Bi130  1  0.26229500  0.23202200  0.82228000  1
  Bi  Bi131  1  0.33118167  0.51568833  0.79803333  1
  Bi  Bi132  1  0.68530800  0.51544700  0.79620300  1
  Bi  Bi133  1  0.71375100  0.77661500  0.78245200  1
  Bi  Bi134  1  0.42926067  0.36650533  0.75391833  1
  Bi  Bi135  1  0.15283633  0.15038667  0.72952067  1
  Bi  Bi136  1  0.47993667  0.65154333  0.72962933  1
  Bi  Bi137  1  0.72615900  0.61516100  0.71751400  1
  Bi  Bi138  1  0.29232233  0.40733167  0.68489367  1
  Bi  Bi139  1  0.18755700  0.67595200  0.99678300  1
  Bi  Bi140  1  0.48746967  0.16990333  0.99650033  1
  Bi  Bi141  1  0.21504033  0.95261567  0.98302167  1
  Bi  Bi142  1  0.93160867  0.56307333  0.95588433  1
  Bi  Bi143  1  0.98732500  0.84393700  0.93609800  1
  Bi  Bi144  1  0.35012033  0.84917967  0.93181867  1
  Bi  Bi145  1  0.38733867  0.11745433  0.91646533  1
  Bi  Bi146  1  0.09716433  0.70229567  0.88974567  1
  Bi  Bi147  1  0.81820633  0.48196167  0.86350867  1
  Bi  Bi148  1  0.15894667  0.97682633  0.86452033  1
  Bi  Bi149  1  0.39767200  0.94635100  0.85155200  1
  Bi  Bi150  1  0.96972700  0.73770500  0.82228000  1
  Bi  Bi151  1  0.18450667  0.66881833  0.79803333  1
  Bi  Bi152  1  0.48455300  0.16986100  0.79620300  1
  Bi  Bi153  1  0.22338500  0.93713600  0.78245200  1
  Bi  Bi154  1  0.93724467  0.57073933  0.75391833  1
  Bi  Bi155  1  0.99755033  0.84716367  0.72952067  1
  Bi  Bi156  1  0.34845667  0.82839333  0.72962933  1
  Bi  Bi157  1  0.38483900  0.11099800  0.71751400  1
  Bi  Bi158  1  0.11500933  0.70767767  0.68489367  1
  Bi  Bi159  1  0.48839500  0.81244300  0.99678300  1
  Bi  Bi160  1  0.83009667  0.31756633  0.99650033  1
  Bi  Bi161  1  0.04738433  0.26242467  0.98302167  1
  Bi  Bi162  1  0.63146467  0.06839133  0.95588433  1
  Bi  Bi163  1  0.85661200  0.01267500  0.93609800  1
  Bi  Bi164  1  0.15082033  0.50094067  0.93181867  1
  Bi  Bi165  1  0.88254567  0.26988433  0.91646533  1
  Bi  Bi166  1  0.60513133  0.90283567  0.88974567  1
  Bi  Bi167  1  0.66375533  0.18179367  0.86350867  1
  Bi  Bi168  1  0.02317367  0.18212033  0.86452033  1
  Bi  Bi169  1  0.05364900  0.45132100  0.85155200  1
  Bi  Bi170  1  0.76797800  0.03027300  0.82228000  1
  Bi  Bi171  1  0.48431167  0.81549333  0.79803333  1
  Bi  Bi172  1  0.83013900  0.31469200  0.79620300  1
  Bi  Bi173  1  0.06286400  0.28624900  0.78245200  1
  Bi  Bi174  1  0.63349467  0.06275533  0.75391833  1
  Bi  Bi175  1  0.17160667  0.52006333  0.72962933  1
  Bi  Bi176  1  0.88900200  0.27384100  0.71751400  1
  Bi  Bi177  1  0.32404800  0.51160500  0.99678300  1
  Bi  Bi178  1  0.73757533  0.78495967  0.98302167  1
  Bi  Bi179  1  0.49905933  0.64987967  0.93181867  1
  P  P180  1  0.66666667  0.33333333  0.13319033  1
  P  P181  1  0.33333333  0.66666667  0.26648767  1
  P  P182  1  0.33333333  0.66666667  0.06668267  1
  P  P183  1  0.00000000  0.00000000  0.20045600  1
  P  P184  1  0.33333333  0.66666667  0.46652367  1
  P  P185  1  0.00000000  0.00000000  0.59982100  1
  P  P186  1  0.00000000  0.00000000  0.40001600  1
  P  P187  1  0.66666667  0.33333333  0.53378933  1
  P  P188  1  0.00000000  0.00000000  0.79985700  1
  P  P189  1  0.66666667  0.33333333  0.93315433  1
  P  P190  1  0.66666667  0.33333333  0.73334933  1
  P  P191  1  0.33333333  0.66666667  0.86712267  1
  O  O192  1  0.66666667  0.33333333  0.25879833  1
  O  O193  1  0.66666667  0.33333333  0.16849333  1
  O  O194  1  0.39662133  0.19696667  0.15989667  1
  O  O195  1  0.80034533  0.60337867  0.15989667  1
  O  O196  1  0.60644367  0.39011633  0.12171833  1
  O  O197  1  0.66666667  0.33333333  0.05215933  1
  O  O198  1  0.61835400  0.49669900  0.05118300  1
  O  O199  1  0.46607267  0.28990033  0.01598733  1
  O  O200  1  0.71030267  0.66486533  0.01446633  1
  O  O201  1  0.57650433  0.15331867  0.31518067  1
  O  O202  1  0.84668133  0.42318567  0.31518067  1
  O  O203  1  0.33333333  0.66666667  0.30151567  1
  O  O204  1  0.07304367  0.53649833  0.29265333  1
  O  O205  1  0.46345467  0.92695633  0.29265333  1
  O  O206  1  0.29132467  0.95263633  0.28102933  1
  O  O207  1  0.27507967  0.72521933  0.25475733  1
  O  O208  1  0.50027100  0.11890100  0.25137600  1
  O  O209  1  0.00991000  0.63286100  0.25065300  1
  O  O210  1  0.13406467  0.86475333  0.22741133  1
  O  O211  1  0.83135533  0.54014667  0.21701467  1
  O  O212  1  0.33247067  0.04322633  0.21469333  1
  O  O213  1  0.33333333  0.66666667  0.18630267  1
  O  O214  1  0.28433033  0.83036367  0.18504267  1
  O  O215  1  0.03319133  0.70543267  0.18384767  1
  O  O216  1  0.13149733  0.62250167  0.15078767  1
  O  O217  1  0.37680100  0.00003100  0.14731900  1
  O  O218  1  0.60988367  0.21632733  0.12171833  1
  O  O219  1  0.78367267  0.39355633  0.12171833  1
  O  O220  1  0.20848633  0.04711467  0.11871367  1
  O  O221  1  0.96091733  0.66243867  0.11723667  1
  O  O222  1  0.33333333  0.66666667  0.10173467  1
  O  O223  1  0.06442367  0.53292233  0.09354033  1
  O  O224  1  0.46849867  0.93557633  0.09354033  1
  O  O225  1  0.04139667  0.84032933  0.08459933  1
  O  O226  1  0.29076033  0.95811067  0.08226867  1
  O  O227  1  0.27518900  0.72554400  0.05506500  1
  O  O228  1  0.50330100  0.12165500  0.05118300  1
  O  O229  1  0.00026567  0.63003533  0.04982733  1
  O  O230  1  0.12455633  0.87514167  0.02499667  1
  O  O231  1  0.82382767  0.53392733  0.01598733  1
  O  O232  1  0.33513467  0.04543733  0.01446633  1
  O  O233  1  0.00000000  0.00000000  0.31920900  1
  O  O234  1  0.95357200  0.16641200  0.31663500  1
  O  O235  1  0.69933167  0.03777233  0.31620233  1
  O  O236  1  0.79617300  0.95553400  0.28401000  1
  O  O237  1  0.04736367  0.33868833  0.28102933  1
  O  O238  1  0.27478067  0.54986033  0.25475733  1
  O  O239  1  0.45013967  0.72492033  0.25475733  1
  O  O240  1  0.88109900  0.38137000  0.25137600  1
  O  O241  1  0.62295100  0.99009000  0.25065300  1
  O  O242  1  0.00000000  0.00000000  0.23522100  1
  O  O243  1  0.73068867  0.86593533  0.22741133  1
  O  O244  1  0.13524667  0.26931133  0.22741133  1
  O  O245  1  0.70879133  0.16864467  0.21701467  1
  O  O246  1  0.95677367  0.28924433  0.21469333  1
  O  O247  1  0.94296367  0.05989833  0.18841033  1
  O  O248  1  0.16963633  0.45396667  0.18504267  1
  O  O249  1  0.67224133  0.96680867  0.18384767  1
  O  O250  1  0.80303333  0.19965467  0.15989667  1
  O  O251  1  0.49100433  0.86850267  0.15078767  1
  O  O252  1  0.99996900  0.37677000  0.14731900  1
  O  O253  1  0.00000000  0.00000000  0.12180400  1
  O  O254  1  0.95288533  0.16137167  0.11871367  1
  O  O255  1  0.70152133  0.03908267  0.11723667  1
  O  O256  1  0.79893267  0.95860333  0.08459933  1
  O  O257  1  0.04188933  0.33264967  0.08226867  1
  O  O258  1  0.27445600  0.54964500  0.05506500  1
  O  O259  1  0.45035500  0.72481100  0.05506500  1
  O  O260  1  0.87834500  0.38164600  0.05118300  1
  O  O261  1  0.62976967  0.99973433  0.04982733  1
  O  O262  1  0.00000000  0.00000000  0.05401900  1
  O  O263  1  0.75058533  0.87544367  0.02499667  1
  O  O264  1  0.12485833  0.24941467  0.02499667  1
  O  O265  1  0.71009967  0.17617233  0.01598733  1
  O  O266  1  0.95456267  0.28969733  0.01446633  1
  O  O267  1  0.57681433  0.42349567  0.31518067  1
  O  O268  1  0.83358800  0.78716000  0.31663500  1
  O  O269  1  0.33844067  0.30066833  0.31620233  1
  O  O270  1  0.46350167  0.53654533  0.29265333  1
  O  O271  1  0.15936100  0.20382700  0.28401000  1
  O  O272  1  0.66131167  0.70867533  0.28102933  1
  O  O273  1  0.61863000  0.49972900  0.25137600  1
  O  O274  1  0.36713900  0.37704900  0.25065300  1
  O  O275  1  0.45985333  0.29120867  0.21701467  1
  O  O276  1  0.71075567  0.66752933  0.21469333  1
  O  O277  1  0.94010167  0.88306533  0.18841033  1
  O  O278  1  0.11693467  0.05703633  0.18841033  1
  O  O279  1  0.54603333  0.71566967  0.18504267  1
  O  O280  1  0.29456733  0.32775867  0.18384767  1
  O  O281  1  0.37749833  0.50899567  0.15078767  1
  O  O282  1  0.62323000  0.62319900  0.14731900  1
  O  O283  1  0.83862833  0.79151367  0.11871367  1
  O  O284  1  0.33756133  0.29847867  0.11723667  1
  O  O285  1  0.46707767  0.53150133  0.09354033  1
  O  O286  1  0.15967067  0.20106733  0.08459933  1
  O  O287  1  0.66735033  0.70923967  0.08226867  1
  O  O288  1  0.36996467  0.37023033  0.04982733  1
  O  O289  1  0.21284000  0.04642800  0.31663500  1
  O  O290  1  0.96222767  0.66155933  0.31620233  1
  O  O291  1  0.04446600  0.84063900  0.28401000  1
  O  O292  1  0.33333333  0.66666667  0.59213167  1
  O  O293  1  0.33333333  0.66666667  0.50182667  1
  O  O294  1  0.06328800  0.53030000  0.49323000  1
  O  O295  1  0.46701200  0.93671200  0.49323000  1
  O  O296  1  0.27311033  0.72344967  0.45505167  1
  O  O297  1  0.33333333  0.66666667  0.38549267  1
  O  O298  1  0.28502067  0.83003233  0.38451633  1
  O  O299  1  0.13273933  0.62323367  0.34932067  1
  O  O300  1  0.37696933  0.99819867  0.34779967  1
  O  O301  1  0.24317100  0.48665200  0.64851400  1
  O  O302  1  0.51334800  0.75651900  0.64851400  1
  O  O303  1  0.00000000  0.00000000  0.63484900  1
  O  O304  1  0.73971033  0.86983167  0.62598667  1
  O  O305  1  0.13012133  0.26028967  0.62598667  1
  O  O306  1  0.95799133  0.28596967  0.61436267  1
  O  O307  1  0.94174633  0.05855267  0.58809067  1
  O  O308  1  0.16693767  0.45223433  0.58470933  1
  O  O309  1  0.67657667  0.96619433  0.58398633  1
  O  O310  1  0.80073133  0.19808667  0.56074467  1
  O  O311  1  0.49802200  0.87348000  0.55034800  1
  O  O312  1  0.99913733  0.37655967  0.54802667  1
  O  O313  1  0.00000000  0.00000000  0.51963600  1
  O  O314  1  0.95099700  0.16369700  0.51837600  1
  O  O315  1  0.69985800  0.03876600  0.51718100  1
  O  O316  1  0.79816400  0.95583500  0.48412100  1
  O  O317  1  0.04346767  0.33336433  0.48065233  1
  O  O318  1  0.27655033  0.54966067  0.45505167  1
  O  O319  1  0.45033933  0.72688967  0.45505167  1
  O  O320  1  0.87515300  0.38044800  0.45204700  1
  O  O321  1  0.62758400  0.99577200  0.45057000  1
  O  O322  1  0.00000000  0.00000000  0.43506800  1
  O  O323  1  0.73109033  0.86625567  0.42687367  1
  O  O324  1  0.13516533  0.26890967  0.42687367  1
  O  O325  1  0.70806333  0.17366267  0.41793267  1
  O  O326  1  0.95742700  0.29144400  0.41560200  1
  O  O327  1  0.94185567  0.05887733  0.38839833  1
  O  O328  1  0.16996767  0.45498833  0.38451633  1
  O  O329  1  0.66693233  0.96336867  0.38316067  1
  O  O330  1  0.79122300  0.20847500  0.35833000  1
  O  O331  1  0.49049433  0.86726067  0.34932067  1
  O  O332  1  0.00180133  0.37877067  0.34779967  1
  O  O333  1  0.66666667  0.33333333  0.65254233  1
  O  O334  1  0.62023867  0.49974533  0.64996833  1
  O  O335  1  0.36599833  0.37110567  0.64953567  1
  O  O336  1  0.46283967  0.28886733  0.61734333  1
  O  O337  1  0.71403033  0.67202167  0.61436267  1
  O  O338  1  0.94144733  0.88319367  0.58809067  1
  O  O339  1  0.11680633  0.05825367  0.58809067  1
  O  O340  1  0.54776567  0.71470333  0.58470933  1
  O  O341  1  0.28961767  0.32342333  0.58398633  1
  O  O342  1  0.66666667  0.33333333  0.56855433  1
  O  O343  1  0.39735533  0.19926867  0.56074467  1
  O  O344  1  0.80191333  0.60264467  0.56074467  1
  O  O345  1  0.37545800  0.50197800  0.55034800  1
  O  O346  1  0.62344033  0.62257767  0.54802667  1
  O  O347  1  0.60963033  0.39323167  0.52174367  1
  O  O348  1  0.83630300  0.78730000  0.51837600  1
  O  O349  1  0.33890800  0.30014200  0.51718100  1
  O  O350  1  0.46970000  0.53298800  0.49323000  1
  O  O351  1  0.15767100  0.20183600  0.48412100  1
  O  O352  1  0.66663567  0.71010333  0.48065233  1
  O  O353  1  0.66666667  0.33333333  0.45513733  1
  O  O354  1  0.61955200  0.49470500  0.45204700  1
  O  O355  1  0.36818800  0.37241600  0.45057000  1
  O  O356  1  0.46559933  0.29193667  0.41793267  1
  O  O357  1  0.70855600  0.66598300  0.41560200  1
  O  O358  1  0.94112267  0.88297833  0.38839833  1
  O  O359  1  0.11702167  0.05814433  0.38839833  1
  O  O360  1  0.54501167  0.71497933  0.38451633  1
  O  O361  1  0.29643633  0.33306767  0.38316067  1
  O  O362  1  0.66666667  0.33333333  0.38735233  1
  O  O363  1  0.41725200  0.20877700  0.35833000  1
  O  O364  1  0.79152500  0.58274800  0.35833000  1
  O  O365  1  0.37676633  0.50950567  0.34932067  1
  O  O366  1  0.62122933  0.62303067  0.34779967  1
  O  O367  1  0.24348100  0.75682900  0.64851400  1
  O  O368  1  0.50025467  0.12049333  0.64996833  1
  O  O369  1  0.00510733  0.63400167  0.64953567  1
  O  O370  1  0.13016833  0.86987867  0.62598667  1
  O  O371  1  0.82602767  0.53716033  0.61734333  1
  O  O372  1  0.32797833  0.04200867  0.61436267  1
  O  O373  1  0.28529667  0.83306233  0.58470933  1
  O  O374  1  0.03380567  0.71038233  0.58398633  1
  O  O375  1  0.12652000  0.62454200  0.55034800  1
  O  O376  1  0.37742233  0.00086267  0.54802667  1
  O  O377  1  0.60676833  0.21639867  0.52174367  1
  O  O378  1  0.78360133  0.39036967  0.52174367  1
  O  O379  1  0.21270000  0.04900300  0.51837600  1
  O  O380  1  0.96123400  0.66109200  0.51718100  1
  O  O381  1  0.04416500  0.84232900  0.48412100  1
  O  O382  1  0.28989667  0.95653233  0.48065233  1
  O  O383  1  0.50529500  0.12484700  0.45204700  1
  O  O384  1  0.00422800  0.63181200  0.45057000  1
  O  O385  1  0.13374433  0.86483467  0.42687367  1
  O  O386  1  0.82633733  0.53440067  0.41793267  1
  O  O387  1  0.33401700  0.04257300  0.41560200  1
  O  O388  1  0.03663133  0.70356367  0.38316067  1
  O  O389  1  0.87950667  0.37976133  0.64996833  1
  O  O390  1  0.62889433  0.99489267  0.64953567  1
  O  O391  1  0.71113267  0.17397233  0.61734333  1
  O  O392  1  0.00000000  0.00000000  0.92546500  1
  O  O393  1  0.00000000  0.00000000  0.83516000  1
  O  O394  1  0.72995467  0.86363333  0.82656333  1
  O  O395  1  0.13367867  0.27004533  0.82656333  1
  O  O396  1  0.93977700  0.05678300  0.78838500  1
  O  O397  1  0.00000000  0.00000000  0.71882600  1
  O  O398  1  0.95168733  0.16336567  0.71784967  1
  O  O399  1  0.79940600  0.95656700  0.68265400  1
  O  O400  1  0.04363600  0.33153200  0.68113300  1
  O  O401  1  0.90983767  0.81998533  0.98184733  1
  O  O402  1  0.18001467  0.08985233  0.98184733  1
  O  O403  1  0.66666667  0.33333333  0.96818233  1
  O  O404  1  0.40637700  0.20316500  0.95932000  1
  O  O405  1  0.79678800  0.59362300  0.95932000  1
  O  O406  1  0.62465800  0.61930300  0.94769600  1
  O  O407  1  0.60841300  0.39188600  0.92142400  1
  O  O408  1  0.83360433  0.78556767  0.91804267  1
  O  O409  1  0.34324333  0.29952767  0.91731967  1
  O  O410  1  0.46739800  0.53142000  0.89407800  1
  O  O411  1  0.16468867  0.20681333  0.88368133  1
  O  O412  1  0.66580400  0.70989300  0.88136000  1
  O  O413  1  0.66666667  0.33333333  0.85296933  1
  O  O414  1  0.61766367  0.49703033  0.85170933  1
  O  O415  1  0.36652467  0.37209933  0.85051433  1
  O  O416  1  0.46483067  0.28916833  0.81745433  1
  O  O417  1  0.71013433  0.66669767  0.81398567  1
  O  O418  1  0.94321700  0.88299400  0.78838500  1
  O  O419  1  0.11700600  0.06022300  0.78838500  1
  O  O420  1  0.54181967  0.71378133  0.78538033  1
  O  O421  1  0.29425067  0.32910533  0.78390333  1
  O  O422  1  0.66666667  0.33333333  0.76840133  1
  O  O423  1  0.39775700  0.19958900  0.76020700  1
  O  O424  1  0.80183200  0.60224300  0.76020700  1
  O  O425  1  0.37473000  0.50699600  0.75126600  1
  O  O426  1  0.62409367  0.62477733  0.74893533  1
  O  O427  1  0.60852233  0.39221067  0.72173167  1
  O  O428  1  0.83663433  0.78832167  0.71784967  1
  O  O429  1  0.33359900  0.29670200  0.71649400  1
  O  O430  1  0.45788967  0.54180833  0.69166333  1
  O  O431  1  0.15716100  0.20059400  0.68265400  1
  O  O432  1  0.66846800  0.71210400  0.68113300  1
  O  O433  1  0.33333333  0.66666667  0.98587567  1
  O  O434  1  0.28690533  0.83307867  0.98330167  1
  O  O435  1  0.03266500  0.70443900  0.98286900  1
  O  O436  1  0.12950633  0.62220067  0.95067667  1
  O  O437  1  0.38069700  0.00535500  0.94769600  1
  O  O438  1  0.60811400  0.21652700  0.92142400  1
  O  O439  1  0.78347300  0.39158700  0.92142400  1
  O  O440  1  0.21443233  0.04803667  0.91804267  1
  O  O441  1  0.95628433  0.65675667  0.91731967  1
  O  O442  1  0.33333333  0.66666667  0.90188767  1
  O  O443  1  0.06402200  0.53260200  0.89407800  1
  O  O444  1  0.46858000  0.93597800  0.89407800  1
  O  O445  1  0.04212467  0.83531133  0.88368133  1
  O  O446  1  0.29010700  0.95591100  0.88136000  1
  O  O447  1  0.27629700  0.72656500  0.85507700  1
  O  O448  1  0.50296967  0.12063333  0.85170933  1
  O  O449  1  0.00557467  0.63347533  0.85051433  1
  O  O450  1  0.13636667  0.86632133  0.82656333  1
  O  O451  1  0.82433767  0.53516933  0.81745433  1
  O  O452  1  0.33330233  0.04343667  0.81398567  1
  O  O453  1  0.33333333  0.66666667  0.78847067  1
  O  O454  1  0.28621867  0.82803833  0.78538033  1
  O  O455  1  0.03485467  0.70574933  0.78390333  1
  O  O456  1  0.13226600  0.62527000  0.75126600  1
  O  O457  1  0.37522267  0.99931633  0.74893533  1
  O  O458  1  0.60778933  0.21631167  0.72173167  1
  O  O459  1  0.78368833  0.39147767  0.72173167  1
  O  O460  1  0.21167833  0.04831267  0.71784967  1
  O  O461  1  0.96310300  0.66640100  0.71649400  1
  O  O462  1  0.33333333  0.66666667  0.72068567  1
  O  O463  1  0.08391867  0.54211033  0.69166333  1
  O  O464  1  0.45819167  0.91608133  0.69166333  1
  O  O465  1  0.04343300  0.84283900  0.68265400  1
  O  O466  1  0.28789600  0.95636400  0.68113300  1
  O  O467  1  0.91014767  0.09016233  0.98184733  1
  O  O468  1  0.16692133  0.45382667  0.98330167  1
  O  O469  1  0.67177400  0.96733500  0.98286900  1
  O  O470  1  0.79683500  0.20321200  0.95932000  1
  O  O471  1  0.49269433  0.87049367  0.95067667  1
  O  O472  1  0.99464500  0.37534200  0.94769600  1
  O  O473  1  0.95196333  0.16639567  0.91804267  1
  O  O474  1  0.70047233  0.04371567  0.91731967  1
  O  O475  1  0.79318667  0.95787533  0.88368133  1
  O  O476  1  0.04408900  0.33419600  0.88136000  1
  O  O477  1  0.27343500  0.54973200  0.85507700  1
  O  O478  1  0.45026800  0.72370300  0.85507700  1
  O  O479  1  0.87936667  0.38233633  0.85170933  1
  O  O480  1  0.62790067  0.99442533  0.85051433  1
  O  O481  1  0.71083167  0.17566233  0.81745433  1
  O  O482  1  0.95656333  0.28986567  0.81398567  1
  O  O483  1  0.17196167  0.45818033  0.78538033  1
  O  O484  1  0.67089467  0.96514533  0.78390333  1
  O  O485  1  0.80041100  0.19816800  0.76020700  1
  O  O486  1  0.49300400  0.86773400  0.75126600  1
  O  O487  1  0.00068367  0.37590633  0.74893533  1
  O  O488  1  0.70329800  0.03689700  0.71649400  1
  O  O489  1  0.54617333  0.71309467  0.98330167  1
  O  O490  1  0.29556100  0.32822600  0.98286900  1
  O  O491  1  0.37779933  0.50730567  0.95067667  1
