# generated using pymatgen
data_Cd2P3Cl
_symmetry_space_group_name_H-M   'P 1'
_cell_length_a   8.11716000
_cell_length_b   9.15424400
_cell_length_c   7.64860607
_cell_angle_alpha   90.00000000
_cell_angle_beta   100.57795751
_cell_angle_gamma   90.00000000
_symmetry_Int_Tables_number   1
_chemical_formula_structural   Cd2P3Cl
_chemical_formula_sum   'Cd8 P12 Cl4'
_cell_volume   558.68250639
_cell_formula_units_Z   4
loop_
 _symmetry_equiv_pos_site_id
 _symmetry_equiv_pos_as_xyz
  1  'x, y, z'
loop_
 _atom_site_type_symbol
 _atom_site_label
 _atom_site_symmetry_multiplicity
 _atom_site_fract_x
 _atom_site_fract_y
 _atom_site_fract_z
 _atom_site_occupancy
  Cd  Cd0  1  0.25733650  0.15253250  0.71328900  1
  Cd  Cd1  1  0.74266350  0.15253250  0.78671100  1
  Cd  Cd2  1  0.74266350  0.84746750  0.28671100  1
  Cd  Cd3  1  0.25733650  0.84746750  0.21328900  1
  Cd  Cd4  1  0.75733650  0.65253250  0.71328900  1
  Cd  Cd5  1  0.24266350  0.65253250  0.78671100  1
  Cd  Cd6  1  0.24266350  0.34746750  0.28671100  1
  Cd  Cd7  1  0.75733650  0.34746750  0.21328900  1
  P  P8  1  0.61484000  0.95416400  0.96540600  1
  P  P9  1  0.38516000  0.95416400  0.53459400  1
  P  P10  1  0.38516000  0.04583600  0.03459400  1
  P  P11  1  0.61484000  0.04583600  0.46540600  1
  P  P12  1  0.50000000  0.80478200  0.75000000  1
  P  P13  1  0.50000000  0.19521800  0.25000000  1
  P  P14  1  0.11484000  0.45416400  0.96540600  1
  P  P15  1  0.88516000  0.45416400  0.53459400  1
  P  P16  1  0.88516000  0.54583600  0.03459400  1
  P  P17  1  0.11484000  0.54583600  0.46540600  1
  P  P18  1  0.00000000  0.30478200  0.75000000  1
  P  P19  1  0.00000000  0.69521800  0.25000000  1
  Cl  Cl20  1  0.50000000  0.36132200  0.75000000  1
  Cl  Cl21  1  0.50000000  0.63867800  0.25000000  1
  Cl  Cl22  1  0.00000000  0.86132200  0.75000000  1
  Cl  Cl23  1  0.00000000  0.13867800  0.25000000  1
