# generated using pymatgen
data_Ba9(NdS6)2
_symmetry_space_group_name_H-M   'P 1'
_cell_length_a   7.76160400
_cell_length_b   13.43663600
_cell_length_c   14.75783810
_cell_angle_alpha   90.00000000
_cell_angle_beta   100.09735490
_cell_angle_gamma   90.00000000
_symmetry_Int_Tables_number   1
_chemical_formula_structural   Ba9(NdS6)2
_chemical_formula_sum   'Ba18 Nd4 S24'
_cell_volume   1515.25410436
_cell_formula_units_Z   2
loop_
 _symmetry_equiv_pos_site_id
 _symmetry_equiv_pos_as_xyz
  1  'x, y, z'
loop_
 _atom_site_type_symbol
 _atom_site_label
 _atom_site_symmetry_multiplicity
 _atom_site_fract_x
 _atom_site_fract_y
 _atom_site_fract_z
 _atom_site_occupancy
  Ba  Ba0  1  0.75863400  0.00000000  0.23948500  1
  Ba  Ba1  1  0.50000000  0.00000000  0.50000000  1
  Ba  Ba2  1  0.24136600  0.00000000  0.76051500  1
  Ba  Ba3  1  0.75972600  0.16123300  0.76105900  1
  Ba  Ba4  1  0.24027400  0.16123300  0.23894100  1
  Ba  Ba5  1  0.50000000  0.66864100  0.50000000  1
  Ba  Ba6  1  0.24027400  0.83876700  0.23894100  1
  Ba  Ba7  1  0.50000000  0.33135900  0.50000000  1
  Ba  Ba8  1  0.75972600  0.83876700  0.76105900  1
  Ba  Ba9  1  0.25863400  0.50000000  0.23948500  1
  Ba  Ba10  1  0.00000000  0.50000000  0.50000000  1
  Ba  Ba11  1  0.74136600  0.50000000  0.76051500  1
  Ba  Ba12  1  0.25972600  0.66123300  0.76105900  1
  Ba  Ba13  1  0.74027400  0.66123300  0.23894100  1
  Ba  Ba14  1  0.00000000  0.16864100  0.50000000  1
  Ba  Ba15  1  0.74027400  0.33876700  0.23894100  1
  Ba  Ba16  1  0.00000000  0.83135900  0.50000000  1
  Ba  Ba17  1  0.25972600  0.33876700  0.76105900  1
  Nd  Nd18  1  0.50000000  0.16722700  0.00000000  1
  Nd  Nd19  1  0.50000000  0.83277300  0.00000000  1
  Nd  Nd20  1  0.00000000  0.66722700  0.00000000  1
  Nd  Nd21  1  0.00000000  0.33277300  0.00000000  1
  S  S22  1  0.40585600  0.00000000  0.10969400  1
  S  S23  1  0.12498500  0.00000000  0.37287100  1
  S  S24  1  0.35272050  0.68465250  0.10912300  1
  S  S25  1  0.87501500  0.00000000  0.62712900  1
  S  S26  1  0.62402150  0.16656550  0.36872800  1
  S  S27  1  0.59414400  0.00000000  0.89030600  1
  S  S28  1  0.35272050  0.31534750  0.10912300  1
  S  S29  1  0.37597850  0.16656550  0.63127200  1
  S  S30  1  0.62402150  0.83343450  0.36872800  1
  S  S31  1  0.64727950  0.68465250  0.89087700  1
  S  S32  1  0.37597850  0.83343450  0.63127200  1
  S  S33  1  0.64727950  0.31534750  0.89087700  1
  S  S34  1  0.90585600  0.50000000  0.10969400  1
  S  S35  1  0.62498500  0.50000000  0.37287100  1
  S  S36  1  0.85272050  0.18465250  0.10912300  1
  S  S37  1  0.37501500  0.50000000  0.62712900  1
  S  S38  1  0.12402150  0.66656550  0.36872800  1
  S  S39  1  0.09414400  0.50000000  0.89030600  1
  S  S40  1  0.85272050  0.81534750  0.10912300  1
  S  S41  1  0.87597850  0.66656550  0.63127200  1
  S  S42  1  0.12402150  0.33343450  0.36872800  1
  S  S43  1  0.14727950  0.18465250  0.89087700  1
  S  S44  1  0.87597850  0.33343450  0.63127200  1
  S  S45  1  0.14727950  0.81534750  0.89087700  1
