# generated using pymatgen
data_KScAs2(HO4)2
_symmetry_space_group_name_H-M   'P 1'
_cell_length_a   8.48598800
_cell_length_b   10.74331800
_cell_length_c   9.37383489
_cell_angle_alpha   90.00000000
_cell_angle_beta   110.47188937
_cell_angle_gamma   90.00000000
_symmetry_Int_Tables_number   1
_chemical_formula_structural   KScAs2(HO4)2
_chemical_formula_sum   'K4 Sc4 As8 H8 O32'
_cell_volume   800.61804693
_cell_formula_units_Z   4
loop_
 _symmetry_equiv_pos_site_id
 _symmetry_equiv_pos_as_xyz
  1  'x, y, z'
loop_
 _atom_site_type_symbol
 _atom_site_label
 _atom_site_symmetry_multiplicity
 _atom_site_fract_x
 _atom_site_fract_y
 _atom_site_fract_z
 _atom_site_occupancy
  K  K0  1  0.75000000  0.75000000  0.00000000  1
  K  K1  1  0.75000000  0.25000000  0.50000000  1
  K  K2  1  0.25000000  0.25000000  0.00000000  1
  K  K3  1  0.25000000  0.75000000  0.50000000  1
  Sc  Sc4  1  0.50000000  0.36163800  0.75000000  1
  Sc  Sc5  1  0.50000000  0.63836200  0.25000000  1
  Sc  Sc6  1  0.00000000  0.86163800  0.75000000  1
  Sc  Sc7  1  0.00000000  0.13836200  0.25000000  1
  As  As8  1  0.22540300  0.09859700  0.64280900  1
  As  As9  1  0.77459700  0.09859700  0.85719100  1
  As  As10  1  0.77459700  0.90140300  0.35719100  1
  As  As11  1  0.22540300  0.90140300  0.14280900  1
  As  As12  1  0.72540300  0.59859700  0.64280900  1
  As  As13  1  0.27459700  0.59859700  0.85719100  1
  As  As14  1  0.27459700  0.40140300  0.35719100  1
  As  As15  1  0.72540300  0.40140300  0.14280900  1
  H  H16  1  0.32952050  0.02023050  0.46649000  1
  H  H17  1  0.67047950  0.02023050  0.03351000  1
  H  H18  1  0.67047950  0.97976950  0.53351000  1
  H  H19  1  0.32952050  0.97976950  0.96649000  1
  H  H20  1  0.82952050  0.52023050  0.46649000  1
  H  H21  1  0.17047950  0.52023050  0.03351000  1
  H  H22  1  0.17047950  0.47976950  0.53351000  1
  H  H23  1  0.82952050  0.47976950  0.96649000  1
  O  O24  1  0.31498300  0.23003900  0.73728000  1
  O  O25  1  0.68501700  0.23003900  0.76272000  1
  O  O26  1  0.68501700  0.76996100  0.26272000  1
  O  O27  1  0.31498300  0.76996100  0.23728000  1
  O  O28  1  0.18404200  0.00377200  0.77199500  1
  O  O29  1  0.81595800  0.00377200  0.72800500  1
  O  O30  1  0.81595800  0.99622800  0.22800500  1
  O  O31  1  0.18404200  0.99622800  0.27199500  1
  O  O32  1  0.55375600  0.63651600  0.48913000  1
  O  O33  1  0.44624400  0.63651600  0.01087000  1
  O  O34  1  0.44624400  0.36348400  0.51087000  1
  O  O35  1  0.55375600  0.36348400  0.98913000  1
  O  O36  1  0.37109900  0.01715800  0.58023600  1
  O  O37  1  0.62890100  0.01715800  0.91976400  1
  O  O38  1  0.62890100  0.98284200  0.41976400  1
  O  O39  1  0.37109900  0.98284200  0.08023600  1
  O  O40  1  0.81498300  0.73003900  0.73728000  1
  O  O41  1  0.18501700  0.73003900  0.76272000  1
  O  O42  1  0.18501700  0.26996100  0.26272000  1
  O  O43  1  0.81498300  0.26996100  0.23728000  1
  O  O44  1  0.68404200  0.50377200  0.77199500  1
  O  O45  1  0.31595800  0.50377200  0.72800500  1
  O  O46  1  0.31595800  0.49622800  0.22800500  1
  O  O47  1  0.68404200  0.49622800  0.27199500  1
  O  O48  1  0.05375600  0.13651600  0.48913000  1
  O  O49  1  0.94624400  0.13651600  0.01087000  1
  O  O50  1  0.94624400  0.86348400  0.51087000  1
  O  O51  1  0.05375600  0.86348400  0.98913000  1
  O  O52  1  0.87109900  0.51715800  0.58023600  1
  O  O53  1  0.12890100  0.51715800  0.91976400  1
  O  O54  1  0.12890100  0.48284200  0.41976400  1
  O  O55  1  0.87109900  0.48284200  0.08023600  1
