# generated using pymatgen
data_SiO2
_symmetry_space_group_name_H-M   'P 1'
_cell_length_a   25.31371200
_cell_length_b   5.08500800
_cell_length_c   24.69497111
_cell_angle_alpha   90.00000000
_cell_angle_beta   107.87739531
_cell_angle_gamma   90.00000000
_symmetry_Int_Tables_number   1
_chemical_formula_structural   SiO2
_chemical_formula_sum   'Si56 O112'
_cell_volume   3025.26331589
_cell_formula_units_Z   56
loop_
 _symmetry_equiv_pos_site_id
 _symmetry_equiv_pos_as_xyz
  1  'x, y, z'
loop_
 _atom_site_type_symbol
 _atom_site_label
 _atom_site_symmetry_multiplicity
 _atom_site_fract_x
 _atom_site_fract_y
 _atom_site_fract_z
 _atom_site_occupancy
  Si  Si0  1  0.71256400  0.91560400  0.38094700  1
  Si  Si1  1  0.13361450  0.42997550  0.94763700  1
  Si  Si2  1  0.43902800  0.53519600  0.91333800  1
  Si  Si3  1  0.56097200  0.46480400  0.08666200  1
  Si  Si4  1  0.21256400  0.58439600  0.88094700  1
  Si  Si5  1  0.21542950  0.57786250  0.57203900  1
  Si  Si6  1  0.71542950  0.92213750  0.07203900  1
  Si  Si7  1  0.86638550  0.42997550  0.55236300  1
  Si  Si8  1  0.28539650  0.01577250  0.74508700  1
  Si  Si9  1  0.87405850  0.46494850  0.36168300  1
  Si  Si10  1  0.21460350  0.51577250  0.75491300  1
  Si  Si11  1  0.86638550  0.57002450  0.05236300  1
  Si  Si12  1  0.78743600  0.41560400  0.11905300  1
  Si  Si13  1  0.06097200  0.03519600  0.58666200  1
  Si  Si14  1  0.28457050  0.07786250  0.92796100  1
  Si  Si15  1  0.93902800  0.96480400  0.41333800  1
  Si  Si16  1  0.28743600  0.08439600  0.61905300  1
  Si  Si17  1  0.78539650  0.48422750  0.24508700  1
  Si  Si18  1  0.62594150  0.96494850  0.13831700  1
  Si  Si19  1  0.06720350  0.06541650  0.45873600  1
  Si  Si20  1  0.93279650  0.93458350  0.54126400  1
  Si  Si21  1  0.13361450  0.57002450  0.44763700  1
  Si  Si22  1  0.78457050  0.42213750  0.42796100  1
  Si  Si23  1  0.06720350  0.93458350  0.95873600  1
  Si  Si24  1  0.93279650  0.06541650  0.04126400  1
  Si  Si25  1  0.71460350  0.98422750  0.25491300  1
  Si  Si26  1  0.37405850  0.03505150  0.86168300  1
  Si  Si27  1  0.12594150  0.53505150  0.63831700  1
  Si  Si28  1  0.21256400  0.41560400  0.38094700  1
  Si  Si29  1  0.63361450  0.92997550  0.94763700  1
  Si  Si30  1  0.93902800  0.03519600  0.91333800  1
  Si  Si31  1  0.06097200  0.96480400  0.08666200  1
  Si  Si32  1  0.71256400  0.08439600  0.88094700  1
  Si  Si33  1  0.71542950  0.07786250  0.57203900  1
  Si  Si34  1  0.21542950  0.42213750  0.07203900  1
  Si  Si35  1  0.36638550  0.92997550  0.55236300  1
  Si  Si36  1  0.78539650  0.51577250  0.74508700  1
  Si  Si37  1  0.37405850  0.96494850  0.36168300  1
  Si  Si38  1  0.71460350  0.01577250  0.75491300  1
  Si  Si39  1  0.36638550  0.07002450  0.05236300  1
  Si  Si40  1  0.28743600  0.91560400  0.11905300  1
  Si  Si41  1  0.56097200  0.53519600  0.58666200  1
  Si  Si42  1  0.78457050  0.57786250  0.92796100  1
  Si  Si43  1  0.43902800  0.46480400  0.41333800  1
  Si  Si44  1  0.78743600  0.58439600  0.61905300  1
  Si  Si45  1  0.28539650  0.98422750  0.24508700  1
  Si  Si46  1  0.12594150  0.46494850  0.13831700  1
  Si  Si47  1  0.56720350  0.56541650  0.45873600  1
  Si  Si48  1  0.43279650  0.43458350  0.54126400  1
  Si  Si49  1  0.63361450  0.07002450  0.44763700  1
  Si  Si50  1  0.28457050  0.92213750  0.42796100  1
  Si  Si51  1  0.56720350  0.43458350  0.95873600  1
  Si  Si52  1  0.43279650  0.56541650  0.04126400  1
  Si  Si53  1  0.21460350  0.48422750  0.25491300  1
  Si  Si54  1  0.87405850  0.53505150  0.86168300  1
  Si  Si55  1  0.62594150  0.03505150  0.63831700  1
  O  O56  1  0.40006050  0.32922550  0.86807700  1
  O  O57  1  0.99681000  0.96485100  0.57945200  1
  O  O58  1  0.57313350  0.49038650  0.02615800  1
  O  O59  1  0.59993950  0.67077450  0.13192300  1
  O  O60  1  0.07387900  0.33119900  0.61097800  1
  O  O61  1  0.73816450  0.62662650  0.09031800  1
  O  O62  1  0.91397100  0.63212100  0.54826400  1
  O  O63  1  0.79823050  0.40350150  0.18726400  1
  O  O64  1  0.65472450  0.02786350  0.20537600  1
  O  O65  1  0.26183550  0.37337350  0.90968200  1
  O  O66  1  0.57387900  0.16880100  0.11097800  1
  O  O67  1  0.42686650  0.50961350  0.97384200  1
  O  O68  1  0.81238100  0.44089200  0.49591300  1
  O  O69  1  0.23254050  0.86910550  0.90802600  1
  O  O70  1  0.16989800  0.49838600  0.60312000  1
  O  O71  1  0.42612100  0.83119900  0.88902200  1
  O  O72  1  0.15478100  0.49599300  0.39265600  1
  O  O73  1  0.18761900  0.55910800  0.50408700  1
  O  O74  1  0.99681000  0.03514900  0.07945200  1
  O  O75  1  0.07313350  0.00961350  0.52615800  1
  O  O76  1  0.76745950  0.13089450  0.09197400  1
  O  O77  1  0.00319000  0.03514900  0.42054800  1
  O  O78  1  0.89285250  0.13488950  0.56148300  1
  O  O79  1  0.15478100  0.50400700  0.89265600  1
  O  O80  1  0.66989800  0.00161400  0.10312000  1
  O  O81  1  0.76183550  0.12662650  0.40968200  1
  O  O82  1  0.10714750  0.86511050  0.43851700  1
  O  O83  1  0.70176950  0.90350150  0.31273600  1
  O  O84  1  0.84521900  0.49599300  0.10734400  1
  O  O85  1  0.00319000  0.96485100  0.92054800  1
  O  O86  1  0.68761900  0.94089200  0.00408700  1
  O  O87  1  0.90006050  0.17077450  0.36807700  1
  O  O88  1  0.10714750  0.13488950  0.93851700  1
  O  O89  1  0.89285250  0.86511050  0.06148300  1
  O  O90  1  0.75045650  0.76111250  0.23556100  1
  O  O91  1  0.08602900  0.63212100  0.95173600  1
  O  O92  1  0.20176950  0.59649850  0.81273600  1
  O  O93  1  0.26745950  0.36910550  0.59197400  1
  O  O94  1  0.91397100  0.36787900  0.04826400  1
  O  O95  1  0.92612100  0.66880100  0.38902200  1
  O  O96  1  0.73254050  0.63089450  0.40802600  1
  O  O97  1  0.15472450  0.47213650  0.70537600  1
  O  O98  1  0.33010200  0.99838600  0.89688000  1
  O  O99  1  0.23816450  0.87337350  0.59031800  1
  O  O100  1  0.29823050  0.09649850  0.68726400  1
  O  O101  1  0.74954350  0.26111250  0.26443900  1
  O  O102  1  0.84527550  0.52786350  0.29462400  1
  O  O103  1  0.92686650  0.99038650  0.47384200  1
  O  O104  1  0.83010200  0.50161400  0.39688000  1
  O  O105  1  0.08602900  0.36787900  0.45173600  1
  O  O106  1  0.34527550  0.97213650  0.79462400  1
  O  O107  1  0.84521900  0.50400700  0.60734400  1
  O  O108  1  0.09993950  0.82922550  0.63192300  1
  O  O109  1  0.25045650  0.73888750  0.73556100  1
  O  O110  1  0.31238100  0.05910800  0.99591300  1
  O  O111  1  0.24954350  0.23888750  0.76443900  1
  O  O112  1  0.90006050  0.82922550  0.86807700  1
  O  O113  1  0.49681000  0.46485100  0.57945200  1
  O  O114  1  0.07313350  0.99038650  0.02615800  1
  O  O115  1  0.09993950  0.17077450  0.13192300  1
  O  O116  1  0.57387900  0.83119900  0.61097800  1
  O  O117  1  0.23816450  0.12662650  0.09031800  1
  O  O118  1  0.41397100  0.13212100  0.54826400  1
  O  O119  1  0.29823050  0.90350150  0.18726400  1
  O  O120  1  0.15472450  0.52786350  0.20537600  1
  O  O121  1  0.76183550  0.87337350  0.90968200  1
  O  O122  1  0.07387900  0.66880100  0.11097800  1
  O  O123  1  0.92686650  0.00961350  0.97384200  1
  O  O124  1  0.31238100  0.94089200  0.49591300  1
  O  O125  1  0.73254050  0.36910550  0.90802600  1
  O  O126  1  0.66989800  0.99838600  0.60312000  1
  O  O127  1  0.92612100  0.33119900  0.88902200  1
  O  O128  1  0.65478100  0.99599300  0.39265600  1
  O  O129  1  0.68761900  0.05910800  0.50408700  1
  O  O130  1  0.49681000  0.53514900  0.07945200  1
  O  O131  1  0.57313350  0.50961350  0.52615800  1
  O  O132  1  0.26745950  0.63089450  0.09197400  1
  O  O133  1  0.50319000  0.53514900  0.42054800  1
  O  O134  1  0.39285250  0.63488950  0.56148300  1
  O  O135  1  0.65478100  0.00400700  0.89265600  1
  O  O136  1  0.16989800  0.50161400  0.10312000  1
  O  O137  1  0.26183550  0.62662650  0.40968200  1
  O  O138  1  0.60714750  0.36511050  0.43851700  1
  O  O139  1  0.20176950  0.40350150  0.31273600  1
  O  O140  1  0.34521900  0.99599300  0.10734400  1
  O  O141  1  0.50319000  0.46485100  0.92054800  1
  O  O142  1  0.18761900  0.44089200  0.00408700  1
  O  O143  1  0.40006050  0.67077450  0.36807700  1
  O  O144  1  0.60714750  0.63488950  0.93851700  1
  O  O145  1  0.39285250  0.36511050  0.06148300  1
  O  O146  1  0.25045650  0.26111250  0.23556100  1
  O  O147  1  0.58602900  0.13212100  0.95173600  1
  O  O148  1  0.70176950  0.09649850  0.81273600  1
  O  O149  1  0.76745950  0.86910550  0.59197400  1
  O  O150  1  0.41397100  0.86787900  0.04826400  1
  O  O151  1  0.42612100  0.16880100  0.38902200  1
  O  O152  1  0.23254050  0.13089450  0.40802600  1
  O  O153  1  0.65472450  0.97213650  0.70537600  1
  O  O154  1  0.83010200  0.49838600  0.89688000  1
  O  O155  1  0.73816450  0.37337350  0.59031800  1
  O  O156  1  0.79823050  0.59649850  0.68726400  1
  O  O157  1  0.24954350  0.76111250  0.26443900  1
  O  O158  1  0.34527550  0.02786350  0.29462400  1
  O  O159  1  0.42686650  0.49038650  0.47384200  1
  O  O160  1  0.33010200  0.00161400  0.39688000  1
  O  O161  1  0.58602900  0.86787900  0.45173600  1
  O  O162  1  0.84527550  0.47213650  0.79462400  1
  O  O163  1  0.34521900  0.00400700  0.60734400  1
  O  O164  1  0.59993950  0.32922550  0.63192300  1
  O  O165  1  0.75045650  0.23888750  0.73556100  1
  O  O166  1  0.81238100  0.55910800  0.99591300  1
  O  O167  1  0.74954350  0.73888750  0.76443900  1
