# generated using pymatgen
data_K2In12Se19
_symmetry_space_group_name_H-M   'P 1'
_cell_length_a   14.05803793
_cell_length_b   14.05803793
_cell_length_c   18.12028263
_cell_angle_alpha   90.00000000
_cell_angle_beta   90.00000000
_cell_angle_gamma   120.00000000
_symmetry_Int_Tables_number   1
_chemical_formula_structural   K2In12Se19
_chemical_formula_sum   'K6 In36 Se57'
_cell_volume   3101.30886631
_cell_formula_units_Z   3
loop_
 _symmetry_equiv_pos_site_id
 _symmetry_equiv_pos_as_xyz
  1  'x, y, z'
loop_
 _atom_site_type_symbol
 _atom_site_label
 _atom_site_symmetry_multiplicity
 _atom_site_fract_x
 _atom_site_fract_y
 _atom_site_fract_z
 _atom_site_occupancy
  K  K0  1  0.33333333  0.66666667  0.83121467  1
  K  K1  1  0.33333333  0.66666667  0.50211867  1
  K  K2  1  0.00000000  0.00000000  0.16454800  1
  K  K3  1  0.00000000  0.00000000  0.83545200  1
  K  K4  1  0.66666667  0.33333333  0.49788133  1
  K  K5  1  0.66666667  0.33333333  0.16878533  1
  In  In6  1  0.10819300  0.31517400  0.01627800  1
  In  In7  1  0.09296067  0.57261233  0.09315633  1
  In  In8  1  0.20698100  0.89180700  0.01627800  1
  In  In9  1  0.98184067  0.54031433  0.31705533  1
  In  In10  1  0.18701500  0.42629400  0.24017700  1
  In  In11  1  0.23927900  0.81298500  0.24017700  1
  In  In12  1  0.42738767  0.52034833  0.09315633  1
  In  In13  1  0.47965167  0.90703933  0.09315633  1
  In  In14  1  0.68482600  0.79301900  0.01627800  1
  In  In15  1  0.45968567  0.44152633  0.31705533  1
  In  In16  1  0.57370600  0.76072100  0.24017700  1
  In  In17  1  0.55847367  0.01815933  0.31705533  1
  In  In18  1  0.77485967  0.64850733  0.34961133  1
  In  In19  1  0.75962733  0.90594567  0.42648967  1
  In  In20  1  0.87364767  0.22514033  0.34961133  1
  In  In21  1  0.64850733  0.87364767  0.65038867  1
  In  In22  1  0.85368167  0.75962733  0.57351033  1
  In  In23  1  0.90594567  0.14631833  0.57351033  1
  In  In24  1  0.09405433  0.85368167  0.42648967  1
  In  In25  1  0.14631833  0.24037267  0.42648967  1
  In  In26  1  0.35149267  0.12635233  0.34961133  1
  In  In27  1  0.12635233  0.77485967  0.65038867  1
  In  In28  1  0.24037267  0.09405433  0.57351033  1
  In  In29  1  0.22514033  0.35149267  0.65038867  1
  In  In30  1  0.44152633  0.98184067  0.68294467  1
  In  In31  1  0.42629400  0.23927900  0.75982300  1
  In  In32  1  0.54031433  0.55847367  0.68294467  1
  In  In33  1  0.31517400  0.20698100  0.98372200  1
  In  In34  1  0.52034833  0.09296067  0.90684367  1
  In  In35  1  0.57261233  0.47965167  0.90684367  1
  In  In36  1  0.76072100  0.18701500  0.75982300  1
  In  In37  1  0.81298500  0.57370600  0.75982300  1
  In  In38  1  0.01815933  0.45968567  0.68294467  1
  In  In39  1  0.79301900  0.10819300  0.98372200  1
  In  In40  1  0.90703933  0.42738767  0.90684367  1
  In  In41  1  0.89180700  0.68482600  0.98372200  1
  Se  Se42  1  0.93396533  0.18436067  0.08963067  1
  Se  Se43  1  0.13310267  0.50602333  0.96947933  1
  Se  Se44  1  0.85102733  0.58372867  0.24370267  1
  Se  Se45  1  0.00907233  0.43065967  0.20336867  1
  Se  Se46  1  0.09732633  0.75492067  0.12996467  1
  Se  Se47  1  0.37292067  0.86689733  0.96947933  1
  Se  Se48  1  0.25039533  0.06603467  0.08963067  1
  Se  Se49  1  0.24507933  0.34240567  0.12996467  1
  Se  Se50  1  0.49397667  0.62707933  0.96947933  1
  Se  Se51  1  0.33333333  0.66666667  0.16666667  1
  Se  Se52  1  0.17269000  0.70625400  0.36385400  1
  Se  Se53  1  0.42158733  0.99092767  0.20336867  1
  Se  Se54  1  0.41627133  0.26729867  0.24370267  1
  Se  Se55  1  0.29374600  0.46643600  0.36385400  1
  Se  Se56  1  0.56934033  0.57841267  0.20336867  1
  Se  Se57  1  0.65759433  0.90267367  0.12996467  1
  Se  Se58  1  0.81563933  0.74960467  0.08963067  1
  Se  Se59  1  0.53356400  0.82731000  0.36385400  1
  Se  Se60  1  0.73270133  0.14897267  0.24370267  1
  Se  Se61  1  0.60063200  0.51769400  0.42296400  1
  Se  Se62  1  0.79976933  0.83935667  0.30281267  1
  Se  Se63  1  0.51769400  0.91706200  0.57703600  1
  Se  Se64  1  0.67573900  0.76399300  0.53670200  1
  Se  Se65  1  0.76399300  0.08825400  0.46329800  1
  Se  Se66  1  0.03958733  0.20023067  0.30281267  1
  Se  Se67  1  0.91706200  0.39936800  0.42296400  1
  Se  Se68  1  0.91174600  0.67573900  0.46329800  1
  Se  Se69  1  0.16064333  0.96041267  0.30281267  1
  Se  Se70  1  1.00000000  0.00000000  0.50000000  1
  Se  Se71  1  0.83935667  0.03958733  0.69718733  1
  Se  Se72  1  0.08825400  0.32426100  0.53670200  1
  Se  Se73  1  0.08293800  0.60063200  0.57703600  1
  Se  Se74  1  0.96041267  0.79976933  0.69718733  1
  Se  Se75  1  0.23600700  0.91174600  0.53670200  1
  Se  Se76  1  0.32426100  0.23600700  0.46329800  1
  Se  Se77  1  0.48230600  0.08293800  0.42296400  1
  Se  Se78  1  0.20023067  0.16064333  0.69718733  1
  Se  Se79  1  0.39936800  0.48230600  0.57703600  1
  Se  Se80  1  0.26729867  0.85102733  0.75629733  1
  Se  Se81  1  0.46643600  0.17269000  0.63614600  1
  Se  Se82  1  0.18436067  0.25039533  0.91036933  1
  Se  Se83  1  0.34240567  0.09732633  0.87003533  1
  Se  Se84  1  0.43065967  0.42158733  0.79663133  1
  Se  Se85  1  0.70625400  0.53356400  0.63614600  1
  Se  Se86  1  0.58372867  0.73270133  0.75629733  1
  Se  Se87  1  0.57841267  0.00907233  0.79663133  1
  Se  Se88  1  0.82731000  0.29374600  0.63614600  1
  Se  Se89  1  0.66666667  0.33333333  0.83333333  1
  Se  Se90  1  0.50602333  0.37292067  0.03052067  1
  Se  Se91  1  0.75492067  0.65759433  0.87003533  1
  Se  Se92  1  0.74960467  0.93396533  0.91036933  1
  Se  Se93  1  0.62707933  0.13310267  0.03052067  1
  Se  Se94  1  0.90267367  0.24507933  0.87003533  1
  Se  Se95  1  0.99092767  0.56934033  0.79663133  1
  Se  Se96  1  0.14897267  0.41627133  0.75629733  1
  Se  Se97  1  0.86689733  0.49397667  0.03052067  1
  Se  Se98  1  0.06603467  0.81563933  0.91036933  1
