# generated using pymatgen
data_K3Th2Cu3S7
_symmetry_space_group_name_H-M   'P 1'
_cell_length_a   4.06779800
_cell_length_b   14.26243800
_cell_length_c   24.75949000
_cell_angle_alpha   90.00000000
_cell_angle_beta   90.00000000
_cell_angle_gamma   90.00000000
_symmetry_Int_Tables_number   1
_chemical_formula_structural   K3Th2Cu3S7
_chemical_formula_sum   'K12 Th8 Cu12 S28'
_cell_volume   1436.46431874
_cell_formula_units_Z   4
loop_
 _symmetry_equiv_pos_site_id
 _symmetry_equiv_pos_as_xyz
  1  'x, y, z'
loop_
 _atom_site_type_symbol
 _atom_site_label
 _atom_site_symmetry_multiplicity
 _atom_site_fract_x
 _atom_site_fract_y
 _atom_site_fract_z
 _atom_site_occupancy
  K  K0  1  0.50000000  0.45383000  0.56223400  1
  K  K1  1  0.50000000  0.45383000  0.93776600  1
  K  K2  1  0.00000000  0.04617000  0.06223400  1
  K  K3  1  0.00000000  0.43086200  0.75000000  1
  K  K4  1  0.00000000  0.04617000  0.43776600  1
  K  K5  1  0.50000000  0.06913800  0.25000000  1
  K  K6  1  0.00000000  0.95383000  0.56223400  1
  K  K7  1  0.00000000  0.95383000  0.93776600  1
  K  K8  1  0.50000000  0.54617000  0.06223400  1
  K  K9  1  0.50000000  0.93086200  0.75000000  1
  K  K10  1  0.50000000  0.54617000  0.43776600  1
  K  K11  1  0.00000000  0.56913800  0.25000000  1
  Th  Th12  1  0.50000000  0.19078600  0.85806800  1
  Th  Th13  1  0.00000000  0.30921400  0.14193200  1
  Th  Th14  1  0.00000000  0.30921400  0.35806800  1
  Th  Th15  1  0.50000000  0.19078600  0.64193200  1
  Th  Th16  1  0.00000000  0.69078600  0.85806800  1
  Th  Th17  1  0.50000000  0.80921400  0.14193200  1
  Th  Th18  1  0.50000000  0.80921400  0.35806800  1
  Th  Th19  1  0.00000000  0.69078600  0.64193200  1
  Cu  Cu20  1  0.00000000  0.23672500  0.96235800  1
  Cu  Cu21  1  0.00000000  0.23672500  0.53764200  1
  Cu  Cu22  1  0.00000000  0.15941000  0.75000000  1
  Cu  Cu23  1  0.50000000  0.26327500  0.46235800  1
  Cu  Cu24  1  0.50000000  0.34059000  0.25000000  1
  Cu  Cu25  1  0.50000000  0.26327500  0.03764200  1
  Cu  Cu26  1  0.50000000  0.73672500  0.96235800  1
  Cu  Cu27  1  0.50000000  0.73672500  0.53764200  1
  Cu  Cu28  1  0.50000000  0.65941000  0.75000000  1
  Cu  Cu29  1  0.00000000  0.76327500  0.46235800  1
  Cu  Cu30  1  0.00000000  0.84059000  0.25000000  1
  Cu  Cu31  1  0.00000000  0.76327500  0.03764200  1
  S  S32  1  0.00000000  0.24877000  0.25000000  1
  S  S33  1  0.50000000  0.14259500  0.53255500  1
  S  S34  1  0.00000000  0.06661100  0.82736600  1
  S  S35  1  0.00000000  0.31751100  0.88000400  1
  S  S36  1  0.00000000  0.31751100  0.61999600  1
  S  S37  1  0.50000000  0.18248900  0.11999600  1
  S  S38  1  0.50000000  0.25123000  0.75000000  1
  S  S39  1  0.50000000  0.18248900  0.38000400  1
  S  S40  1  0.50000000  0.43338900  0.32736600  1
  S  S41  1  0.50000000  0.43338900  0.17263400  1
  S  S42  1  0.00000000  0.35740500  0.46744500  1
  S  S43  1  0.00000000  0.06661100  0.67263400  1
  S  S44  1  0.00000000  0.35740500  0.03255500  1
  S  S45  1  0.50000000  0.14259500  0.96744500  1
  S  S46  1  0.50000000  0.74877000  0.25000000  1
  S  S47  1  0.00000000  0.64259500  0.53255500  1
  S  S48  1  0.50000000  0.56661100  0.82736600  1
  S  S49  1  0.50000000  0.81751100  0.88000400  1
  S  S50  1  0.50000000  0.81751100  0.61999600  1
  S  S51  1  0.00000000  0.68248900  0.11999600  1
  S  S52  1  0.00000000  0.75123000  0.75000000  1
  S  S53  1  0.00000000  0.68248900  0.38000400  1
  S  S54  1  0.00000000  0.93338900  0.32736600  1
  S  S55  1  0.00000000  0.93338900  0.17263400  1
  S  S56  1  0.50000000  0.85740500  0.46744500  1
  S  S57  1  0.50000000  0.56661100  0.67263400  1
  S  S58  1  0.50000000  0.85740500  0.03255500  1
  S  S59  1  0.00000000  0.64259500  0.96744500  1
