# generated using pymatgen
data_NaAlSiO4
_symmetry_space_group_name_H-M   'P 1'
_cell_length_a   10.10035817
_cell_length_b   10.10035817
_cell_length_c   25.07005500
_cell_angle_alpha   90.00000000
_cell_angle_beta   90.00000000
_cell_angle_gamma   120.00000000
_symmetry_Int_Tables_number   1
_chemical_formula_structural   NaAlSiO4
_chemical_formula_sum   'Na24 Al24 Si24 O96'
_cell_volume   2214.92725579
_cell_formula_units_Z   24
loop_
 _symmetry_equiv_pos_site_id
 _symmetry_equiv_pos_as_xyz
  1  'x, y, z'
loop_
 _atom_site_type_symbol
 _atom_site_label
 _atom_site_symmetry_multiplicity
 _atom_site_fract_x
 _atom_site_fract_y
 _atom_site_fract_z
 _atom_site_occupancy
  Na  Na0  1  0.56469300  0.54395700  0.86906833  1
  Na  Na1  1  0.55799100  0.03147800  0.36360333  1
  Na  Na2  1  0.96046300  0.51799200  0.35297733  1
  Na  Na3  1  0.01498400  0.01054000  0.86135133  1
  Na  Na4  1  0.45604300  0.02073600  0.20240167  1
  Na  Na5  1  0.55752900  0.03953700  0.01964400  1
  Na  Na6  1  0.96852200  0.52651300  0.69693667  1
  Na  Na7  1  0.43530700  0.45604300  0.36906833  1
  Na  Na8  1  0.47348700  0.44200900  0.03027000  1
  Na  Na9  1  0.48200800  0.44247100  0.68631067  1
  Na  Na10  1  0.03147800  0.47348700  0.19693667  1
  Na  Na11  1  0.52651300  0.55799100  0.53027000  1
  Na  Na12  1  0.97926400  0.43530700  0.53573500  1
  Na  Na13  1  0.02073600  0.56469300  0.03573500  1
  Na  Na14  1  0.98501600  0.98946000  0.36135133  1
  Na  Na15  1  0.03953700  0.48200800  0.85297733  1
  Na  Na16  1  0.44247100  0.96046300  0.51964400  1
  Na  Na17  1  0.51799200  0.55752900  0.18631067  1
  Na  Na18  1  0.00444400  0.01498400  0.02801800  1
  Na  Na19  1  0.99555600  0.98501600  0.52801800  1
  Na  Na20  1  0.01054000  0.99555600  0.69468467  1
  Na  Na21  1  0.54395700  0.97926400  0.70240167  1
  Na  Na22  1  0.98946000  0.00444400  0.19468467  1
  Na  Na23  1  0.44200900  0.96852200  0.86360333  1
  Al  Al24  1  0.88084900  0.24554800  0.09183733  1
  Al  Al25  1  0.89685100  0.18891500  0.76208933  1
  Al  Al26  1  0.67322800  0.90192000  0.58657033  1
  Al  Al27  1  0.22869200  0.32677200  0.25323700  1
  Al  Al28  1  0.24554800  0.36469900  0.92517067  1
  Al  Al29  1  0.31426600  0.66951800  0.75725133  1
  Al  Al30  1  0.90192000  0.22869200  0.41990367  1
  Al  Al31  1  0.35525200  0.68573400  0.42391800  1
  Al  Al32  1  0.77130800  0.67322800  0.75323700  1
  Al  Al33  1  0.68573400  0.33048200  0.25725133  1
  Al  Al34  1  0.29206400  0.10314900  0.42875600  1
  Al  Al35  1  0.10314900  0.81108500  0.26208933  1
  Al  Al36  1  0.75445200  0.63530100  0.42517067  1
  Al  Al37  1  0.81108500  0.70793600  0.09542267  1
  Al  Al38  1  0.33048200  0.64474800  0.09058467  1
  Al  Al39  1  0.18891500  0.29206400  0.59542267  1
  Al  Al40  1  0.70793600  0.89685100  0.92875600  1
  Al  Al41  1  0.32677200  0.09808000  0.08657033  1
  Al  Al42  1  0.64474800  0.31426600  0.92391800  1
  Al  Al43  1  0.09808000  0.77130800  0.91990367  1
  Al  Al44  1  0.36469900  0.11915100  0.75850400  1
  Al  Al45  1  0.66951800  0.35525200  0.59058467  1
  Al  Al46  1  0.63530100  0.88084900  0.25850400  1
  Al  Al47  1  0.11915100  0.75445200  0.59183733  1
  Si  Si48  1  0.64453200  0.86631200  0.80252533  1
  Si  Si49  1  0.63629600  0.29785400  0.46272333  1
  Si  Si50  1  0.66155800  0.36370400  0.12939000  1
  Si  Si51  1  0.91254900  0.23644900  0.96514233  1
  Si  Si52  1  0.23644900  0.32390000  0.79847567  1
  Si  Si53  1  0.89846700  0.20203600  0.29462933  1
  Si  Si54  1  0.79796400  0.69643100  0.62796267  1
  Si  Si55  1  0.08745100  0.76355100  0.46514233  1
  Si  Si56  1  0.10153300  0.79796400  0.79462933  1
  Si  Si57  1  0.32390000  0.08745100  0.63180900  1
  Si  Si58  1  0.13368800  0.77822000  0.13585867  1
  Si  Si59  1  0.70214600  0.33844200  0.79605667  1
  Si  Si60  1  0.29785400  0.66155800  0.29605667  1
  Si  Si61  1  0.20203600  0.30356900  0.12796267  1
  Si  Si62  1  0.36370400  0.70214600  0.96272333  1
  Si  Si63  1  0.35546800  0.13368800  0.30252533  1
  Si  Si64  1  0.67610000  0.91254900  0.13180900  1
  Si  Si65  1  0.77822000  0.64453200  0.96919200  1
  Si  Si66  1  0.30356900  0.10153300  0.96129600  1
  Si  Si67  1  0.69643100  0.89846700  0.46129600  1
  Si  Si68  1  0.86631200  0.22178000  0.63585867  1
  Si  Si69  1  0.22178000  0.35546800  0.46919200  1
  Si  Si70  1  0.33844200  0.63629600  0.62939000  1
  Si  Si71  1  0.76355100  0.67610000  0.29847567  1
  O  O72  1  0.97230100  0.72722000  0.63654133  1
  O  O73  1  0.69863600  0.32264200  0.52407833  1
  O  O74  1  0.62250200  0.44437300  0.44176133  1
  O  O75  1  0.03547600  0.72271900  0.85346233  1
  O  O76  1  0.30353100  0.05721000  0.36175033  1
  O  O77  1  0.34163700  0.28847700  0.29707933  1
  O  O78  1  0.30136400  0.67735800  0.02407833  1
  O  O79  1  0.71152300  0.05316000  0.63041267  1
  O  O80  1  0.84258100  0.03326300  0.42863033  1
  O  O81  1  0.53453900  0.17947300  0.29300933  1
  O  O82  1  0.37599400  0.69863600  0.69074500  1
  O  O83  1  0.82187100  0.37749800  0.10842800  1
  O  O84  1  0.14564500  0.68073500  0.29320333  1
  O  O85  1  0.80849300  0.86274200  0.12741233  1
  O  O86  1  0.31275700  0.03547600  0.02012900  1
  O  O87  1  0.31926500  0.46491000  0.62653667  1
  O  O88  1  0.94684000  0.65836300  0.96374600  1
  O  O89  1  0.85435500  0.31926500  0.79320333  1
  O  O90  1  0.31435400  0.46287700  0.09640633  1
  O  O91  1  0.80931800  0.84258100  0.59529700  1
  O  O92  1  0.75637500  0.75155500  0.92490933  1
  O  O93  1  0.44437300  0.82187100  0.27509467  1
  O  O94  1  0.96096600  0.29115200  0.02718433  1
  O  O95  1  0.35506600  0.53453900  0.45967600  1
  O  O96  1  0.46491000  0.14564500  0.45987000  1
  O  O97  1  0.24632100  0.30353100  0.52841700  1
  O  O98  1  0.86274200  0.05424900  0.96074567  1
  O  O99  1  0.68724300  0.96452400  0.52012900  1
  O  O100  1  0.24879900  0.73191100  0.92471033  1
  O  O101  1  0.74169200  0.51071100  0.28270033  1
  O  O102  1  0.73191100  0.48311200  0.75804367  1
  O  O103  1  0.75120100  0.26808900  0.42471033  1
  O  O104  1  0.32264200  0.62400600  0.35741167  1
  O  O105  1  0.48311200  0.75120100  0.59137700  1
  O  O106  1  0.17812900  0.62250200  0.60842800  1
  O  O107  1  0.05835800  0.33675100  0.92549033  1
  O  O108  1  0.85147700  0.31435400  0.26307300  1
  O  O109  1  0.96452400  0.27728100  0.35346233  1
  O  O110  1  0.05424900  0.19150700  0.79407900  1
  O  O111  1  0.53712300  0.85147700  0.42973967  1
  O  O112  1  0.33018600  0.03903400  0.69385100  1
  O  O113  1  0.51688800  0.24879900  0.09137700  1
  O  O114  1  0.72722000  0.75491900  0.46987467  1
  O  O115  1  0.46546100  0.82052700  0.79300933  1
  O  O116  1  0.62400600  0.30136400  0.19074500  1
  O  O117  1  0.68564600  0.53712300  0.59640633  1
  O  O118  1  0.02769900  0.27278000  0.13654133  1
  O  O119  1  0.19150700  0.13725800  0.62741233  1
  O  O120  1  0.46287700  0.14852300  0.92973967  1
  O  O121  1  0.72160700  0.05835800  0.09215700  1
  O  O122  1  0.75155500  0.99518000  0.75824267  1
  O  O123  1  0.94279000  0.24632100  0.69508367  1
  O  O124  1  0.66981400  0.96096600  0.19385100  1
  O  O125  1  0.24362500  0.24844500  0.42490933  1
  O  O126  1  0.37749800  0.55562700  0.94176133  1
  O  O127  1  0.66324900  0.72160700  0.25882367  1
  O  O128  1  0.17947300  0.64493400  0.12634267  1
  O  O129  1  0.76901900  0.25830800  0.94936700  1
  O  O130  1  0.68073500  0.53509000  0.12653667  1
  O  O131  1  0.27278000  0.24508100  0.96987467  1
  O  O132  1  0.03326300  0.19068200  0.26196367  1
  O  O133  1  0.03903400  0.70884800  0.52718433  1
  O  O134  1  0.51071100  0.76901900  0.11603367  1
  O  O135  1  0.82052700  0.35506600  0.62634267  1
  O  O136  1  0.28847700  0.94684000  0.13041267  1
  O  O137  1  0.15741900  0.96673700  0.92863033  1
  O  O138  1  0.14852300  0.68564600  0.76307300  1
  O  O139  1  0.53509000  0.85435500  0.95987000  1
  O  O140  1  0.33675100  0.27839300  0.75882367  1
  O  O141  1  0.23098100  0.74169200  0.44936700  1
  O  O142  1  0.25830800  0.48928900  0.78270033  1
  O  O143  1  0.19068200  0.15741900  0.09529700  1
  O  O144  1  0.75367900  0.69646900  0.02841700  1
  O  O145  1  0.27728100  0.31275700  0.18679567  1
  O  O146  1  0.27839300  0.94164200  0.59215700  1
  O  O147  1  0.99518000  0.24362500  0.59157600  1
  O  O148  1  0.05721000  0.75367900  0.19508367  1
  O  O149  1  0.96673700  0.80931800  0.76196367  1
  O  O150  1  0.24508100  0.97230100  0.80320800  1
  O  O151  1  0.48928900  0.23098100  0.61603367  1
  O  O152  1  0.94575100  0.80849300  0.29407900  1
  O  O153  1  0.64493400  0.46546100  0.95967600  1
  O  O154  1  0.00482000  0.75637500  0.09157600  1
  O  O155  1  0.05316000  0.34163700  0.46374600  1
  O  O156  1  0.55562700  0.17812900  0.77509467  1
  O  O157  1  0.72271900  0.68724300  0.68679567  1
  O  O158  1  0.70884800  0.66981400  0.36051767  1
  O  O159  1  0.67735800  0.37599400  0.85741167  1
  O  O160  1  0.24844500  0.00482000  0.25824267  1
  O  O161  1  0.29115200  0.33018600  0.86051767  1
  O  O162  1  0.75491900  0.02769900  0.30320800  1
  O  O163  1  0.13725800  0.94575100  0.46074567  1
  O  O164  1  0.65836300  0.71152300  0.79707933  1
  O  O165  1  0.94164200  0.66324900  0.42549033  1
  O  O166  1  0.69646900  0.94279000  0.86175033  1
  O  O167  1  0.26808900  0.51688800  0.25804367  1
