# generated using pymatgen
data_Sr(H8O5)2
_symmetry_space_group_name_H-M   'P 1'
_cell_length_a   8.93432200
_cell_length_b   8.96423400
_cell_length_c   11.20171539
_cell_angle_alpha   90.00000000
_cell_angle_beta   90.32062477
_cell_angle_gamma   90.00000000
_symmetry_Int_Tables_number   1
_chemical_formula_structural   Sr(H8O5)2
_chemical_formula_sum   'Sr4 H64 O40'
_cell_volume   897.12409164
_cell_formula_units_Z   4
loop_
 _symmetry_equiv_pos_site_id
 _symmetry_equiv_pos_as_xyz
  1  'x, y, z'
loop_
 _atom_site_type_symbol
 _atom_site_label
 _atom_site_symmetry_multiplicity
 _atom_site_fract_x
 _atom_site_fract_y
 _atom_site_fract_z
 _atom_site_occupancy
  Sr  Sr0  1  0.50035350  0.49804450  0.74836200  1
  Sr  Sr1  1  0.50035350  0.50195550  0.24836200  1
  Sr  Sr2  1  0.00035350  0.99804450  0.74836200  1
  Sr  Sr3  1  0.00035350  0.00195550  0.24836200  1
  H  H4  1  0.24307950  0.79199750  0.62651000  1
  H  H5  1  0.33373450  0.94434350  0.64505300  1
  H  H6  1  0.66693350  0.05743650  0.64511500  1
  H  H7  1  0.77345050  0.08650450  0.53240100  1
  H  H8  1  0.44446200  0.16574000  0.64481400  1
  H  H9  1  0.29323200  0.25790600  0.62536500  1
  H  H10  1  0.55826250  0.83362650  0.64460900  1
  H  H11  1  0.58613050  0.72639650  0.53279000  1
  H  H12  1  0.55826250  0.16637350  0.14460900  1
  H  H13  1  0.58613050  0.27360350  0.03279000  1
  H  H14  1  0.29323200  0.74209400  0.12536500  1
  H  H15  1  0.44446200  0.83426000  0.14481400  1
  H  H16  1  0.24307950  0.20800250  0.12651000  1
  H  H17  1  0.33373450  0.05565650  0.14505300  1
  H  H18  1  0.66693350  0.94256350  0.14511500  1
  H  H19  1  0.77345050  0.91349550  0.03240100  1
  H  H20  1  0.66602400  0.05658600  0.35369100  1
  H  H21  1  0.75680400  0.20820000  0.37323600  1
  H  H22  1  0.33346950  0.94372350  0.35436800  1
  H  H23  1  0.22690500  0.91371300  0.46732200  1
  H  H24  1  0.55484500  0.83420400  0.35391900  1
  H  H25  1  0.70625200  0.74389600  0.37304000  1
  H  H26  1  0.43871100  0.17616700  0.34410600  1
  H  H27  1  0.41443550  0.27110350  0.46267500  1
  H  H28  1  0.43871100  0.82383300  0.84410600  1
  H  H29  1  0.41443550  0.72889650  0.96267500  1
  H  H30  1  0.70625200  0.25610400  0.87304000  1
  H  H31  1  0.55484500  0.16579600  0.85391900  1
  H  H32  1  0.75680400  0.79180000  0.87323600  1
  H  H33  1  0.66602400  0.94341400  0.85369100  1
  H  H34  1  0.33346950  0.05627650  0.85436800  1
  H  H35  1  0.22690500  0.08628700  0.96732200  1
  H  H36  1  0.74307950  0.29199750  0.62651000  1
  H  H37  1  0.83373450  0.44434350  0.64505300  1
  H  H38  1  0.16693350  0.55743650  0.64511500  1
  H  H39  1  0.27345050  0.58650450  0.53240100  1
  H  H40  1  0.94446200  0.66574000  0.64481400  1
  H  H41  1  0.79323200  0.75790600  0.62536500  1
  H  H42  1  0.05826250  0.33362650  0.64460900  1
  H  H43  1  0.08613050  0.22639650  0.53279000  1
  H  H44  1  0.05826250  0.66637350  0.14460900  1
  H  H45  1  0.08613050  0.77360350  0.03279000  1
  H  H46  1  0.79323200  0.24209400  0.12536500  1
  H  H47  1  0.94446200  0.33426000  0.14481400  1
  H  H48  1  0.74307950  0.70800250  0.12651000  1
  H  H49  1  0.83373450  0.55565650  0.14505300  1
  H  H50  1  0.16693350  0.44256350  0.14511500  1
  H  H51  1  0.27345050  0.41349550  0.03240100  1
  H  H52  1  0.16602400  0.55658600  0.35369100  1
  H  H53  1  0.25680400  0.70820000  0.37323600  1
  H  H54  1  0.83346950  0.44372350  0.35436800  1
  H  H55  1  0.72690500  0.41371300  0.46732200  1
  H  H56  1  0.05484500  0.33420400  0.35391900  1
  H  H57  1  0.20625200  0.24389600  0.37304000  1
  H  H58  1  0.93871100  0.67616700  0.34410600  1
  H  H59  1  0.91443550  0.77110350  0.46267500  1
  H  H60  1  0.93871100  0.32383300  0.84410600  1
  H  H61  1  0.91443550  0.22889650  0.96267500  1
  H  H62  1  0.20625200  0.75610400  0.87304000  1
  H  H63  1  0.05484500  0.66579600  0.85391900  1
  H  H64  1  0.25680400  0.29180000  0.87323600  1
  H  H65  1  0.16602400  0.44341400  0.85369100  1
  H  H66  1  0.83346950  0.55627650  0.85436800  1
  H  H67  1  0.72690500  0.58628700  0.96732200  1
  O  O68  1  0.49930350  0.00213550  0.68130100  1
  O  O69  1  0.49930350  0.99786450  0.18130100  1
  O  O70  1  0.49990600  0.00144400  0.31499900  1
  O  O71  1  0.49990600  0.99855600  0.81499900  1
  O  O72  1  0.23078150  0.90305050  0.62142500  1
  O  O73  1  0.76899800  0.09877300  0.62168100  1
  O  O74  1  0.40448900  0.26772900  0.61775400  1
  O  O75  1  0.59888750  0.73129550  0.62199600  1
  O  O76  1  0.59888750  0.26870450  0.12199600  1
  O  O77  1  0.40448900  0.73227100  0.11775400  1
  O  O78  1  0.23078150  0.09694950  0.12142500  1
  O  O79  1  0.76899800  0.90122700  0.12168100  1
  O  O80  1  0.76875600  0.09722800  0.37862800  1
  O  O81  1  0.23154500  0.90209300  0.37811100  1
  O  O82  1  0.59504950  0.73188150  0.37900100  1
  O  O83  1  0.39788200  0.27468000  0.37352000  1
  O  O84  1  0.39788200  0.72532000  0.87352000  1
  O  O85  1  0.59504950  0.26811850  0.87900100  1
  O  O86  1  0.76875600  0.90277200  0.87862800  1
  O  O87  1  0.23154500  0.09790700  0.87811100  1
  O  O88  1  0.99930350  0.50213550  0.68130100  1
  O  O89  1  0.99930350  0.49786450  0.18130100  1
  O  O90  1  0.99990600  0.50144400  0.31499900  1
  O  O91  1  0.99990600  0.49855600  0.81499900  1
  O  O92  1  0.73078150  0.40305050  0.62142500  1
  O  O93  1  0.26899800  0.59877300  0.62168100  1
  O  O94  1  0.90448900  0.76772900  0.61775400  1
  O  O95  1  0.09888750  0.23129550  0.62199600  1
  O  O96  1  0.09888750  0.76870450  0.12199600  1
  O  O97  1  0.90448900  0.23227100  0.11775400  1
  O  O98  1  0.73078150  0.59694950  0.12142500  1
  O  O99  1  0.26899800  0.40122700  0.12168100  1
  O  O100  1  0.26875600  0.59722800  0.37862800  1
  O  O101  1  0.73154500  0.40209300  0.37811100  1
  O  O102  1  0.09504950  0.23188150  0.37900100  1
  O  O103  1  0.89788200  0.77468000  0.37352000  1
  O  O104  1  0.89788200  0.22532000  0.87352000  1
  O  O105  1  0.09504950  0.76811850  0.87900100  1
  O  O106  1  0.26875600  0.40277200  0.87862800  1
  O  O107  1  0.73154500  0.59790700  0.87811100  1
