# generated using pymatgen
data_HoAgSe2
_symmetry_space_group_name_H-M   'P 1'
_cell_length_a   13.37582515
_cell_length_b   5.70441727
_cell_length_c   5.70784464
_cell_angle_alpha   90.00000000
_cell_angle_beta   115.23327077
_cell_angle_gamma   90.00000000
_symmetry_Int_Tables_number   1
_chemical_formula_structural   HoAgSe2
_chemical_formula_sum   'Ho4 Ag4 Se8'
_cell_volume   393.95882177
_cell_formula_units_Z   4
loop_
 _symmetry_equiv_pos_site_id
 _symmetry_equiv_pos_as_xyz
  1  'x, y, z'
loop_
 _atom_site_type_symbol
 _atom_site_label
 _atom_site_symmetry_multiplicity
 _atom_site_fract_x
 _atom_site_fract_y
 _atom_site_fract_z
 _atom_site_occupancy
  Ho  Ho0  1  0.00058181  0.00000000  0.99339154  1
  Ho  Ho1  1  0.75030276  0.50000000  0.74295414  1
  Ho  Ho2  1  0.50058181  0.50000000  0.99339154  1
  Ho  Ho3  1  0.25030276  0.00000000  0.74295414  1
  Ag  Ag4  1  0.75084547  0.00000000  0.24665812  1
  Ag  Ag5  1  0.50252472  0.00000000  0.50807973  1
  Ag  Ag6  1  0.25084547  0.50000000  0.24665812  1
  Ag  Ag7  1  0.00252472  0.50000000  0.50807973  1
  Se  Se8  1  0.51408193  0.50000000  0.50823930  1
  Se  Se9  1  0.98701445  0.50000000  0.98789648  1
  Se  Se10  1  0.76443553  0.00000000  0.75882799  1
  Se  Se11  1  0.73690427  0.50000000  0.23008672  1
  Se  Se12  1  0.01408193  0.00000000  0.50823930  1
  Se  Se13  1  0.48701445  0.00000000  0.98789648  1
  Se  Se14  1  0.26443553  0.50000000  0.75882799  1
  Se  Se15  1  0.23690427  0.00000000  0.23008672  1
