# generated using pymatgen
data_MgIn2O4
_symmetry_space_group_name_H-M   'P 1'
_cell_length_a   6.32811600
_cell_length_b   6.43755400
_cell_length_c   8.96412000
_cell_angle_alpha   90.00000000
_cell_angle_beta   90.00000000
_cell_angle_gamma   90.00000000
_symmetry_Int_Tables_number   1
_chemical_formula_structural   MgIn2O4
_chemical_formula_sum   'Mg4 In8 O16'
_cell_volume   365.17663154
_cell_formula_units_Z   4
loop_
 _symmetry_equiv_pos_site_id
 _symmetry_equiv_pos_as_xyz
  1  'x, y, z'
loop_
 _atom_site_type_symbol
 _atom_site_label
 _atom_site_symmetry_multiplicity
 _atom_site_fract_x
 _atom_site_fract_y
 _atom_site_fract_z
 _atom_site_occupancy
  Mg  Mg0  1  0.25000000  0.25000000  0.25000000  1
  Mg  Mg1  1  0.75000000  0.25000000  0.25000000  1
  Mg  Mg2  1  0.75000000  0.75000000  0.75000000  1
  Mg  Mg3  1  0.25000000  0.75000000  0.75000000  1
  In  In4  1  0.50000000  0.25000000  0.63065300  1
  In  In5  1  0.50000000  0.75000000  0.36934700  1
  In  In6  1  0.50000000  0.00000000  0.00000000  1
  In  In7  1  0.00000000  0.00000000  0.50000000  1
  In  In8  1  0.00000000  0.75000000  0.13065300  1
  In  In9  1  0.00000000  0.25000000  0.86934700  1
  In  In10  1  0.00000000  0.50000000  0.50000000  1
  In  In11  1  0.50000000  0.50000000  0.00000000  1
  O  O12  1  0.50000000  0.02432400  0.24289000  1
  O  O13  1  0.00000000  0.97567600  0.74289000  1
  O  O14  1  0.76383050  0.75000000  0.51272350  1
  O  O15  1  0.76383050  0.25000000  0.48727650  1
  O  O16  1  0.23616950  0.75000000  0.51272350  1
  O  O17  1  0.23616950  0.25000000  0.48727650  1
  O  O18  1  0.00000000  0.02432400  0.25711000  1
  O  O19  1  0.50000000  0.97567600  0.75711000  1
  O  O20  1  0.00000000  0.52432400  0.74289000  1
  O  O21  1  0.50000000  0.47567600  0.24289000  1
  O  O22  1  0.26383050  0.25000000  0.01272350  1
  O  O23  1  0.26383050  0.75000000  0.98727650  1
  O  O24  1  0.73616950  0.25000000  0.01272350  1
  O  O25  1  0.73616950  0.75000000  0.98727650  1
  O  O26  1  0.50000000  0.52432400  0.75711000  1
  O  O27  1  0.00000000  0.47567600  0.25711000  1
