# generated using pymatgen
data_LiSb(PO3)4
_symmetry_space_group_name_H-M   'P 1'
_cell_length_a   7.07222000
_cell_length_b   8.60659800
_cell_length_c   7.85561909
_cell_angle_alpha   90.00000000
_cell_angle_beta   91.09214485
_cell_angle_gamma   90.00000000
_symmetry_Int_Tables_number   1
_chemical_formula_structural   LiSb(PO3)4
_chemical_formula_sum   'Li2 Sb2 P8 O24'
_cell_volume   478.06703051
_cell_formula_units_Z   2
loop_
 _symmetry_equiv_pos_site_id
 _symmetry_equiv_pos_as_xyz
  1  'x, y, z'
loop_
 _atom_site_type_symbol
 _atom_site_label
 _atom_site_symmetry_multiplicity
 _atom_site_fract_x
 _atom_site_fract_y
 _atom_site_fract_z
 _atom_site_occupancy
  Li  Li0  1  0.28650500  0.59563100  0.65206600  1
  Li  Li1  1  0.71349500  0.09563100  0.34793400  1
  Sb  Sb2  1  0.75852400  0.77213400  0.77064300  1
  Sb  Sb3  1  0.24147600  0.27213400  0.22935700  1
  P  P4  1  0.56620000  0.12599000  0.90556500  1
  P  P5  1  0.39255700  0.99141700  0.59307000  1
  P  P6  1  0.00879300  0.60234000  0.39637000  1
  P  P7  1  0.99120700  0.10234000  0.60363000  1
  P  P8  1  0.43380000  0.62599000  0.09443500  1
  P  P9  1  0.08731400  0.82710800  0.10748500  1
  P  P10  1  0.91268600  0.32710800  0.89251500  1
  P  P11  1  0.60744300  0.49141700  0.40693000  1
  O  O12  1  0.17009300  0.99152600  0.62328800  1
  O  O13  1  0.97930100  0.30040300  0.07505200  1
  O  O14  1  0.93794600  0.48064600  0.81033800  1
  O  O15  1  0.54493100  0.33480800  0.33973600  1
  O  O16  1  0.06205400  0.98064600  0.18966200  1
  O  O17  1  0.57657700  0.65328000  0.95868400  1
  O  O18  1  0.42342300  0.15328000  0.04131600  1
  O  O19  1  0.45506900  0.83480800  0.66026400  1
  O  O20  1  0.69033100  0.28031300  0.88624800  1
  O  O21  1  0.53827600  0.62801700  0.27742600  1
  O  O22  1  0.31364900  0.48222500  0.06862300  1
  O  O23  1  0.02069900  0.80040300  0.92494800  1
  O  O24  1  0.56013000  0.53966200  0.58366400  1
  O  O25  1  0.18252000  0.49941000  0.40265700  1
  O  O26  1  0.30966900  0.78031300  0.11375200  1
  O  O27  1  0.46172400  0.12801700  0.72257400  1
  O  O28  1  0.00001400  0.70927000  0.54633000  1
  O  O29  1  0.99998600  0.20927000  0.45367000  1
  O  O30  1  0.01094700  0.19032200  0.78340300  1
  O  O31  1  0.98905300  0.69032200  0.21659700  1
  O  O32  1  0.68635100  0.98222500  0.93137700  1
  O  O33  1  0.82990700  0.49152600  0.37671200  1
  O  O34  1  0.81748000  0.99941000  0.59734300  1
  O  O35  1  0.43987000  0.03966200  0.41633600  1
