# generated using pymatgen
data_Na3CaFe4(SiO3)8
_symmetry_space_group_name_H-M   'P 1'
_cell_length_a   12.44064400
_cell_length_b   9.18712600
_cell_length_c   10.89162683
_cell_angle_alpha   90.00000000
_cell_angle_beta   123.91365551
_cell_angle_gamma   90.00000000
_symmetry_Int_Tables_number   1
_chemical_formula_structural   Na3CaFe4(SiO3)8
_chemical_formula_sum   'Na6 Ca2 Fe8 Si16 O48'
_cell_volume   1033.07115878
_cell_formula_units_Z   2
loop_
 _symmetry_equiv_pos_site_id
 _symmetry_equiv_pos_as_xyz
  1  'x, y, z'
loop_
 _atom_site_type_symbol
 _atom_site_label
 _atom_site_symmetry_multiplicity
 _atom_site_fract_x
 _atom_site_fract_y
 _atom_site_fract_z
 _atom_site_occupancy
  Na  Na0  1  0.76371350  0.84164350  0.75560500  1
  Na  Na1  1  0.23628650  0.84164350  0.24439500  1
  Na  Na2  1  0.00000000  0.42146800  0.00000000  1
  Na  Na3  1  0.26371350  0.34164350  0.75560500  1
  Na  Na4  1  0.73628650  0.34164350  0.24439500  1
  Na  Na5  1  0.50000000  0.92146800  0.00000000  1
  Ca  Ca6  1  0.00000000  0.89341400  0.50000000  1
  Ca  Ca7  1  0.50000000  0.39341400  0.50000000  1
  Fe  Fe8  1  0.25307650  0.72349350  0.75734700  1
  Fe  Fe9  1  0.00000000  0.51229200  0.50000000  1
  Fe  Fe10  1  0.74692350  0.72349350  0.24265300  1
  Fe  Fe11  1  0.00000000  0.03983900  0.00000000  1
  Fe  Fe12  1  0.75307650  0.22349350  0.75734700  1
  Fe  Fe13  1  0.50000000  0.01229200  0.50000000  1
  Fe  Fe14  1  0.24692350  0.22349350  0.24265300  1
  Fe  Fe15  1  0.50000000  0.53983900  0.00000000  1
  Si  Si16  1  0.98460800  0.59011000  0.25282500  1
  Si  Si17  1  0.73684900  0.64855400  0.00098700  1
  Si  Si18  1  0.48451350  0.61285950  0.75376700  1
  Si  Si19  1  0.51548650  0.61285950  0.24623300  1
  Si  Si20  1  0.22965650  0.64881050  0.50213800  1
  Si  Si21  1  0.76315100  0.14855400  0.99901300  1
  Si  Si22  1  0.51539200  0.09011000  0.74717500  1
  Si  Si23  1  0.27034350  0.14881050  0.49786200  1
  Si  Si24  1  0.48460800  0.09011000  0.25282500  1
  Si  Si25  1  0.23684900  0.14855400  0.00098700  1
  Si  Si26  1  0.98451350  0.11285950  0.75376700  1
  Si  Si27  1  0.01548650  0.11285950  0.24623300  1
  Si  Si28  1  0.72965650  0.14881050  0.50213800  1
  Si  Si29  1  0.26315100  0.64855400  0.99901300  1
  Si  Si30  1  0.01539200  0.59011000  0.74717500  1
  Si  Si31  1  0.77034350  0.64881050  0.49786200  1
  O  O32  1  0.19029450  0.53039350  0.58332000  1
  O  O33  1  0.94538050  0.70591250  0.33838400  1
  O  O34  1  0.89313350  0.60686350  0.06901300  1
  O  O35  1  0.27186800  0.80674500  0.93794800  1
  O  O36  1  0.69049450  0.53903950  0.08359400  1
  O  O37  1  0.20684250  0.80484150  0.55847600  1
  O  O38  1  0.14158050  0.13559850  0.81550800  1
  O  O39  1  0.61145750  0.62397850  0.43207100  1
  O  O40  1  0.53046400  0.93488100  0.68508000  1
  O  O41  1  0.44565050  0.72768450  0.83885600  1
  O  O42  1  0.96953600  0.43488100  0.31492000  1
  O  O43  1  0.38854250  0.62397850  0.56792900  1
  O  O44  1  0.35841950  0.63559850  0.18449200  1
  O  O45  1  0.29315750  0.30484150  0.44152400  1
  O  O46  1  0.80950550  0.03903950  0.91640600  1
  O  O47  1  0.22813200  0.30674500  0.06205200  1
  O  O48  1  0.14049200  0.62848200  0.31796900  1
  O  O49  1  0.60686650  0.10686350  0.93098700  1
  O  O50  1  0.03231750  0.95660250  0.18637100  1
  O  O51  1  0.05461950  0.70591250  0.66161600  1
  O  O52  1  0.96768250  0.95660250  0.81362900  1
  O  O53  1  0.35950800  0.12848200  0.68203100  1
  O  O54  1  0.30970550  0.03039350  0.41668000  1
  O  O55  1  0.05434950  0.22768450  0.16114400  1
  O  O56  1  0.69029450  0.03039350  0.58332000  1
  O  O57  1  0.44538050  0.20591250  0.33838400  1
  O  O58  1  0.39313350  0.10686350  0.06901300  1
  O  O59  1  0.77186800  0.30674500  0.93794800  1
  O  O60  1  0.19049450  0.03903950  0.08359400  1
  O  O61  1  0.70684250  0.30484150  0.55847600  1
  O  O62  1  0.64158050  0.63559850  0.81550800  1
  O  O63  1  0.11145750  0.12397850  0.43207100  1
  O  O64  1  0.03046400  0.43488100  0.68508000  1
  O  O65  1  0.94565050  0.22768450  0.83885600  1
  O  O66  1  0.46953600  0.93488100  0.31492000  1
  O  O67  1  0.88854250  0.12397850  0.56792900  1
  O  O68  1  0.85841950  0.13559850  0.18449200  1
  O  O69  1  0.79315750  0.80484150  0.44152400  1
  O  O70  1  0.30950550  0.53903950  0.91640600  1
  O  O71  1  0.72813200  0.80674500  0.06205200  1
  O  O72  1  0.64049200  0.12848200  0.31796900  1
  O  O73  1  0.10686650  0.60686350  0.93098700  1
  O  O74  1  0.53231750  0.45660250  0.18637100  1
  O  O75  1  0.55461950  0.20591250  0.66161600  1
  O  O76  1  0.46768250  0.45660250  0.81362900  1
  O  O77  1  0.85950800  0.62848200  0.68203100  1
  O  O78  1  0.80970550  0.53039350  0.41668000  1
  O  O79  1  0.55434950  0.72768450  0.16114400  1
