# generated using pymatgen
data_K2Sn(H2N)6
_symmetry_space_group_name_H-M   'P 1'
_cell_length_a   6.54144382
_cell_length_b   6.54144382
_cell_length_c   20.11621026
_cell_angle_alpha   90.00000000
_cell_angle_beta   90.00000000
_cell_angle_gamma   120.00000000
_symmetry_Int_Tables_number   1
_chemical_formula_structural   K2Sn(H2N)6
_chemical_formula_sum   'K6 Sn3 H36 N18'
_cell_volume   745.45945844
_cell_formula_units_Z   3
loop_
 _symmetry_equiv_pos_site_id
 _symmetry_equiv_pos_as_xyz
  1  'x, y, z'
loop_
 _atom_site_type_symbol
 _atom_site_label
 _atom_site_symmetry_multiplicity
 _atom_site_fract_x
 _atom_site_fract_y
 _atom_site_fract_z
 _atom_site_occupancy
  K  K0  1  0.00000000  0.00000000  0.18045000  1
  K  K1  1  0.66666667  0.33333333  0.15288333  1
  K  K2  1  0.66666667  0.33333333  0.51378333  1
  K  K3  1  0.33333333  0.66666667  0.48621667  1
  K  K4  1  0.33333333  0.66666667  0.84711667  1
  K  K5  1  0.00000000  0.00000000  0.81955000  1
  Sn  Sn6  1  0.00000000  0.00000000  0.00000000  1
  Sn  Sn7  1  0.66666667  0.33333333  0.33333333  1
  Sn  Sn8  1  0.33333333  0.66666667  0.66666667  1
  H  H9  1  0.18263900  0.79241200  0.07560100  1
  H  H10  1  0.60977300  0.81736100  0.07560100  1
  H  H11  1  0.20758800  0.39022700  0.07560100  1
  H  H12  1  0.48402767  0.54092133  0.25773233  1
  H  H13  1  0.05689367  0.51597233  0.25773233  1
  H  H14  1  0.45907867  0.94310633  0.25773233  1
  H  H15  1  0.95130900  0.58252700  0.03996200  1
  H  H16  1  0.63121800  0.04869100  0.03996200  1
  H  H17  1  0.41747300  0.36878200  0.03996200  1
  H  H18  1  0.71535767  0.75080633  0.29337133  1
  H  H19  1  0.03544867  0.28464233  0.29337133  1
  H  H20  1  0.24919367  0.96455133  0.29337133  1
  H  H21  1  0.84930567  0.12574533  0.40893433  1
  H  H22  1  0.27643967  0.15069433  0.40893433  1
  H  H23  1  0.87425467  0.72356033  0.40893433  1
  H  H24  1  0.15069433  0.87425467  0.59106567  1
  H  H25  1  0.72356033  0.84930567  0.59106567  1
  H  H26  1  0.12574533  0.27643967  0.59106567  1
  H  H27  1  0.61797567  0.91586033  0.37329533  1
  H  H28  1  0.29788467  0.38202433  0.37329533  1
  H  H29  1  0.08413967  0.70211533  0.37329533  1
  H  H30  1  0.38202433  0.08413967  0.62670467  1
  H  H31  1  0.70211533  0.61797567  0.62670467  1
  H  H32  1  0.91586033  0.29788467  0.62670467  1
  H  H33  1  0.51597233  0.45907867  0.74226767  1
  H  H34  1  0.94310633  0.48402767  0.74226767  1
  H  H35  1  0.54092133  0.05689367  0.74226767  1
  H  H36  1  0.81736100  0.20758800  0.92439900  1
  H  H37  1  0.39022700  0.18263900  0.92439900  1
  H  H38  1  0.79241200  0.60977300  0.92439900  1
  H  H39  1  0.28464233  0.24919367  0.70662867  1
  H  H40  1  0.96455133  0.71535767  0.70662867  1
  H  H41  1  0.75080633  0.03544867  0.70662867  1
  H  H42  1  0.04869100  0.41747300  0.96003800  1
  H  H43  1  0.36878200  0.95130900  0.96003800  1
  H  H44  1  0.58252700  0.63121800  0.96003800  1
  N  N45  1  0.00611000  0.73352400  0.06758500  1
  N  N46  1  0.72741400  0.99389000  0.06758500  1
  N  N47  1  0.26647600  0.27258600  0.06758500  1
  N  N48  1  0.66055667  0.59980933  0.26574833  1
  N  N49  1  0.93925267  0.33944333  0.26574833  1
  N  N50  1  0.40019067  0.06074733  0.26574833  1
  N  N51  1  0.67277667  0.06685733  0.40091833  1
  N  N52  1  0.39408067  0.32722333  0.40091833  1
  N  N53  1  0.93314267  0.60591933  0.40091833  1
  N  N54  1  0.32722333  0.93314267  0.59908167  1
  N  N55  1  0.60591933  0.67277667  0.59908167  1
  N  N56  1  0.06685733  0.39408067  0.59908167  1
  N  N57  1  0.33944333  0.40019067  0.73425167  1
  N  N58  1  0.06074733  0.66055667  0.73425167  1
  N  N59  1  0.59980933  0.93925267  0.73425167  1
  N  N60  1  0.99389000  0.26647600  0.93241500  1
  N  N61  1  0.27258600  0.00611000  0.93241500  1
  N  N62  1  0.73352400  0.72741400  0.93241500  1
