# generated using pymatgen
data_GaH3NF3
_symmetry_space_group_name_H-M   'P 1'
_cell_length_a   5.52014400
_cell_length_b   9.64878000
_cell_length_c   5.58437100
_cell_angle_alpha   90.00000000
_cell_angle_beta   90.00000000
_cell_angle_gamma   90.00000000
_symmetry_Int_Tables_number   1
_chemical_formula_structural   GaH3NF3
_chemical_formula_sum   'Ga4 H12 N4 F12'
_cell_volume   297.43842610
_cell_formula_units_Z   4
loop_
 _symmetry_equiv_pos_site_id
 _symmetry_equiv_pos_as_xyz
  1  'x, y, z'
loop_
 _atom_site_type_symbol
 _atom_site_label
 _atom_site_symmetry_multiplicity
 _atom_site_fract_x
 _atom_site_fract_y
 _atom_site_fract_z
 _atom_site_occupancy
  Ga  Ga0  1  0.75000000  0.39124000  0.74987800  1
  Ga  Ga1  1  0.25000000  0.39124000  0.25012200  1
  Ga  Ga2  1  0.25000000  0.89124000  0.74987800  1
  Ga  Ga3  1  0.75000000  0.89124000  0.25012200  1
  H  H4  1  0.25000000  0.12733200  0.96536100  1
  H  H5  1  0.75000000  0.12733200  0.03463900  1
  H  H6  1  0.09806800  0.13801700  0.71159800  1
  H  H7  1  0.90193200  0.13801700  0.28840200  1
  H  H8  1  0.59806800  0.13801700  0.28840200  1
  H  H9  1  0.40193200  0.13801700  0.71159800  1
  H  H10  1  0.75000000  0.62733200  0.96536100  1
  H  H11  1  0.25000000  0.62733200  0.03463900  1
  H  H12  1  0.59806800  0.63801700  0.71159800  1
  H  H13  1  0.40193200  0.63801700  0.28840200  1
  H  H14  1  0.09806800  0.63801700  0.28840200  1
  H  H15  1  0.90193200  0.63801700  0.71159800  1
  N  N16  1  0.25000000  0.09563100  0.78794900  1
  N  N17  1  0.75000000  0.09563100  0.21205100  1
  N  N18  1  0.75000000  0.59563100  0.78794900  1
  N  N19  1  0.25000000  0.59563100  0.21205100  1
  F  F20  1  0.50000000  0.39838300  0.50000000  1
  F  F21  1  0.00000000  0.39838300  0.50000000  1
  F  F22  1  0.50000000  0.37536000  0.00000000  1
  F  F23  1  0.00000000  0.37536000  0.00000000  1
  F  F24  1  0.75000000  0.19761900  0.72587800  1
  F  F25  1  0.25000000  0.19761900  0.27412200  1
  F  F26  1  0.00000000  0.89838300  0.50000000  1
  F  F27  1  0.50000000  0.89838300  0.50000000  1
  F  F28  1  0.00000000  0.87536000  0.00000000  1
  F  F29  1  0.50000000  0.87536000  0.00000000  1
  F  F30  1  0.25000000  0.69761900  0.72587800  1
  F  F31  1  0.75000000  0.69761900  0.27412200  1
