# generated using pymatgen
data_LiZnPO4
_symmetry_space_group_name_H-M   'P 1'
_cell_length_a   17.48221000
_cell_length_b   9.87990600
_cell_length_c   17.33761166
_cell_angle_alpha   90.00000000
_cell_angle_beta   110.93639816
_cell_angle_gamma   90.00000000
_symmetry_Int_Tables_number   1
_chemical_formula_structural   LiZnPO4
_chemical_formula_sum   'Li32 Zn32 P32 O128'
_cell_volume   2796.88690580
_cell_formula_units_Z   32
loop_
 _symmetry_equiv_pos_site_id
 _symmetry_equiv_pos_as_xyz
  1  'x, y, z'
loop_
 _atom_site_type_symbol
 _atom_site_label
 _atom_site_symmetry_multiplicity
 _atom_site_fract_x
 _atom_site_fract_y
 _atom_site_fract_z
 _atom_site_occupancy
  Li  Li0  1  0.45580300  0.56324200  0.91103000  1
  Li  Li1  1  0.67655350  0.28275050  0.91174500  1
  Li  Li2  1  0.46522800  0.32080300  0.66067100  1
  Li  Li3  1  0.21224900  0.69344500  0.41025200  1
  Li  Li4  1  0.71515200  0.06832600  0.66097200  1
  Li  Li5  1  0.21515200  0.43167400  0.16097200  1
  Li  Li6  1  0.93033850  0.53494550  0.91355300  1
  Li  Li7  1  0.67655350  0.71724950  0.41174500  1
  Li  Li8  1  0.24456650  0.96075150  0.16099100  1
  Li  Li9  1  0.49672100  0.21055500  0.16214800  1
  Li  Li10  1  0.46522800  0.67919700  0.16067100  1
  Li  Li11  1  0.49672100  0.78944500  0.66214800  1
  Li  Li12  1  0.71224900  0.80655500  0.91025200  1
  Li  Li13  1  0.45580300  0.43675800  0.41103000  1
  Li  Li14  1  0.74456650  0.53924850  0.66099100  1
  Li  Li15  1  0.43033850  0.96505450  0.41355300  1
  Li  Li16  1  0.95580300  0.06324200  0.91103000  1
  Li  Li17  1  0.17655350  0.78275050  0.91174500  1
  Li  Li18  1  0.96522800  0.82080300  0.66067100  1
  Li  Li19  1  0.71224900  0.19344500  0.41025200  1
  Li  Li20  1  0.21515200  0.56832600  0.66097200  1
  Li  Li21  1  0.71515200  0.93167400  0.16097200  1
  Li  Li22  1  0.43033850  0.03494550  0.91355300  1
  Li  Li23  1  0.17655350  0.21724950  0.41174500  1
  Li  Li24  1  0.74456650  0.46075150  0.16099100  1
  Li  Li25  1  0.99672100  0.71055500  0.16214800  1
  Li  Li26  1  0.96522800  0.17919700  0.16067100  1
  Li  Li27  1  0.99672100  0.28944500  0.66214800  1
  Li  Li28  1  0.21224900  0.30655500  0.91025200  1
  Li  Li29  1  0.95580300  0.93675800  0.41103000  1
  Li  Li30  1  0.24456650  0.03924850  0.66099100  1
  Li  Li31  1  0.93033850  0.46505450  0.41355300  1
  Zn  Zn32  1  0.36915250  0.71380950  0.28577800  1
  Zn  Zn33  1  0.61590000  0.03368400  0.78512900  1
  Zn  Zn34  1  0.55116600  0.21343700  0.53584700  1
  Zn  Zn35  1  0.33241950  0.93042250  0.53672100  1
  Zn  Zn36  1  0.30156800  0.46385300  0.53569700  1
  Zn  Zn37  1  0.05116600  0.28656300  0.03584700  1
  Zn  Zn38  1  0.08356850  0.81703350  0.03606800  1
  Zn  Zn39  1  0.30156800  0.53614700  0.03569700  1
  Zn  Zn40  1  0.59033300  0.43802500  0.28571200  1
  Zn  Zn41  1  0.86915250  0.78619050  0.78577800  1
  Zn  Zn42  1  0.33241950  0.06957750  0.03672100  1
  Zn  Zn43  1  0.33822700  0.18897900  0.28527500  1
  Zn  Zn44  1  0.61590000  0.96631600  0.28512900  1
  Zn  Zn45  1  0.58356850  0.68296650  0.53606800  1
  Zn  Zn46  1  0.83822700  0.31102100  0.78527500  1
  Zn  Zn47  1  0.59033300  0.56197500  0.78571200  1
  Zn  Zn48  1  0.86915250  0.21380950  0.28577800  1
  Zn  Zn49  1  0.11590000  0.53368400  0.78512900  1
  Zn  Zn50  1  0.05116600  0.71343700  0.53584700  1
  Zn  Zn51  1  0.83241950  0.43042250  0.53672100  1
  Zn  Zn52  1  0.80156800  0.96385300  0.53569700  1
  Zn  Zn53  1  0.55116600  0.78656300  0.03584700  1
  Zn  Zn54  1  0.58356850  0.31703350  0.03606800  1
  Zn  Zn55  1  0.80156800  0.03614700  0.03569700  1
  Zn  Zn56  1  0.09033300  0.93802500  0.28571200  1
  Zn  Zn57  1  0.36915250  0.28619050  0.78577800  1
  Zn  Zn58  1  0.83241950  0.56957750  0.03672100  1
  Zn  Zn59  1  0.83822700  0.68897900  0.28527500  1
  Zn  Zn60  1  0.11590000  0.46631600  0.28512900  1
  Zn  Zn61  1  0.08356850  0.18296650  0.53606800  1
  Zn  Zn62  1  0.33822700  0.81102100  0.78527500  1
  Zn  Zn63  1  0.09033300  0.06197500  0.78571200  1
  P  P64  1  0.89831650  0.81215750  0.97550200  1
  P  P65  1  0.40108650  0.43797150  0.22240800  1
  P  P66  1  0.17980200  0.71673600  0.22424300  1
  P  P67  1  0.40108650  0.56202850  0.72240800  1
  P  P68  1  0.61909750  0.96962050  0.47319400  1
  P  P69  1  0.36687700  0.21628000  0.47314000  1
  P  P70  1  0.61909750  0.03037950  0.97319400  1
  P  P71  1  0.14898700  0.18875400  0.22257200  1
  P  P72  1  0.67980200  0.78326400  0.72424300  1
  P  P73  1  0.42759250  0.96713250  0.22424300  1
  P  P74  1  0.39831650  0.68784250  0.47550200  1
  P  P75  1  0.42759250  0.03286750  0.72424300  1
  P  P76  1  0.64898700  0.31124600  0.72257200  1
  P  P77  1  0.64642550  0.56200750  0.97434200  1
  P  P78  1  0.86687700  0.28372000  0.97314000  1
  P  P79  1  0.64642550  0.43799250  0.47434200  1
  P  P80  1  0.39831650  0.31215750  0.97550200  1
  P  P81  1  0.90108650  0.93797150  0.22240800  1
  P  P82  1  0.67980200  0.21673600  0.22424300  1
  P  P83  1  0.90108650  0.06202850  0.72240800  1
  P  P84  1  0.11909750  0.46962050  0.47319400  1
  P  P85  1  0.86687700  0.71628000  0.47314000  1
  P  P86  1  0.11909750  0.53037950  0.97319400  1
  P  P87  1  0.64898700  0.68875400  0.22257200  1
  P  P88  1  0.17980200  0.28326400  0.72424300  1
  P  P89  1  0.92759250  0.46713250  0.22424300  1
  P  P90  1  0.89831650  0.18784250  0.47550200  1
  P  P91  1  0.92759250  0.53286750  0.72424300  1
  P  P92  1  0.14898700  0.81124600  0.72257200  1
  P  P93  1  0.14642550  0.06200750  0.97434200  1
  P  P94  1  0.36687700  0.78372000  0.97314000  1
  P  P95  1  0.14642550  0.93799250  0.47434200  1
  O  O96  1  0.44076450  0.18792150  0.73709700  1
  O  O97  1  0.69606250  0.99838750  0.55160400  1
  O  O98  1  0.50488600  0.02853500  0.21271200  1
  O  O99  1  0.72230500  0.65494500  0.98998300  1
  O  O100  1  0.63658800  0.03240000  0.39892000  1
  O  O101  1  0.56881100  0.64916600  0.96090900  1
  O  O102  1  0.41419350  0.47253850  0.80047500  1
  O  O103  1  0.44459650  0.25024950  0.54970600  1
  O  O104  1  0.88409300  0.72080400  0.89847500  1
  O  O105  1  0.22795800  0.10360900  0.23875000  1
  O  O106  1  0.29060750  0.28060750  0.48492700  1
  O  O107  1  0.47409300  0.59490400  0.49067500  1
  O  O108  1  0.69027000  0.93871200  0.73761800  1
  O  O109  1  0.88131550  0.22510750  0.89599700  1
  O  O110  1  0.19606250  0.50161250  0.05160400  1
  O  O111  1  0.32066650  0.59995050  0.46047500  1
  O  O112  1  0.63658800  0.96760000  0.89892000  1
  O  O113  1  0.35403150  0.06124350  0.46044000  1
  O  O114  1  0.63348850  0.21433950  0.64789700  1
  O  O115  1  0.54241050  0.96781950  0.98468800  1
  O  O116  1  0.41406000  0.78315000  0.55116000  1
  O  O117  1  0.54241050  0.03218050  0.48468800  1
  O  O118  1  0.57524500  0.40993900  0.70547600  1
  O  O119  1  0.47990750  0.64793950  0.73796800  1
  O  O120  1  0.16421050  0.96448950  0.04946100  1
  O  O121  1  0.41406000  0.21685000  0.05116000  1
  O  O122  1  0.72795800  0.39639100  0.73875000  1
  O  O123  1  0.82066650  0.90004950  0.96047500  1
  O  O124  1  0.66421050  0.53551050  0.54946100  1
  O  O125  1  0.57524500  0.59006100  0.20547600  1
  O  O126  1  0.32684800  0.34188900  0.20622600  1
  O  O127  1  0.79060750  0.21939250  0.98492700  1
  O  O128  1  0.65838600  0.22119100  0.79924100  1
  O  O129  1  0.47990750  0.35206050  0.23796800  1
  O  O130  1  0.15838600  0.27880900  0.29924100  1
  O  O131  1  0.44459650  0.74975050  0.04970600  1
  O  O132  1  0.41226000  0.97067400  0.80002000  1
  O  O133  1  0.38131550  0.27489250  0.39599700  1
  O  O134  1  0.16579700  0.78026500  0.30055700  1
  O  O135  1  0.35010000  0.00090100  0.64724600  1
  O  O136  1  0.60192750  0.74898150  0.64775900  1
  O  O137  1  0.13348850  0.28566050  0.14789700  1
  O  O138  1  0.75721300  0.72514600  0.71230700  1
  O  O139  1  0.56881100  0.35083400  0.46090900  1
  O  O140  1  0.85403150  0.43875650  0.96044000  1
  O  O141  1  0.38409300  0.77919600  0.39847500  1
  O  O142  1  0.63028000  0.47287100  0.89590200  1
  O  O143  1  0.60451650  0.18560850  0.95906200  1
  O  O144  1  0.72230500  0.34505500  0.48998300  1
  O  O145  1  0.60451650  0.81439150  0.45906200  1
  O  O146  1  0.41226000  0.02932600  0.30002000  1
  O  O147  1  0.82684800  0.15811100  0.70622600  1
  O  O148  1  0.50488600  0.97146500  0.71271200  1
  O  O149  1  0.25721300  0.77485400  0.21230700  1
  O  O150  1  0.97409300  0.90509600  0.99067500  1
  O  O151  1  0.41419350  0.52746150  0.30047500  1
  O  O152  1  0.63028000  0.52712900  0.39590200  1
  O  O153  1  0.38477800  0.46463100  0.64773700  1
  O  O154  1  0.10192750  0.75101850  0.14775900  1
  O  O155  1  0.66579700  0.71973500  0.80055700  1
  O  O156  1  0.38477800  0.53536900  0.14773700  1
  O  O157  1  0.19027000  0.56128800  0.23761800  1
  O  O158  1  0.44076450  0.81207850  0.23709700  1
  O  O159  1  0.35010000  0.99909900  0.14724600  1
  O  O160  1  0.94076450  0.68792150  0.73709700  1
  O  O161  1  0.19606250  0.49838750  0.55160400  1
  O  O162  1  0.00488600  0.52853500  0.21271200  1
  O  O163  1  0.22230500  0.15494500  0.98998300  1
  O  O164  1  0.13658800  0.53240000  0.39892000  1
  O  O165  1  0.06881100  0.14916600  0.96090900  1
  O  O166  1  0.91419350  0.97253850  0.80047500  1
  O  O167  1  0.94459650  0.75024950  0.54970600  1
  O  O168  1  0.38409300  0.22080400  0.89847500  1
  O  O169  1  0.72795800  0.60360900  0.23875000  1
  O  O170  1  0.79060750  0.78060750  0.48492700  1
  O  O171  1  0.97409300  0.09490400  0.49067500  1
  O  O172  1  0.19027000  0.43871200  0.73761800  1
  O  O173  1  0.38131550  0.72510750  0.89599700  1
  O  O174  1  0.69606250  0.00161250  0.05160400  1
  O  O175  1  0.82066650  0.09995050  0.46047500  1
  O  O176  1  0.13658800  0.46760000  0.89892000  1
  O  O177  1  0.85403150  0.56124350  0.46044000  1
  O  O178  1  0.13348850  0.71433950  0.64789700  1
  O  O179  1  0.04241050  0.46781950  0.98468800  1
  O  O180  1  0.91406000  0.28315000  0.55116000  1
  O  O181  1  0.04241050  0.53218050  0.48468800  1
  O  O182  1  0.07524500  0.90993900  0.70547600  1
  O  O183  1  0.97990750  0.14793950  0.73796800  1
  O  O184  1  0.66421050  0.46448950  0.04946100  1
  O  O185  1  0.91406000  0.71685000  0.05116000  1
  O  O186  1  0.22795800  0.89639100  0.73875000  1
  O  O187  1  0.32066650  0.40004950  0.96047500  1
  O  O188  1  0.16421050  0.03551050  0.54946100  1
  O  O189  1  0.07524500  0.09006100  0.20547600  1
  O  O190  1  0.82684800  0.84188900  0.20622600  1
  O  O191  1  0.29060750  0.71939250  0.98492700  1
  O  O192  1  0.15838600  0.72119100  0.79924100  1
  O  O193  1  0.97990750  0.85206050  0.23796800  1
  O  O194  1  0.65838600  0.77880900  0.29924100  1
  O  O195  1  0.94459650  0.24975050  0.04970600  1
  O  O196  1  0.91226000  0.47067400  0.80002000  1
  O  O197  1  0.88131550  0.77489250  0.39599700  1
  O  O198  1  0.66579700  0.28026500  0.30055700  1
  O  O199  1  0.85010000  0.50090100  0.64724600  1
  O  O200  1  0.10192750  0.24898150  0.64775900  1
  O  O201  1  0.63348850  0.78566050  0.14789700  1
  O  O202  1  0.25721300  0.22514600  0.71230700  1
  O  O203  1  0.06881100  0.85083400  0.46090900  1
  O  O204  1  0.35403150  0.93875650  0.96044000  1
  O  O205  1  0.88409300  0.27919600  0.39847500  1
  O  O206  1  0.13028000  0.97287100  0.89590200  1
  O  O207  1  0.10451650  0.68560850  0.95906200  1
  O  O208  1  0.22230500  0.84505500  0.48998300  1
  O  O209  1  0.10451650  0.31439150  0.45906200  1
  O  O210  1  0.91226000  0.52932600  0.30002000  1
  O  O211  1  0.32684800  0.65811100  0.70622600  1
  O  O212  1  0.00488600  0.47146500  0.71271200  1
  O  O213  1  0.75721300  0.27485400  0.21230700  1
  O  O214  1  0.47409300  0.40509600  0.99067500  1
  O  O215  1  0.91419350  0.02746150  0.30047500  1
  O  O216  1  0.13028000  0.02712900  0.39590200  1
  O  O217  1  0.88477800  0.96463100  0.64773700  1
  O  O218  1  0.60192750  0.25101850  0.14775900  1
  O  O219  1  0.16579700  0.21973500  0.80055700  1
  O  O220  1  0.88477800  0.03536900  0.14773700  1
  O  O221  1  0.69027000  0.06128800  0.23761800  1
  O  O222  1  0.94076450  0.31207850  0.23709700  1
  O  O223  1  0.85010000  0.49909900  0.14724600  1
