# generated using pymatgen
data_Bi12PbO20
_symmetry_space_group_name_H-M   'P 1'
_cell_length_a   10.42977800
_cell_length_b   10.42977800
_cell_length_c   10.42977800
_cell_angle_alpha   90.00000000
_cell_angle_beta   90.00000000
_cell_angle_gamma   90.00000000
_symmetry_Int_Tables_number   1
_chemical_formula_structural   Bi12PbO20
_chemical_formula_sum   'Bi24 Pb2 O40'
_cell_volume   1134.55405780
_cell_formula_units_Z   2
loop_
 _symmetry_equiv_pos_site_id
 _symmetry_equiv_pos_as_xyz
  1  'x, y, z'
loop_
 _atom_site_type_symbol
 _atom_site_label
 _atom_site_symmetry_multiplicity
 _atom_site_fract_x
 _atom_site_fract_y
 _atom_site_fract_z
 _atom_site_occupancy
  Bi  Bi0  1  0.81954950  0.32164750  0.51370450  1
  Bi  Bi1  1  0.18045050  0.32164750  0.48629550  1
  Bi  Bi2  1  0.68045050  0.17835250  0.01370450  1
  Bi  Bi3  1  0.48629550  0.18045050  0.32164750  1
  Bi  Bi4  1  0.01370450  0.68045050  0.17835250  1
  Bi  Bi5  1  0.32164750  0.48629550  0.18045050  1
  Bi  Bi6  1  0.32164750  0.51370450  0.81954950  1
  Bi  Bi7  1  0.17835250  0.01370450  0.68045050  1
  Bi  Bi8  1  0.17835250  0.98629550  0.31954950  1
  Bi  Bi9  1  0.51370450  0.81954950  0.32164750  1
  Bi  Bi10  1  0.31954950  0.17835250  0.98629550  1
  Bi  Bi11  1  0.98629550  0.31954950  0.17835250  1
  Bi  Bi12  1  0.31954950  0.82164750  0.01370450  1
  Bi  Bi13  1  0.68045050  0.82164750  0.98629550  1
  Bi  Bi14  1  0.18045050  0.67835250  0.51370450  1
  Bi  Bi15  1  0.98629550  0.68045050  0.82164750  1
  Bi  Bi16  1  0.51370450  0.18045050  0.67835250  1
  Bi  Bi17  1  0.82164750  0.98629550  0.68045050  1
  Bi  Bi18  1  0.82164750  0.01370450  0.31954950  1
  Bi  Bi19  1  0.67835250  0.51370450  0.18045050  1
  Bi  Bi20  1  0.67835250  0.48629550  0.81954950  1
  Bi  Bi21  1  0.01370450  0.31954950  0.82164750  1
  Bi  Bi22  1  0.81954950  0.67835250  0.48629550  1
  Bi  Bi23  1  0.48629550  0.81954950  0.67835250  1
  Pb  Pb24  1  0.00000000  0.00000000  0.00000000  1
  Pb  Pb25  1  0.50000000  0.50000000  0.50000000  1
  O  O26  1  0.25443500  0.36892500  0.00972100  1
  O  O27  1  0.24556500  0.86892500  0.49027900  1
  O  O28  1  0.38320250  0.38320250  0.61679750  1
  O  O29  1  0.61679750  0.38320250  0.38320250  1
  O  O30  1  0.13107500  0.50972100  0.24556500  1
  O  O31  1  0.00972100  0.25443500  0.36892500  1
  O  O32  1  0.50972100  0.24556500  0.13107500  1
  O  O33  1  0.25443500  0.63107500  0.99027900  1
  O  O34  1  0.81756900  0.18243100  0.18243100  1
  O  O35  1  0.49027900  0.24556500  0.86892500  1
  O  O36  1  0.99027900  0.25443500  0.63107500  1
  O  O37  1  0.36892500  0.00972100  0.25443500  1
  O  O38  1  0.18243100  0.81756900  0.18243100  1
  O  O39  1  0.38320250  0.61679750  0.38320250  1
  O  O40  1  0.63107500  0.99027900  0.25443500  1
  O  O41  1  0.11679750  0.11679750  0.11679750  1
  O  O42  1  0.18243100  0.18243100  0.81756900  1
  O  O43  1  0.31756900  0.31756900  0.31756900  1
  O  O44  1  0.24556500  0.13107500  0.50972100  1
  O  O45  1  0.86892500  0.49027900  0.24556500  1
  O  O46  1  0.75443500  0.86892500  0.50972100  1
  O  O47  1  0.74556500  0.36892500  0.99027900  1
  O  O48  1  0.88320250  0.88320250  0.11679750  1
  O  O49  1  0.11679750  0.88320250  0.88320250  1
  O  O50  1  0.63107500  0.00972100  0.74556500  1
  O  O51  1  0.50972100  0.75443500  0.86892500  1
  O  O52  1  0.00972100  0.74556500  0.63107500  1
  O  O53  1  0.75443500  0.13107500  0.49027900  1
  O  O54  1  0.31756900  0.68243100  0.68243100  1
  O  O55  1  0.99027900  0.74556500  0.36892500  1
  O  O56  1  0.49027900  0.75443500  0.13107500  1
  O  O57  1  0.86892500  0.50972100  0.75443500  1
  O  O58  1  0.68243100  0.31756900  0.68243100  1
  O  O59  1  0.88320250  0.11679750  0.88320250  1
  O  O60  1  0.13107500  0.49027900  0.75443500  1
  O  O61  1  0.61679750  0.61679750  0.61679750  1
  O  O62  1  0.68243100  0.68243100  0.31756900  1
  O  O63  1  0.81756900  0.81756900  0.81756900  1
  O  O64  1  0.74556500  0.63107500  0.00972100  1
  O  O65  1  0.36892500  0.99027900  0.74556500  1
