# generated using pymatgen
data_MnSb2Pb5O11
_symmetry_space_group_name_H-M   'P 1'
_cell_length_a   9.21999000
_cell_length_b   11.69815600
_cell_length_c   11.14171800
_cell_angle_alpha   90.00000000
_cell_angle_beta   90.00000000
_cell_angle_gamma   90.00000000
_symmetry_Int_Tables_number   1
_chemical_formula_structural   MnSb2Pb5O11
_chemical_formula_sum   'Mn4 Sb8 Pb20 O44'
_cell_volume   1201.71095623
_cell_formula_units_Z   4
loop_
 _symmetry_equiv_pos_site_id
 _symmetry_equiv_pos_as_xyz
  1  'x, y, z'
loop_
 _atom_site_type_symbol
 _atom_site_label
 _atom_site_symmetry_multiplicity
 _atom_site_fract_x
 _atom_site_fract_y
 _atom_site_fract_z
 _atom_site_occupancy
  Mn  Mn0  1  0.50000000  0.91227400  0.25000000  1
  Mn  Mn1  1  0.50000000  0.08772600  0.75000000  1
  Mn  Mn2  1  0.00000000  0.41227400  0.25000000  1
  Mn  Mn3  1  0.00000000  0.58772600  0.75000000  1
  Sb  Sb4  1  0.67532100  0.00000000  0.50000000  1
  Sb  Sb5  1  0.67532100  0.00000000  0.00000000  1
  Sb  Sb6  1  0.32467900  0.00000000  0.50000000  1
  Sb  Sb7  1  0.32467900  0.00000000  0.00000000  1
  Sb  Sb8  1  0.17532100  0.50000000  0.50000000  1
  Sb  Sb9  1  0.17532100  0.50000000  0.00000000  1
  Sb  Sb10  1  0.82467900  0.50000000  0.50000000  1
  Sb  Sb11  1  0.82467900  0.50000000  0.00000000  1
  Pb  Pb12  1  0.50000000  0.49868000  0.75000000  1
  Pb  Pb13  1  0.50000000  0.72019100  0.47536500  1
  Pb  Pb14  1  0.50000000  0.27980900  0.52463500  1
  Pb  Pb15  1  0.27453600  0.21531200  0.25000000  1
  Pb  Pb16  1  0.27453600  0.78468800  0.75000000  1
  Pb  Pb17  1  0.50000000  0.27980900  0.97536500  1
  Pb  Pb18  1  0.72546400  0.21531200  0.25000000  1
  Pb  Pb19  1  0.50000000  0.50132000  0.25000000  1
  Pb  Pb20  1  0.72546400  0.78468800  0.75000000  1
  Pb  Pb21  1  0.50000000  0.72019100  0.02463500  1
  Pb  Pb22  1  0.00000000  0.99868000  0.75000000  1
  Pb  Pb23  1  0.00000000  0.22019100  0.47536500  1
  Pb  Pb24  1  0.00000000  0.77980900  0.52463500  1
  Pb  Pb25  1  0.77453600  0.71531200  0.25000000  1
  Pb  Pb26  1  0.77453600  0.28468800  0.75000000  1
  Pb  Pb27  1  0.00000000  0.77980900  0.97536500  1
  Pb  Pb28  1  0.22546400  0.71531200  0.25000000  1
  Pb  Pb29  1  0.00000000  0.00132000  0.25000000  1
  Pb  Pb30  1  0.22546400  0.28468800  0.75000000  1
  Pb  Pb31  1  0.00000000  0.22019100  0.02463500  1
  O  O32  1  0.33792100  0.13838500  0.60801100  1
  O  O33  1  0.33792100  0.86161500  0.39198900  1
  O  O34  1  0.33792100  0.13838500  0.89198900  1
  O  O35  1  0.18436300  0.92289600  0.89260200  1
  O  O36  1  0.18436300  0.07710400  0.39260200  1
  O  O37  1  0.81563700  0.92289600  0.60739800  1
  O  O38  1  0.50000000  0.06153700  0.39829200  1
  O  O39  1  0.81563700  0.07710400  0.39260200  1
  O  O40  1  0.18436300  0.07710400  0.10739800  1
  O  O41  1  0.81563700  0.07710400  0.10739800  1
  O  O42  1  0.50000000  0.06153700  0.10170800  1
  O  O43  1  0.50000000  0.29839000  0.75000000  1
  O  O44  1  0.66207900  0.13838500  0.60801100  1
  O  O45  1  0.50000000  0.93846300  0.89829200  1
  O  O46  1  0.66207900  0.13838500  0.89198900  1
  O  O47  1  0.50000000  0.70161000  0.25000000  1
  O  O48  1  0.33792100  0.86161500  0.10801100  1
  O  O49  1  0.81563700  0.92289600  0.89260200  1
  O  O50  1  0.18436300  0.92289600  0.60739800  1
  O  O51  1  0.50000000  0.93846300  0.60170800  1
  O  O52  1  0.66207900  0.86161500  0.39198900  1
  O  O53  1  0.66207900  0.86161500  0.10801100  1
  O  O54  1  0.83792100  0.63838500  0.60801100  1
  O  O55  1  0.83792100  0.36161500  0.39198900  1
  O  O56  1  0.83792100  0.63838500  0.89198900  1
  O  O57  1  0.68436300  0.42289600  0.89260200  1
  O  O58  1  0.68436300  0.57710400  0.39260200  1
  O  O59  1  0.31563700  0.42289600  0.60739800  1
  O  O60  1  0.00000000  0.56153700  0.39829200  1
  O  O61  1  0.31563700  0.57710400  0.39260200  1
  O  O62  1  0.68436300  0.57710400  0.10739800  1
  O  O63  1  0.31563700  0.57710400  0.10739800  1
  O  O64  1  0.00000000  0.56153700  0.10170800  1
  O  O65  1  0.00000000  0.79839000  0.75000000  1
  O  O66  1  0.16207900  0.63838500  0.60801100  1
  O  O67  1  0.00000000  0.43846300  0.89829200  1
  O  O68  1  0.16207900  0.63838500  0.89198900  1
  O  O69  1  0.00000000  0.20161000  0.25000000  1
  O  O70  1  0.83792100  0.36161500  0.10801100  1
  O  O71  1  0.31563700  0.42289600  0.89260200  1
  O  O72  1  0.68436300  0.42289600  0.60739800  1
  O  O73  1  0.00000000  0.43846300  0.60170800  1
  O  O74  1  0.16207900  0.36161500  0.39198900  1
  O  O75  1  0.16207900  0.36161500  0.10801100  1
