# generated using pymatgen
data_Al3Bi5I12
_symmetry_space_group_name_H-M   'P 1'
_cell_length_a   8.35858800
_cell_length_b   19.10878900
_cell_length_c   22.47994400
_cell_angle_alpha   90.00000000
_cell_angle_beta   90.00000000
_cell_angle_gamma   90.00000000
_symmetry_Int_Tables_number   1
_chemical_formula_structural   Al3Bi5I12
_chemical_formula_sum   'Al12 Bi20 I48'
_cell_volume   3590.55273033
_cell_formula_units_Z   4
loop_
 _symmetry_equiv_pos_site_id
 _symmetry_equiv_pos_as_xyz
  1  'x, y, z'
loop_
 _atom_site_type_symbol
 _atom_site_label
 _atom_site_symmetry_multiplicity
 _atom_site_fract_x
 _atom_site_fract_y
 _atom_site_fract_z
 _atom_site_occupancy
  Al  Al0  1  0.46178900  0.25000000  0.42432300  1
  Al  Al1  1  0.67260700  0.53942000  0.86683600  1
  Al  Al2  1  0.67260700  0.96058000  0.86683600  1
  Al  Al3  1  0.32739300  0.46058000  0.13316400  1
  Al  Al4  1  0.03821100  0.25000000  0.92432300  1
  Al  Al5  1  0.82739300  0.96058000  0.36683600  1
  Al  Al6  1  0.17260700  0.46058000  0.63316400  1
  Al  Al7  1  0.32739300  0.03942000  0.13316400  1
  Al  Al8  1  0.96178900  0.75000000  0.07567700  1
  Al  Al9  1  0.82739300  0.53942000  0.36683600  1
  Al  Al10  1  0.17260700  0.03942000  0.63316400  1
  Al  Al11  1  0.53821100  0.75000000  0.57567700  1
  Bi  Bi12  1  0.41374400  0.66025600  0.27729700  1
  Bi  Bi13  1  0.42627500  0.75000000  0.16499400  1
  Bi  Bi14  1  0.91374400  0.33974400  0.22270300  1
  Bi  Bi15  1  0.91374400  0.16025600  0.22270300  1
  Bi  Bi16  1  0.27038000  0.25000000  0.75923400  1
  Bi  Bi17  1  0.41356100  0.25000000  0.62891300  1
  Bi  Bi18  1  0.08625600  0.83974400  0.77729700  1
  Bi  Bi19  1  0.57372500  0.25000000  0.83500600  1
  Bi  Bi20  1  0.92627500  0.25000000  0.33500600  1
  Bi  Bi21  1  0.08625600  0.66025600  0.77729700  1
  Bi  Bi22  1  0.77038000  0.75000000  0.74076600  1
  Bi  Bi23  1  0.58643900  0.75000000  0.37108700  1
  Bi  Bi24  1  0.41374400  0.83974400  0.27729700  1
  Bi  Bi25  1  0.22962000  0.25000000  0.25923400  1
  Bi  Bi26  1  0.58625600  0.33974400  0.72270300  1
  Bi  Bi27  1  0.72962000  0.75000000  0.24076600  1
  Bi  Bi28  1  0.91356100  0.75000000  0.87108700  1
  Bi  Bi29  1  0.58625600  0.16025600  0.72270300  1
  Bi  Bi30  1  0.07372500  0.75000000  0.66499400  1
  Bi  Bi31  1  0.08643900  0.25000000  0.12891300  1
  I  I32  1  0.18096200  0.75000000  0.99500600  1
  I  I33  1  0.47952500  0.85484800  0.86224100  1
  I  I34  1  0.97223700  0.43306300  0.40814400  1
  I  I35  1  0.49180700  0.35644500  0.35539100  1
  I  I36  1  0.47223700  0.56693700  0.09185600  1
  I  I37  1  0.68096200  0.25000000  0.50499400  1
  I  I38  1  0.02047500  0.64515200  0.36224100  1
  I  I39  1  0.02776300  0.93306300  0.59185600  1
  I  I40  1  0.81903800  0.25000000  0.00499400  1
  I  I41  1  0.97223700  0.06693700  0.40814400  1
  I  I42  1  0.50819300  0.85644500  0.64460900  1
  I  I43  1  0.21285800  0.47988400  0.23912800  1
  I  I44  1  0.21285800  0.02011600  0.23912800  1
  I  I45  1  0.52776300  0.06693700  0.90814400  1
  I  I46  1  0.91238300  0.57712800  0.93146100  1
  I  I47  1  0.47952500  0.64515200  0.86224100  1
  I  I48  1  0.00819300  0.14355500  0.85539100  1
  I  I49  1  0.47223700  0.93306300  0.09185600  1
  I  I50  1  0.99180700  0.85644500  0.14460900  1
  I  I51  1  0.91238300  0.92287200  0.93146100  1
  I  I52  1  0.81403500  0.75000000  0.52584100  1
  I  I53  1  0.02776300  0.56693700  0.59185600  1
  I  I54  1  0.28714200  0.47988400  0.73912800  1
  I  I55  1  0.02047500  0.85484800  0.36224100  1
  I  I56  1  0.31403500  0.25000000  0.97415900  1
  I  I57  1  0.78714200  0.52011600  0.76087200  1
  I  I58  1  0.31903800  0.75000000  0.49500600  1
  I  I59  1  0.08761700  0.07712800  0.06853900  1
  I  I60  1  0.78714200  0.97988400  0.76087200  1
  I  I61  1  0.68596500  0.75000000  0.02584100  1
  I  I62  1  0.52776300  0.43306300  0.90814400  1
  I  I63  1  0.50819300  0.64355500  0.64460900  1
  I  I64  1  0.97952500  0.35484800  0.63775900  1
  I  I65  1  0.49180700  0.14355500  0.35539100  1
  I  I66  1  0.41238300  0.07712800  0.56853900  1
  I  I67  1  0.58761700  0.57712800  0.43146100  1
  I  I68  1  0.08761700  0.42287200  0.06853900  1
  I  I69  1  0.52047500  0.14515200  0.13775900  1
  I  I70  1  0.18596500  0.25000000  0.47415900  1
  I  I71  1  0.58761700  0.92287200  0.43146100  1
  I  I72  1  0.71285800  0.97988400  0.26087200  1
  I  I73  1  0.28714200  0.02011600  0.73912800  1
  I  I74  1  0.52047500  0.35484800  0.13775900  1
  I  I75  1  0.97952500  0.14515200  0.63775900  1
  I  I76  1  0.41238300  0.42287200  0.56853900  1
  I  I77  1  0.99180700  0.64355500  0.14460900  1
  I  I78  1  0.71285800  0.52011600  0.26087200  1
  I  I79  1  0.00819300  0.35644500  0.85539100  1
