# generated using pymatgen
data_Sr(H2O3)2
_symmetry_space_group_name_H-M   'P 1'
_cell_length_a   8.24127200
_cell_length_b   6.01259400
_cell_length_c   8.53181175
_cell_angle_alpha   90.00000000
_cell_angle_beta   101.30046832
_cell_angle_gamma   90.00000000
_symmetry_Int_Tables_number   1
_chemical_formula_structural   Sr(H2O3)2
_chemical_formula_sum   'Sr4 H16 O24'
_cell_volume   414.56731918
_cell_formula_units_Z   4
loop_
 _symmetry_equiv_pos_site_id
 _symmetry_equiv_pos_as_xyz
  1  'x, y, z'
loop_
 _atom_site_type_symbol
 _atom_site_label
 _atom_site_symmetry_multiplicity
 _atom_site_fract_x
 _atom_site_fract_y
 _atom_site_fract_z
 _atom_site_occupancy
  Sr  Sr0  1  0.50000000  0.66651000  0.75000000  1
  Sr  Sr1  1  0.50000000  0.33349000  0.25000000  1
  Sr  Sr2  1  0.00000000  0.16651000  0.75000000  1
  Sr  Sr3  1  0.00000000  0.83349000  0.25000000  1
  H  H4  1  0.29534150  0.01848450  0.55301700  1
  H  H5  1  0.70465850  0.01848450  0.94698300  1
  H  H6  1  0.70465850  0.98151550  0.44698300  1
  H  H7  1  0.29534150  0.98151550  0.05301700  1
  H  H8  1  0.41015150  0.20234950  0.86938400  1
  H  H9  1  0.41015150  0.79765050  0.36938400  1
  H  H10  1  0.58984850  0.20234950  0.63061600  1
  H  H11  1  0.58984850  0.79765050  0.13061600  1
  H  H12  1  0.79534150  0.51848450  0.55301700  1
  H  H13  1  0.20465850  0.51848450  0.94698300  1
  H  H14  1  0.20465850  0.48151550  0.44698300  1
  H  H15  1  0.79534150  0.48151550  0.05301700  1
  H  H16  1  0.91015150  0.70234950  0.86938400  1
  H  H17  1  0.91015150  0.29765050  0.36938400  1
  H  H18  1  0.08984850  0.70234950  0.63061600  1
  H  H19  1  0.08984850  0.29765050  0.13061600  1
  O  O20  1  0.16987050  0.98591250  0.54224600  1
  O  O21  1  0.83012950  0.98591250  0.95775400  1
  O  O22  1  0.83012950  0.01408750  0.45775400  1
  O  O23  1  0.16987050  0.01408750  0.04224600  1
  O  O24  1  0.17577000  0.82937000  0.67847400  1
  O  O25  1  0.82423000  0.82937000  0.82152600  1
  O  O26  1  0.82423000  0.17063000  0.32152600  1
  O  O27  1  0.17577000  0.17063000  0.17847400  1
  O  O28  1  0.51833100  0.02931500  0.91985800  1
  O  O29  1  0.48166900  0.02931500  0.58014200  1
  O  O30  1  0.48166900  0.97068500  0.08014200  1
  O  O31  1  0.51833100  0.97068500  0.41985800  1
  O  O32  1  0.66987050  0.48591250  0.54224600  1
  O  O33  1  0.33012950  0.48591250  0.95775400  1
  O  O34  1  0.33012950  0.51408750  0.45775400  1
  O  O35  1  0.66987050  0.51408750  0.04224600  1
  O  O36  1  0.67577000  0.32937000  0.67847400  1
  O  O37  1  0.32423000  0.32937000  0.82152600  1
  O  O38  1  0.32423000  0.67063000  0.32152600  1
  O  O39  1  0.67577000  0.67063000  0.17847400  1
  O  O40  1  0.01833100  0.52931500  0.91985800  1
  O  O41  1  0.98166900  0.52931500  0.58014200  1
  O  O42  1  0.98166900  0.47068500  0.08014200  1
  O  O43  1  0.01833100  0.47068500  0.41985800  1
