# generated using pymatgen
data_Sr4Nb2O9
_symmetry_space_group_name_H-M   'P 1'
_cell_length_a   10.76147600
_cell_length_b   17.92976600
_cell_length_c   10.44811469
_cell_angle_alpha   90.00000000
_cell_angle_beta   110.87104265
_cell_angle_gamma   90.00000000
_symmetry_Int_Tables_number   1
_chemical_formula_structural   Sr4Nb2O9
_chemical_formula_sum   'Sr32 Nb16 O72'
_cell_volume   1883.69285380
_cell_formula_units_Z   8
loop_
 _symmetry_equiv_pos_site_id
 _symmetry_equiv_pos_as_xyz
  1  'x, y, z'
loop_
 _atom_site_type_symbol
 _atom_site_label
 _atom_site_symmetry_multiplicity
 _atom_site_fract_x
 _atom_site_fract_y
 _atom_site_fract_z
 _atom_site_occupancy
  Sr  Sr0  1  0.60576100  0.73438600  0.13663000  1
  Sr  Sr1  1  0.50000000  0.25227800  0.25000000  1
  Sr  Sr2  1  0.67071800  0.08788000  0.13557200  1
  Sr  Sr3  1  0.60576100  0.26561400  0.63663000  1
  Sr  Sr4  1  0.39423900  0.73438600  0.36337000  1
  Sr  Sr5  1  0.12310050  0.91583950  0.12128800  1
  Sr  Sr6  1  0.50000000  0.74772200  0.75000000  1
  Sr  Sr7  1  0.32928200  0.08788000  0.36442800  1
  Sr  Sr8  1  0.12310050  0.08416050  0.62128800  1
  Sr  Sr9  1  0.50000000  0.92363500  0.25000000  1
  Sr  Sr10  1  0.39423900  0.26561400  0.86337000  1
  Sr  Sr11  1  0.50000000  0.07636500  0.75000000  1
  Sr  Sr12  1  0.67071800  0.91212000  0.63557200  1
  Sr  Sr13  1  0.87689950  0.91583950  0.37871200  1
  Sr  Sr14  1  0.87689950  0.08416050  0.87871200  1
  Sr  Sr15  1  0.32928200  0.91212000  0.86442800  1
  Sr  Sr16  1  0.10576100  0.23438600  0.13663000  1
  Sr  Sr17  1  0.00000000  0.75227800  0.25000000  1
  Sr  Sr18  1  0.17071800  0.58788000  0.13557200  1
  Sr  Sr19  1  0.10576100  0.76561400  0.63663000  1
  Sr  Sr20  1  0.89423900  0.23438600  0.36337000  1
  Sr  Sr21  1  0.62310050  0.41583950  0.12128800  1
  Sr  Sr22  1  0.00000000  0.24772200  0.75000000  1
  Sr  Sr23  1  0.82928200  0.58788000  0.36442800  1
  Sr  Sr24  1  0.62310050  0.58416050  0.62128800  1
  Sr  Sr25  1  0.00000000  0.42363500  0.25000000  1
  Sr  Sr26  1  0.89423900  0.76561400  0.86337000  1
  Sr  Sr27  1  0.00000000  0.57636500  0.75000000  1
  Sr  Sr28  1  0.17071800  0.41212000  0.63557200  1
  Sr  Sr29  1  0.37689950  0.41583950  0.37871200  1
  Sr  Sr30  1  0.37689950  0.58416050  0.87871200  1
  Sr  Sr31  1  0.82928200  0.41212000  0.86442800  1
  Nb  Nb32  1  0.75000000  0.25000000  0.00000000  1
  Nb  Nb33  1  0.75000000  0.75000000  0.50000000  1
  Nb  Nb34  1  0.75006000  0.08509800  0.49590100  1
  Nb  Nb35  1  0.50000000  0.57638200  0.25000000  1
  Nb  Nb36  1  0.24994000  0.91490200  0.50409900  1
  Nb  Nb37  1  0.24994000  0.08509800  0.00409900  1
  Nb  Nb38  1  0.75006000  0.91490200  0.99590100  1
  Nb  Nb39  1  0.50000000  0.42361800  0.75000000  1
  Nb  Nb40  1  0.25000000  0.75000000  0.00000000  1
  Nb  Nb41  1  0.25000000  0.25000000  0.50000000  1
  Nb  Nb42  1  0.25006000  0.58509800  0.49590100  1
  Nb  Nb43  1  0.00000000  0.07638200  0.25000000  1
  Nb  Nb44  1  0.74994000  0.41490200  0.50409900  1
  Nb  Nb45  1  0.74994000  0.58509800  0.00409900  1
  Nb  Nb46  1  0.25006000  0.41490200  0.99590100  1
  Nb  Nb47  1  0.00000000  0.92361800  0.75000000  1
  O  O48  1  0.34192750  0.15885350  0.13218600  1
  O  O49  1  0.35237500  0.25150800  0.37593300  1
  O  O50  1  0.88617900  0.00627300  0.12214600  1
  O  O51  1  0.37781250  0.66706050  0.12735900  1
  O  O52  1  0.65807250  0.15885350  0.36781400  1
  O  O53  1  0.88288600  0.08626400  0.35745600  1
  O  O54  1  0.11711400  0.08626400  0.14254400  1
  O  O55  1  0.40090550  0.64537850  0.60073600  1
  O  O56  1  0.31461500  0.99763200  0.11940300  1
  O  O57  1  0.37389950  0.82596250  0.11184200  1
  O  O58  1  0.62218750  0.66706050  0.37264100  1
  O  O59  1  0.11382100  0.00627300  0.37785400  1
  O  O60  1  0.35271200  0.92419000  0.38926100  1
  O  O61  1  0.35237500  0.74849200  0.87593300  1
  O  O62  1  0.64728800  0.92419000  0.11073900  1
  O  O63  1  0.31461500  0.00236800  0.61940300  1
  O  O64  1  0.37389950  0.17403750  0.61184200  1
  O  O65  1  0.40090550  0.35462150  0.10073600  1
  O  O66  1  0.62610050  0.82596250  0.38815800  1
  O  O67  1  0.59909450  0.64537850  0.89926400  1
  O  O68  1  0.68538500  0.99763200  0.38059700  1
  O  O69  1  0.35271200  0.07581000  0.88926100  1
  O  O70  1  0.64728800  0.07581000  0.61073900  1
  O  O71  1  0.64762500  0.25150800  0.12406700  1
  O  O72  1  0.88617900  0.99372700  0.62214600  1
  O  O73  1  0.37781250  0.33293950  0.62735900  1
  O  O74  1  0.59909450  0.35462150  0.39926400  1
  O  O75  1  0.62610050  0.17403750  0.88815800  1
  O  O76  1  0.68538500  0.00236800  0.88059700  1
  O  O77  1  0.88288600  0.91373600  0.85745600  1
  O  O78  1  0.11711400  0.91373600  0.64254400  1
  O  O79  1  0.34192750  0.84114650  0.63218600  1
  O  O80  1  0.11382100  0.99372700  0.87785400  1
  O  O81  1  0.62218750  0.33293950  0.87264100  1
  O  O82  1  0.64762500  0.74849200  0.62406700  1
  O  O83  1  0.65807250  0.84114650  0.86781400  1
  O  O84  1  0.84192750  0.65885350  0.13218600  1
  O  O85  1  0.85237500  0.75150800  0.37593300  1
  O  O86  1  0.38617900  0.50627300  0.12214600  1
  O  O87  1  0.87781250  0.16706050  0.12735900  1
  O  O88  1  0.15807250  0.65885350  0.36781400  1
  O  O89  1  0.38288600  0.58626400  0.35745600  1
  O  O90  1  0.61711400  0.58626400  0.14254400  1
  O  O91  1  0.90090550  0.14537850  0.60073600  1
  O  O92  1  0.81461500  0.49763200  0.11940300  1
  O  O93  1  0.87389950  0.32596250  0.11184200  1
  O  O94  1  0.12218750  0.16706050  0.37264100  1
  O  O95  1  0.61382100  0.50627300  0.37785400  1
  O  O96  1  0.85271200  0.42419000  0.38926100  1
  O  O97  1  0.85237500  0.24849200  0.87593300  1
  O  O98  1  0.14728800  0.42419000  0.11073900  1
  O  O99  1  0.81461500  0.50236800  0.61940300  1
  O  O100  1  0.87389950  0.67403750  0.61184200  1
  O  O101  1  0.90090550  0.85462150  0.10073600  1
  O  O102  1  0.12610050  0.32596250  0.38815800  1
  O  O103  1  0.09909450  0.14537850  0.89926400  1
  O  O104  1  0.18538500  0.49763200  0.38059700  1
  O  O105  1  0.85271200  0.57581000  0.88926100  1
  O  O106  1  0.14728800  0.57581000  0.61073900  1
  O  O107  1  0.14762500  0.75150800  0.12406700  1
  O  O108  1  0.38617900  0.49372700  0.62214600  1
  O  O109  1  0.87781250  0.83293950  0.62735900  1
  O  O110  1  0.09909450  0.85462150  0.39926400  1
  O  O111  1  0.12610050  0.67403750  0.88815800  1
  O  O112  1  0.18538500  0.50236800  0.88059700  1
  O  O113  1  0.38288600  0.41373600  0.85745600  1
  O  O114  1  0.61711400  0.41373600  0.64254400  1
  O  O115  1  0.84192750  0.34114650  0.63218600  1
  O  O116  1  0.61382100  0.49372700  0.87785400  1
  O  O117  1  0.12218750  0.83293950  0.87264100  1
  O  O118  1  0.14762500  0.24849200  0.62406700  1
  O  O119  1  0.15807250  0.34114650  0.86781400  1
