# generated using pymatgen
data_KCu2P2H3(O4F)2
_symmetry_space_group_name_H-M   'P 1'
_cell_length_a   9.18723800
_cell_length_b   6.49315000
_cell_length_c   7.97991221
_cell_angle_alpha   90.00000000
_cell_angle_beta   119.11887148
_cell_angle_gamma   90.00000000
_symmetry_Int_Tables_number   1
_chemical_formula_structural   KCu2P2H3(O4F)2
_chemical_formula_sum   'K2 Cu4 P4 H6 O16 F4'
_cell_volume   415.86953160
_cell_formula_units_Z   2
loop_
 _symmetry_equiv_pos_site_id
 _symmetry_equiv_pos_as_xyz
  1  'x, y, z'
loop_
 _atom_site_type_symbol
 _atom_site_label
 _atom_site_symmetry_multiplicity
 _atom_site_fract_x
 _atom_site_fract_y
 _atom_site_fract_z
 _atom_site_occupancy
  K  K0  1  0.00000000  0.00000000  0.00000000  1
  K  K1  1  0.50000000  0.50000000  0.00000000  1
  Cu  Cu2  1  0.25000000  0.75000000  0.50000000  1
  Cu  Cu3  1  0.25000000  0.25000000  0.50000000  1
  Cu  Cu4  1  0.75000000  0.25000000  0.50000000  1
  Cu  Cu5  1  0.75000000  0.75000000  0.50000000  1
  P  P6  1  0.93482800  0.50000000  0.23991000  1
  P  P7  1  0.56517200  0.00000000  0.76009000  1
  P  P8  1  0.43482800  0.00000000  0.23991000  1
  P  P9  1  0.06517200  0.50000000  0.76009000  1
  H  H10  1  0.00000000  0.00000000  0.50000000  1
  H  H11  1  0.29597200  0.50000000  0.29380300  1
  H  H12  1  0.20402800  0.00000000  0.70619700  1
  H  H13  1  0.50000000  0.50000000  0.50000000  1
  H  H14  1  0.79597200  0.00000000  0.29380300  1
  H  H15  1  0.70402800  0.50000000  0.70619700  1
  O  O16  1  0.31131100  0.00000000  0.31340800  1
  O  O17  1  0.18868900  0.50000000  0.68659200  1
  O  O18  1  0.03454600  0.69951500  0.27221700  1
  O  O19  1  0.03454600  0.30048500  0.27221700  1
  O  O20  1  0.46545400  0.80048500  0.72778300  1
  O  O21  1  0.46545400  0.19951500  0.72778300  1
  O  O22  1  0.15141400  0.00000000  0.56556300  1
  O  O23  1  0.34858600  0.50000000  0.43443700  1
  O  O24  1  0.81131100  0.50000000  0.31340800  1
  O  O25  1  0.68868900  0.00000000  0.68659200  1
  O  O26  1  0.53454600  0.19951500  0.27221700  1
  O  O27  1  0.53454600  0.80048500  0.27221700  1
  O  O28  1  0.96545400  0.30048500  0.72778300  1
  O  O29  1  0.96545400  0.69951500  0.72778300  1
  O  O30  1  0.65141400  0.50000000  0.56556300  1
  O  O31  1  0.84858600  0.00000000  0.43443700  1
  F  F32  1  0.81913000  0.50000000  0.00730000  1
  F  F33  1  0.68087000  0.00000000  0.99270000  1
  F  F34  1  0.31913000  0.00000000  0.00730000  1
  F  F35  1  0.18087000  0.50000000  0.99270000  1
