# generated using pymatgen
data_Ca2As2O7
_symmetry_space_group_name_H-M   'P 1'
_cell_length_a   7.16182600
_cell_length_b   9.44893400
_cell_length_c   4.98852426
_cell_angle_alpha   90.00000000
_cell_angle_beta   101.70332709
_cell_angle_gamma   90.00000000
_symmetry_Int_Tables_number   1
_chemical_formula_structural   Ca2As2O7
_chemical_formula_sum   'Ca4 As4 O14'
_cell_volume   330.56355330
_cell_formula_units_Z   2
loop_
 _symmetry_equiv_pos_site_id
 _symmetry_equiv_pos_as_xyz
  1  'x, y, z'
loop_
 _atom_site_type_symbol
 _atom_site_label
 _atom_site_symmetry_multiplicity
 _atom_site_fract_x
 _atom_site_fract_y
 _atom_site_fract_z
 _atom_site_occupancy
  Ca  Ca0  1  0.50000000  0.80708700  0.50000000  1
  Ca  Ca1  1  0.50000000  0.19291300  0.50000000  1
  Ca  Ca2  1  0.00000000  0.30708700  0.50000000  1
  Ca  Ca3  1  0.00000000  0.69291300  0.50000000  1
  As  As4  1  0.22630100  0.00000000  0.90803400  1
  As  As5  1  0.77369900  0.00000000  0.09196600  1
  As  As6  1  0.72630100  0.50000000  0.90803400  1
  As  As7  1  0.27369900  0.50000000  0.09196600  1
  O  O8  1  0.23385300  0.84968700  0.72186200  1
  O  O9  1  0.76614700  0.84968700  0.27813800  1
  O  O10  1  0.76614700  0.15031300  0.27813800  1
  O  O11  1  0.23385300  0.15031300  0.72186200  1
  O  O12  1  0.00000000  0.00000000  0.00000000  1
  O  O13  1  0.38266500  0.00000000  0.21404800  1
  O  O14  1  0.61733500  0.00000000  0.78595200  1
  O  O15  1  0.73385300  0.34968700  0.72186200  1
  O  O16  1  0.26614700  0.34968700  0.27813800  1
  O  O17  1  0.26614700  0.65031300  0.27813800  1
  O  O18  1  0.73385300  0.65031300  0.72186200  1
  O  O19  1  0.50000000  0.50000000  0.00000000  1
  O  O20  1  0.88266500  0.50000000  0.21404800  1
  O  O21  1  0.11733500  0.50000000  0.78595200  1
