# generated using pymatgen
data_ReNCl4O3
_symmetry_space_group_name_H-M   'P 1'
_cell_length_a   10.03835200
_cell_length_b   10.88547600
_cell_length_c   15.75966290
_cell_angle_alpha   90.00000000
_cell_angle_beta   94.73915991
_cell_angle_gamma   90.00000000
_symmetry_Int_Tables_number   1
_chemical_formula_structural   ReNCl4O3
_chemical_formula_sum   'Re8 N8 Cl32 O24'
_cell_volume   1716.20608584
_cell_formula_units_Z   8
loop_
 _symmetry_equiv_pos_site_id
 _symmetry_equiv_pos_as_xyz
  1  'x, y, z'
loop_
 _atom_site_type_symbol
 _atom_site_label
 _atom_site_symmetry_multiplicity
 _atom_site_fract_x
 _atom_site_fract_y
 _atom_site_fract_z
 _atom_site_occupancy
  Re  Re0  1  0.58492000  0.78029300  0.21603200  1
  Re  Re1  1  0.78938400  0.23355300  0.03037500  1
  Re  Re2  1  0.21061600  0.73355300  0.46962500  1
  Re  Re3  1  0.41508000  0.21970700  0.78396800  1
  Re  Re4  1  0.21061600  0.76644700  0.96962500  1
  Re  Re5  1  0.58492000  0.71970700  0.71603200  1
  Re  Re6  1  0.41508000  0.28029300  0.28396800  1
  Re  Re7  1  0.78938400  0.26644700  0.53037500  1
  N  N8  1  0.14911800  0.14661500  0.47320700  1
  N  N9  1  0.18098500  0.49909100  0.74022400  1
  N  N10  1  0.85088200  0.64661500  0.02679300  1
  N  N11  1  0.85088200  0.85338500  0.52679300  1
  N  N12  1  0.81901500  0.50090900  0.25977600  1
  N  N13  1  0.14911800  0.35338500  0.97320700  1
  N  N14  1  0.18098500  0.00090900  0.24022400  1
  N  N15  1  0.81901500  0.99909100  0.75977600  1
  Cl  Cl16  1  0.07577200  0.90548700  0.39696200  1
  Cl  Cl17  1  0.14485200  0.30954300  0.80428900  1
  Cl  Cl18  1  0.85514800  0.80954300  0.69571100  1
  Cl  Cl19  1  0.92422800  0.09451300  0.60303800  1
  Cl  Cl20  1  0.53753500  0.59993600  0.13443600  1
  Cl  Cl21  1  0.61000000  0.85915800  0.82858300  1
  Cl  Cl22  1  0.39000000  0.35915800  0.67141700  1
  Cl  Cl23  1  0.38385200  0.12737000  0.91138800  1
  Cl  Cl24  1  0.39000000  0.14084200  0.17141700  1
  Cl  Cl25  1  0.82250600  0.34161800  0.90867000  1
  Cl  Cl26  1  0.17892700  0.64209200  0.33755300  1
  Cl  Cl27  1  0.07577200  0.59451300  0.89696200  1
  Cl  Cl28  1  0.96549800  0.66248800  0.48480500  1
  Cl  Cl29  1  0.17749400  0.65838200  0.09133000  1
  Cl  Cl30  1  0.38385200  0.37263000  0.41138800  1
  Cl  Cl31  1  0.53753500  0.90006400  0.63443600  1
  Cl  Cl32  1  0.96549800  0.83751200  0.98480500  1
  Cl  Cl33  1  0.85514800  0.69045700  0.19571100  1
  Cl  Cl34  1  0.61614800  0.62737000  0.58861200  1
  Cl  Cl35  1  0.61000000  0.64084200  0.32858300  1
  Cl  Cl36  1  0.92422800  0.40548700  0.10303800  1
  Cl  Cl37  1  0.46246500  0.09993600  0.36556400  1
  Cl  Cl38  1  0.03450200  0.16248800  0.01519500  1
  Cl  Cl39  1  0.82107300  0.35790800  0.66244700  1
  Cl  Cl40  1  0.14485200  0.19045700  0.30428900  1
  Cl  Cl41  1  0.61614800  0.87263000  0.08861200  1
  Cl  Cl42  1  0.03450200  0.33751200  0.51519500  1
  Cl  Cl43  1  0.82250600  0.15838200  0.40867000  1
  Cl  Cl44  1  0.82107300  0.14209200  0.16244700  1
  Cl  Cl45  1  0.17749400  0.84161800  0.59133000  1
  Cl  Cl46  1  0.46246500  0.40006400  0.86556400  1
  Cl  Cl47  1  0.17892700  0.85790800  0.83755300  1
  O  O48  1  0.31721300  0.11387200  0.72599100  1
  O  O49  1  0.11185000  0.98098600  0.18153800  1
  O  O50  1  0.68278700  0.61387200  0.77400900  1
  O  O51  1  0.64271600  0.30611300  0.04876200  1
  O  O52  1  0.25500800  0.14210000  0.50329800  1
  O  O53  1  0.42454100  0.67368200  0.72749300  1
  O  O54  1  0.88815000  0.01901400  0.81846200  1
  O  O55  1  0.26061400  0.59963200  0.52125700  1
  O  O56  1  0.35728400  0.69388700  0.95123800  1
  O  O57  1  0.57545900  0.32631800  0.27250700  1
  O  O58  1  0.73938600  0.40036800  0.47874300  1
  O  O59  1  0.74499200  0.64210000  0.99670200  1
  O  O60  1  0.26061400  0.90036800  0.02125700  1
  O  O61  1  0.11185000  0.51901400  0.68153800  1
  O  O62  1  0.73938600  0.09963200  0.97874300  1
  O  O63  1  0.68278700  0.88612800  0.27400900  1
  O  O64  1  0.25500800  0.35790000  0.00329800  1
  O  O65  1  0.64271600  0.19388700  0.54876200  1
  O  O66  1  0.57545900  0.17368200  0.77250700  1
  O  O67  1  0.42454100  0.82631800  0.22749300  1
  O  O68  1  0.31721300  0.38612800  0.22599100  1
  O  O69  1  0.74499200  0.85790000  0.49670200  1
  O  O70  1  0.35728400  0.80611300  0.45123800  1
  O  O71  1  0.88815000  0.48098600  0.31846200  1
