# generated using pymatgen
data_Tb14(PbSe8)3
_symmetry_space_group_name_H-M   'P 1'
_cell_length_a   12.51001000
_cell_length_b   8.79691800
_cell_length_c   19.77297873
_cell_angle_alpha   90.00000000
_cell_angle_beta   108.40107587
_cell_angle_gamma   90.00000000
_symmetry_Int_Tables_number   1
_chemical_formula_structural   Tb14(PbSe8)3
_chemical_formula_sum   'Tb28 Pb6 Se48'
_cell_volume   2064.74800159
_cell_formula_units_Z   2
loop_
 _symmetry_equiv_pos_site_id
 _symmetry_equiv_pos_as_xyz
  1  'x, y, z'
loop_
 _atom_site_type_symbol
 _atom_site_label
 _atom_site_symmetry_multiplicity
 _atom_site_fract_x
 _atom_site_fract_y
 _atom_site_fract_z
 _atom_site_occupancy
  Tb  Tb0  1  0.83294200  0.99797800  0.28749200  1
  Tb  Tb1  1  0.29078750  0.74911650  0.45989700  1
  Tb  Tb2  1  0.00373400  0.50131300  0.62801400  1
  Tb  Tb3  1  0.49626600  0.00131300  0.37198600  1
  Tb  Tb4  1  0.95951200  0.75032400  0.80105400  1
  Tb  Tb5  1  0.67594650  0.49511850  0.96105200  1
  Tb  Tb6  1  0.70921250  0.74911650  0.54010300  1
  Tb  Tb7  1  0.66705800  0.49797800  0.71250800  1
  Tb  Tb8  1  0.62658000  0.75601400  0.12225600  1
  Tb  Tb9  1  0.16966350  0.37489650  0.83684100  1
  Tb  Tb10  1  0.87342000  0.25601400  0.87774400  1
  Tb  Tb11  1  0.82405350  0.99511850  0.03894800  1
  Tb  Tb12  1  0.33033650  0.87489650  0.16315900  1
  Tb  Tb13  1  0.54048800  0.25032400  0.19894600  1
  Tb  Tb14  1  0.33294200  0.49797800  0.28749200  1
  Tb  Tb15  1  0.79078750  0.24911650  0.45989700  1
  Tb  Tb16  1  0.50373400  0.00131300  0.62801400  1
  Tb  Tb17  1  0.99626600  0.50131300  0.37198600  1
  Tb  Tb18  1  0.45951200  0.25032400  0.80105400  1
  Tb  Tb19  1  0.17594650  0.99511850  0.96105200  1
  Tb  Tb20  1  0.20921250  0.24911650  0.54010300  1
  Tb  Tb21  1  0.16705800  0.99797800  0.71250800  1
  Tb  Tb22  1  0.12658000  0.25601400  0.12225600  1
  Tb  Tb23  1  0.66966350  0.87489650  0.83684100  1
  Tb  Tb24  1  0.37342000  0.75601400  0.87774400  1
  Tb  Tb25  1  0.32405350  0.49511850  0.03894800  1
  Tb  Tb26  1  0.83033650  0.37489650  0.16315900  1
  Tb  Tb27  1  0.04048800  0.75032400  0.19894600  1
  Pb  Pb28  1  0.00000000  0.87526800  0.50000000  1
  Pb  Pb29  1  0.66535800  0.62432100  0.33228000  1
  Pb  Pb30  1  0.83464200  0.12432100  0.66772000  1
  Pb  Pb31  1  0.50000000  0.37526800  0.50000000  1
  Pb  Pb32  1  0.16535800  0.12432100  0.33228000  1
  Pb  Pb33  1  0.33464200  0.62432100  0.66772000  1
  Se  Se34  1  0.50624600  0.68780500  0.41719500  1
  Se  Se35  1  0.75517450  0.93725050  0.41210800  1
  Se  Se36  1  0.17582800  0.67948300  0.75344000  1
  Se  Se37  1  0.93485500  0.43640200  0.75432100  1
  Se  Se38  1  0.64045550  0.06307250  0.53288700  1
  Se  Se39  1  0.74482550  0.43725050  0.58789200  1
  Se  Se40  1  0.06136350  0.81401450  0.36457000  1
  Se  Se41  1  0.34034550  0.17643650  0.08222700  1
  Se  Se42  1  0.27534550  0.81471750  0.29364200  1
  Se  Se43  1  0.93863650  0.81401450  0.63543000  1
  Se  Se44  1  0.52815350  0.56916150  0.80191300  1
  Se  Se45  1  0.85954450  0.56307250  0.46711300  1
  Se  Se46  1  0.09835950  0.93866050  0.08424500  1
  Se  Se47  1  0.80688950  0.57435150  0.86609300  1
  Se  Se48  1  0.90164050  0.93866050  0.91575500  1
  Se  Se49  1  0.72465450  0.81471750  0.70635800  1
  Se  Se50  1  0.10804400  0.30943000  0.96292600  1
  Se  Se51  1  0.49375400  0.68780500  0.58280500  1
  Se  Se52  1  0.47184650  0.56916150  0.19808700  1
  Se  Se53  1  0.56514500  0.93640200  0.24567900  1
  Se  Se54  1  0.39195600  0.80943000  0.03707400  1
  Se  Se55  1  0.15965450  0.67643650  0.91777300  1
  Se  Se56  1  0.69311050  0.07435150  0.13390700  1
  Se  Se57  1  0.82417200  0.67948300  0.24656000  1
  Se  Se58  1  0.00624600  0.18780500  0.41719500  1
  Se  Se59  1  0.25517450  0.43725050  0.41210800  1
  Se  Se60  1  0.67582800  0.17948300  0.75344000  1
  Se  Se61  1  0.43485500  0.93640200  0.75432100  1
  Se  Se62  1  0.14045550  0.56307250  0.53288700  1
  Se  Se63  1  0.24482550  0.93725050  0.58789200  1
  Se  Se64  1  0.56136350  0.31401450  0.36457000  1
  Se  Se65  1  0.84034550  0.67643650  0.08222700  1
  Se  Se66  1  0.77534550  0.31471750  0.29364200  1
  Se  Se67  1  0.43863650  0.31401450  0.63543000  1
  Se  Se68  1  0.02815350  0.06916150  0.80191300  1
  Se  Se69  1  0.35954450  0.06307250  0.46711300  1
  Se  Se70  1  0.59835950  0.43866050  0.08424500  1
  Se  Se71  1  0.30688950  0.07435150  0.86609300  1
  Se  Se72  1  0.40164050  0.43866050  0.91575500  1
  Se  Se73  1  0.22465450  0.31471750  0.70635800  1
  Se  Se74  1  0.60804400  0.80943000  0.96292600  1
  Se  Se75  1  0.99375400  0.18780500  0.58280500  1
  Se  Se76  1  0.97184650  0.06916150  0.19808700  1
  Se  Se77  1  0.06514500  0.43640200  0.24567900  1
  Se  Se78  1  0.89195600  0.30943000  0.03707400  1
  Se  Se79  1  0.65965450  0.17643650  0.91777300  1
  Se  Se80  1  0.19311050  0.57435150  0.13390700  1
  Se  Se81  1  0.32417200  0.17948300  0.24656000  1
