# generated using pymatgen
data_HPbClO
_symmetry_space_group_name_H-M   'P 1'
_cell_length_a   10.96500000
_cell_length_b   4.05675600
_cell_length_c   7.39462902
_cell_angle_alpha   90.00000000
_cell_angle_beta   117.13293514
_cell_angle_gamma   90.00000000
_symmetry_Int_Tables_number   1
_chemical_formula_structural   HPbClO
_chemical_formula_sum   'H4 Pb4 Cl4 O4'
_cell_volume   292.73180525
_cell_formula_units_Z   4
loop_
 _symmetry_equiv_pos_site_id
 _symmetry_equiv_pos_as_xyz
  1  'x, y, z'
loop_
 _atom_site_type_symbol
 _atom_site_label
 _atom_site_symmetry_multiplicity
 _atom_site_fract_x
 _atom_site_fract_y
 _atom_site_fract_z
 _atom_site_occupancy
  H  H0  1  0.88608400  0.00000000  0.40157500  1
  H  H1  1  0.11391600  0.00000000  0.59842500  1
  H  H2  1  0.38608400  0.50000000  0.40157500  1
  H  H3  1  0.61391600  0.50000000  0.59842500  1
  Pb  Pb4  1  0.32508200  0.50000000  0.75888700  1
  Pb  Pb5  1  0.67491800  0.50000000  0.24111300  1
  Pb  Pb6  1  0.82508200  0.00000000  0.75888700  1
  Pb  Pb7  1  0.17491800  0.00000000  0.24111300  1
  Cl  Cl8  1  0.06627900  0.50000000  0.81179400  1
  Cl  Cl9  1  0.93372100  0.50000000  0.18820600  1
  Cl  Cl10  1  0.56627900  0.00000000  0.81179400  1
  Cl  Cl11  1  0.43372100  0.00000000  0.18820600  1
  O  O12  1  0.80160900  0.00000000  0.41537500  1
  O  O13  1  0.19839100  0.00000000  0.58462500  1
  O  O14  1  0.30160900  0.50000000  0.41537500  1
  O  O15  1  0.69839100  0.50000000  0.58462500  1
