# generated using pymatgen
data_MgH10C4(N2O3)2
_symmetry_space_group_name_H-M   'P 1'
_cell_length_a   17.35847200
_cell_length_b   17.16252800
_cell_length_c   15.48777618
_cell_angle_alpha   90.00000000
_cell_angle_beta   122.94691362
_cell_angle_gamma   90.00000000
_symmetry_Int_Tables_number   1
_chemical_formula_structural   MgH10C4(N2O3)2
_chemical_formula_sum   'Mg16 H160 C64 N64 O96'
_cell_volume   3871.99035687
_cell_formula_units_Z   16
loop_
 _symmetry_equiv_pos_site_id
 _symmetry_equiv_pos_as_xyz
  1  'x, y, z'
loop_
 _atom_site_type_symbol
 _atom_site_label
 _atom_site_symmetry_multiplicity
 _atom_site_fract_x
 _atom_site_fract_y
 _atom_site_fract_z
 _atom_site_occupancy
  Mg  Mg0  1  0.74638700  0.49351700  0.00374900  1
  Mg  Mg1  1  0.25361300  0.49351700  0.49625100  1
  Mg  Mg2  1  0.25361300  0.50648300  0.99625100  1
  Mg  Mg3  1  0.74638700  0.50648300  0.50374900  1
  Mg  Mg4  1  0.99666150  0.74535550  0.00351300  1
  Mg  Mg5  1  0.00333850  0.74535550  0.49648700  1
  Mg  Mg6  1  0.00333850  0.25464450  0.99648700  1
  Mg  Mg7  1  0.99666150  0.25464450  0.50351300  1
  Mg  Mg8  1  0.24638700  0.99351700  0.00374900  1
  Mg  Mg9  1  0.75361300  0.99351700  0.49625100  1
  Mg  Mg10  1  0.75361300  0.00648300  0.99625100  1
  Mg  Mg11  1  0.24638700  0.00648300  0.50374900  1
  Mg  Mg12  1  0.49666150  0.24535550  0.00351300  1
  Mg  Mg13  1  0.50333850  0.24535550  0.49648700  1
  Mg  Mg14  1  0.50333850  0.75464450  0.99648700  1
  Mg  Mg15  1  0.49666150  0.75464450  0.50351300  1
  H  H16  1  0.94587400  0.40401600  0.32934500  1
  H  H17  1  0.05412600  0.40401600  0.17065500  1
  H  H18  1  0.05412600  0.59598400  0.67065500  1
  H  H19  1  0.94587400  0.59598400  0.82934500  1
  H  H20  1  0.99986850  0.49075650  0.39230300  1
  H  H21  1  0.00013150  0.49075650  0.10769700  1
  H  H22  1  0.00013150  0.50924350  0.60769700  1
  H  H23  1  0.99986850  0.50924350  0.89230300  1
  H  H24  1  0.85334650  0.61161550  0.17934900  1
  H  H25  1  0.14665350  0.61161550  0.32065100  1
  H  H26  1  0.14665350  0.38838450  0.82065100  1
  H  H27  1  0.85334650  0.38838450  0.67934900  1
  H  H28  1  0.94022350  0.60811450  0.31168700  1
  H  H29  1  0.05977650  0.60811450  0.18831300  1
  H  H30  1  0.05977650  0.39188550  0.68831300  1
  H  H31  1  0.94022350  0.39188550  0.81168700  1
  H  H32  1  0.99422200  0.02557500  0.67431100  1
  H  H33  1  0.00577800  0.02557500  0.82568900  1
  H  H34  1  0.00577800  0.97442500  0.32568900  1
  H  H35  1  0.99422200  0.97442500  0.17431100  1
  H  H36  1  0.54941000  0.54885400  0.61097300  1
  H  H37  1  0.45059000  0.54885400  0.88902700  1
  H  H38  1  0.45059000  0.45114600  0.38902700  1
  H  H39  1  0.54941000  0.45114600  0.11097300  1
  H  H40  1  0.70185350  0.53717950  0.68827900  1
  H  H41  1  0.29814650  0.53717950  0.81172100  1
  H  H42  1  0.29814650  0.46282050  0.31172100  1
  H  H43  1  0.70185350  0.46282050  0.18827900  1
  H  H44  1  0.77307750  0.52407450  0.82239300  1
  H  H45  1  0.22692250  0.52407450  0.67760700  1
  H  H46  1  0.22692250  0.47592550  0.17760700  1
  H  H47  1  0.77307750  0.47592550  0.32239300  1
  H  H48  1  0.11546900  0.84768500  0.93831200  1
  H  H49  1  0.88453100  0.84768500  0.56168800  1
  H  H50  1  0.88453100  0.15231500  0.06168800  1
  H  H51  1  0.11546900  0.15231500  0.43831200  1
  H  H52  1  0.90753550  0.40282050  0.01653000  1
  H  H53  1  0.09246450  0.40282050  0.48347000  1
  H  H54  1  0.09246450  0.59717950  0.98347000  1
  H  H55  1  0.90753550  0.59717950  0.51653000  1
  H  H56  1  0.18385700  0.77241300  0.40093900  1
  H  H57  1  0.81614300  0.77241300  0.09906100  1
  H  H58  1  0.81614300  0.22758700  0.59906100  1
  H  H59  1  0.18385700  0.22758700  0.90093900  1
  H  H60  1  0.06377600  0.77288600  0.33228600  1
  H  H61  1  0.93622400  0.77288600  0.16771400  1
  H  H62  1  0.93622400  0.22711400  0.66771400  1
  H  H63  1  0.06377600  0.22711400  0.83228600  1
  H  H64  1  0.76003100  0.25098500  0.32137400  1
  H  H65  1  0.23996900  0.25098500  0.17862600  1
  H  H66  1  0.23996900  0.74901500  0.67862600  1
  H  H67  1  0.76003100  0.74901500  0.82137400  1
  H  H68  1  0.19934100  0.74916800  0.18623800  1
  H  H69  1  0.80065900  0.74916800  0.31376200  1
  H  H70  1  0.80065900  0.25083200  0.81376200  1
  H  H71  1  0.19934100  0.25083200  0.68623800  1
  H  H72  1  0.80487700  0.74158200  0.60736500  1
  H  H73  1  0.19512300  0.74158200  0.89263500  1
  H  H74  1  0.19512300  0.25841800  0.39263500  1
  H  H75  1  0.80487700  0.25841800  0.10736500  1
  H  H76  1  0.84702650  0.65305850  0.67361500  1
  H  H77  1  0.15297350  0.65305850  0.82638500  1
  H  H78  1  0.15297350  0.34694150  0.32638500  1
  H  H79  1  0.84702650  0.34694150  0.17361500  1
  H  H80  1  0.92258200  0.86169800  0.82424100  1
  H  H81  1  0.07741800  0.86169800  0.67575900  1
  H  H82  1  0.07741800  0.13830200  0.17575900  1
  H  H83  1  0.92258200  0.13830200  0.32424100  1
  H  H84  1  0.34359600  0.35731400  0.68946300  1
  H  H85  1  0.65640400  0.35731400  0.81053700  1
  H  H86  1  0.65640400  0.64268600  0.31053700  1
  H  H87  1  0.34359600  0.64268600  0.18946300  1
  H  H88  1  0.59593900  0.59322900  0.01235200  1
  H  H89  1  0.40406100  0.59322900  0.48764800  1
  H  H90  1  0.40406100  0.40677100  0.98764800  1
  H  H91  1  0.59593900  0.40677100  0.51235200  1
  H  H92  1  0.82215250  0.65122550  0.95607100  1
  H  H93  1  0.17784750  0.65122550  0.54392900  1
  H  H94  1  0.17784750  0.34877450  0.04392900  1
  H  H95  1  0.82215250  0.34877450  0.45607100  1
  H  H96  1  0.44587400  0.90401600  0.32934500  1
  H  H97  1  0.55412600  0.90401600  0.17065500  1
  H  H98  1  0.55412600  0.09598400  0.67065500  1
  H  H99  1  0.44587400  0.09598400  0.82934500  1
  H  H100  1  0.49986850  0.99075650  0.39230300  1
  H  H101  1  0.50013150  0.99075650  0.10769700  1
  H  H102  1  0.50013150  0.00924350  0.60769700  1
  H  H103  1  0.49986850  0.00924350  0.89230300  1
  H  H104  1  0.35334650  0.11161550  0.17934900  1
  H  H105  1  0.64665350  0.11161550  0.32065100  1
  H  H106  1  0.64665350  0.88838450  0.82065100  1
  H  H107  1  0.35334650  0.88838450  0.67934900  1
  H  H108  1  0.44022350  0.10811450  0.31168700  1
  H  H109  1  0.55977650  0.10811450  0.18831300  1
  H  H110  1  0.55977650  0.89188550  0.68831300  1
  H  H111  1  0.44022350  0.89188550  0.81168700  1
  H  H112  1  0.49422200  0.52557500  0.67431100  1
  H  H113  1  0.50577800  0.52557500  0.82568900  1
  H  H114  1  0.50577800  0.47442500  0.32568900  1
  H  H115  1  0.49422200  0.47442500  0.17431100  1
  H  H116  1  0.04941000  0.04885400  0.61097300  1
  H  H117  1  0.95059000  0.04885400  0.88902700  1
  H  H118  1  0.95059000  0.95114600  0.38902700  1
  H  H119  1  0.04941000  0.95114600  0.11097300  1
  H  H120  1  0.20185350  0.03717950  0.68827900  1
  H  H121  1  0.79814650  0.03717950  0.81172100  1
  H  H122  1  0.79814650  0.96282050  0.31172100  1
  H  H123  1  0.20185350  0.96282050  0.18827900  1
  H  H124  1  0.27307750  0.02407450  0.82239300  1
  H  H125  1  0.72692250  0.02407450  0.67760700  1
  H  H126  1  0.72692250  0.97592550  0.17760700  1
  H  H127  1  0.27307750  0.97592550  0.32239300  1
  H  H128  1  0.61546900  0.34768500  0.93831200  1
  H  H129  1  0.38453100  0.34768500  0.56168800  1
  H  H130  1  0.38453100  0.65231500  0.06168800  1
  H  H131  1  0.61546900  0.65231500  0.43831200  1
  H  H132  1  0.40753550  0.90282050  0.01653000  1
  H  H133  1  0.59246450  0.90282050  0.48347000  1
  H  H134  1  0.59246450  0.09717950  0.98347000  1
  H  H135  1  0.40753550  0.09717950  0.51653000  1
  H  H136  1  0.68385700  0.27241300  0.40093900  1
  H  H137  1  0.31614300  0.27241300  0.09906100  1
  H  H138  1  0.31614300  0.72758700  0.59906100  1
  H  H139  1  0.68385700  0.72758700  0.90093900  1
  H  H140  1  0.56377600  0.27288600  0.33228600  1
  H  H141  1  0.43622400  0.27288600  0.16771400  1
  H  H142  1  0.43622400  0.72711400  0.66771400  1
  H  H143  1  0.56377600  0.72711400  0.83228600  1
  H  H144  1  0.26003100  0.75098500  0.32137400  1
  H  H145  1  0.73996900  0.75098500  0.17862600  1
  H  H146  1  0.73996900  0.24901500  0.67862600  1
  H  H147  1  0.26003100  0.24901500  0.82137400  1
  H  H148  1  0.69934100  0.24916800  0.18623800  1
  H  H149  1  0.30065900  0.24916800  0.31376200  1
  H  H150  1  0.30065900  0.75083200  0.81376200  1
  H  H151  1  0.69934100  0.75083200  0.68623800  1
  H  H152  1  0.30487700  0.24158200  0.60736500  1
  H  H153  1  0.69512300  0.24158200  0.89263500  1
  H  H154  1  0.69512300  0.75841800  0.39263500  1
  H  H155  1  0.30487700  0.75841800  0.10736500  1
  H  H156  1  0.34702650  0.15305850  0.67361500  1
  H  H157  1  0.65297350  0.15305850  0.82638500  1
  H  H158  1  0.65297350  0.84694150  0.32638500  1
  H  H159  1  0.34702650  0.84694150  0.17361500  1
  H  H160  1  0.42258200  0.36169800  0.82424100  1
  H  H161  1  0.57741800  0.36169800  0.67575900  1
  H  H162  1  0.57741800  0.63830200  0.17575900  1
  H  H163  1  0.42258200  0.63830200  0.32424100  1
  H  H164  1  0.84359600  0.85731400  0.68946300  1
  H  H165  1  0.15640400  0.85731400  0.81053700  1
  H  H166  1  0.15640400  0.14268600  0.31053700  1
  H  H167  1  0.84359600  0.14268600  0.18946300  1
  H  H168  1  0.09593900  0.09322900  0.01235200  1
  H  H169  1  0.90406100  0.09322900  0.48764800  1
  H  H170  1  0.90406100  0.90677100  0.98764800  1
  H  H171  1  0.09593900  0.90677100  0.51235200  1
  H  H172  1  0.32215250  0.15122550  0.95607100  1
  H  H173  1  0.67784750  0.15122550  0.54392900  1
  H  H174  1  0.67784750  0.84877450  0.04392900  1
  H  H175  1  0.32215250  0.84877450  0.45607100  1
  C  C176  1  0.89163350  0.50211850  0.24130300  1
  C  C177  1  0.10836650  0.50211850  0.25869700  1
  C  C178  1  0.10836650  0.49788150  0.75869700  1
  C  C179  1  0.89163350  0.49788150  0.74130300  1
  C  C180  1  0.63535250  0.52120250  0.76381500  1
  C  C181  1  0.36464750  0.52120250  0.73618500  1
  C  C182  1  0.36464750  0.47879750  0.23618500  1
  C  C183  1  0.63535250  0.47879750  0.26381500  1
  C  C184  1  0.10045350  0.88406150  0.98658600  1
  C  C185  1  0.89954650  0.88406150  0.51341400  1
  C  C186  1  0.89954650  0.11593850  0.01341400  1
  C  C187  1  0.10045350  0.11593850  0.48658600  1
  C  C188  1  0.85115450  0.36005750  0.97801200  1
  C  C189  1  0.14884550  0.36005750  0.52198800  1
  C  C190  1  0.14884550  0.63994250  0.02198800  1
  C  C191  1  0.85115450  0.63994250  0.47801200  1
  C  C192  1  0.12050700  0.76552100  0.24437400  1
  C  C193  1  0.87949300  0.76552100  0.25562600  1
  C  C194  1  0.87949300  0.23447900  0.75562600  1
  C  C195  1  0.12050700  0.23447900  0.74437400  1
  C  C196  1  0.89379100  0.75203600  0.76364100  1
  C  C197  1  0.10620900  0.75203600  0.73635900  1
  C  C198  1  0.10620900  0.24796400  0.23635900  1
  C  C199  1  0.89379100  0.24796400  0.26364100  1
  C  C200  1  0.65082750  0.63551050  0.03022800  1
  C  C201  1  0.34917250  0.63551050  0.46977200  1
  C  C202  1  0.34917250  0.36448950  0.96977200  1
  C  C203  1  0.65082750  0.36448950  0.53022800  1
  C  C204  1  0.87926900  0.60871700  0.99355700  1
  C  C205  1  0.12073100  0.60871700  0.50644300  1
  C  C206  1  0.12073100  0.39128300  0.00644300  1
  C  C207  1  0.87926900  0.39128300  0.49355700  1
  C  C208  1  0.39163350  0.00211850  0.24130300  1
  C  C209  1  0.60836650  0.00211850  0.25869700  1
  C  C210  1  0.60836650  0.99788150  0.75869700  1
  C  C211  1  0.39163350  0.99788150  0.74130300  1
  C  C212  1  0.13535250  0.02120250  0.76381500  1
  C  C213  1  0.86464750  0.02120250  0.73618500  1
  C  C214  1  0.86464750  0.97879750  0.23618500  1
  C  C215  1  0.13535250  0.97879750  0.26381500  1
  C  C216  1  0.60045350  0.38406150  0.98658600  1
  C  C217  1  0.39954650  0.38406150  0.51341400  1
  C  C218  1  0.39954650  0.61593850  0.01341400  1
  C  C219  1  0.60045350  0.61593850  0.48658600  1
  C  C220  1  0.35115450  0.86005750  0.97801200  1
  C  C221  1  0.64884550  0.86005750  0.52198800  1
  C  C222  1  0.64884550  0.13994250  0.02198800  1
  C  C223  1  0.35115450  0.13994250  0.47801200  1
  C  C224  1  0.62050700  0.26552100  0.24437400  1
  C  C225  1  0.37949300  0.26552100  0.25562600  1
  C  C226  1  0.37949300  0.73447900  0.75562600  1
  C  C227  1  0.62050700  0.73447900  0.74437400  1
  C  C228  1  0.39379100  0.25203600  0.76364100  1
  C  C229  1  0.60620900  0.25203600  0.73635900  1
  C  C230  1  0.60620900  0.74796400  0.23635900  1
  C  C231  1  0.39379100  0.74796400  0.26364100  1
  C  C232  1  0.15082750  0.13551050  0.03022800  1
  C  C233  1  0.84917250  0.13551050  0.46977200  1
  C  C234  1  0.84917250  0.86448950  0.96977200  1
  C  C235  1  0.15082750  0.86448950  0.53022800  1
  C  C236  1  0.37926900  0.10871700  0.99355700  1
  C  C237  1  0.62073100  0.10871700  0.50644300  1
  C  C238  1  0.62073100  0.89128300  0.00644300  1
  C  C239  1  0.37926900  0.89128300  0.49355700  1
  N  N240  1  0.94510900  0.46355000  0.33101500  1
  N  N241  1  0.05489100  0.46355000  0.16898500  1
  N  N242  1  0.05489100  0.53645000  0.66898500  1
  N  N243  1  0.94510900  0.53645000  0.83101500  1
  N  N244  1  0.89782450  0.58037250  0.24339100  1
  N  N245  1  0.10217550  0.58037250  0.25660900  1
  N  N246  1  0.10217550  0.41962750  0.75660900  1
  N  N247  1  0.89782450  0.41962750  0.74339100  1
  N  N248  1  0.55283650  0.52655450  0.67396000  1
  N  N249  1  0.44716350  0.52655450  0.82604000  1
  N  N250  1  0.44716350  0.47344550  0.32604000  1
  N  N251  1  0.55283650  0.47344550  0.17396000  1
  N  N252  1  0.70964850  0.52477450  0.75714700  1
  N  N253  1  0.29035150  0.52477450  0.74285300  1
  N  N254  1  0.29035150  0.47522550  0.24285300  1
  N  N255  1  0.70964850  0.47522550  0.25714700  1
  N  N256  1  0.12302850  0.77021650  0.33267600  1
  N  N257  1  0.87697150  0.77021650  0.16732400  1
  N  N258  1  0.87697150  0.22978350  0.66732400  1
  N  N259  1  0.12302850  0.22978350  0.83267600  1
  N  N260  1  0.20155850  0.76308150  0.25159500  1
  N  N261  1  0.79844150  0.76308150  0.24840500  1
  N  N262  1  0.79844150  0.23691850  0.74840500  1
  N  N263  1  0.20155850  0.23691850  0.75159500  1
  N  N264  1  0.84721750  0.71266250  0.67401500  1
  N  N265  1  0.15278250  0.71266250  0.82598500  1
  N  N266  1  0.15278250  0.28733750  0.32598500  1
  N  N267  1  0.84721750  0.28733750  0.17401500  1
  N  N268  1  0.88699250  0.83040750  0.75846300  1
  N  N269  1  0.11300750  0.83040750  0.74153700  1
  N  N270  1  0.11300750  0.16959250  0.24153700  1
  N  N271  1  0.88699250  0.16959250  0.25846300  1
  N  N272  1  0.44510900  0.96355000  0.33101500  1
  N  N273  1  0.55489100  0.96355000  0.16898500  1
  N  N274  1  0.55489100  0.03645000  0.66898500  1
  N  N275  1  0.44510900  0.03645000  0.83101500  1
  N  N276  1  0.39782450  0.08037250  0.24339100  1
  N  N277  1  0.60217550  0.08037250  0.25660900  1
  N  N278  1  0.60217550  0.91962750  0.75660900  1
  N  N279  1  0.39782450  0.91962750  0.74339100  1
  N  N280  1  0.05283650  0.02655450  0.67396000  1
  N  N281  1  0.94716350  0.02655450  0.82604000  1
  N  N282  1  0.94716350  0.97344550  0.32604000  1
  N  N283  1  0.05283650  0.97344550  0.17396000  1
  N  N284  1  0.20964850  0.02477450  0.75714700  1
  N  N285  1  0.79035150  0.02477450  0.74285300  1
  N  N286  1  0.79035150  0.97522550  0.24285300  1
  N  N287  1  0.20964850  0.97522550  0.25714700  1
  N  N288  1  0.62302850  0.27021650  0.33267600  1
  N  N289  1  0.37697150  0.27021650  0.16732400  1
  N  N290  1  0.37697150  0.72978350  0.66732400  1
  N  N291  1  0.62302850  0.72978350  0.83267600  1
  N  N292  1  0.70155850  0.26308150  0.25159500  1
  N  N293  1  0.29844150  0.26308150  0.24840500  1
  N  N294  1  0.29844150  0.73691850  0.74840500  1
  N  N295  1  0.70155850  0.73691850  0.75159500  1
  N  N296  1  0.34721750  0.21266250  0.67401500  1
  N  N297  1  0.65278250  0.21266250  0.82598500  1
  N  N298  1  0.65278250  0.78733750  0.32598500  1
  N  N299  1  0.34721750  0.78733750  0.17401500  1
  N  N300  1  0.38699250  0.33040750  0.75846300  1
  N  N301  1  0.61300750  0.33040750  0.74153700  1
  N  N302  1  0.61300750  0.66959250  0.24153700  1
  N  N303  1  0.38699250  0.66959250  0.25846300  1
  O  O304  1  0.83623150  0.46441350  0.15932000  1
  O  O305  1  0.16376850  0.46441350  0.34068000  1
  O  O306  1  0.16376850  0.53558650  0.84068000  1
  O  O307  1  0.83623150  0.53558650  0.65932000  1
  O  O308  1  0.64126650  0.51011650  0.84842100  1
  O  O309  1  0.35873350  0.51011650  0.65157900  1
  O  O310  1  0.35873350  0.48988350  0.15157900  1
  O  O311  1  0.64126650  0.48988350  0.34842100  1
  O  O312  1  0.64602050  0.44630350  0.02464100  1
  O  O313  1  0.35397950  0.44630350  0.47535900  1
  O  O314  1  0.35397950  0.55369650  0.97535900  1
  O  O315  1  0.64602050  0.55369650  0.52464100  1
  O  O316  1  0.77280700  0.38139800  0.95818600  1
  O  O317  1  0.22719300  0.38139800  0.54181400  1
  O  O318  1  0.22719300  0.61860200  0.04181400  1
  O  O319  1  0.77280700  0.61860200  0.45818600  1
  O  O320  1  0.72367800  0.60958800  0.03998400  1
  O  O321  1  0.27632200  0.60958800  0.46001600  1
  O  O322  1  0.27632200  0.39041200  0.96001600  1
  O  O323  1  0.72367800  0.39041200  0.53998400  1
  O  O324  1  0.85973350  0.53898950  0.00262400  1
  O  O325  1  0.14026650  0.53898950  0.49737600  1
  O  O326  1  0.14026650  0.46101050  0.99737600  1
  O  O327  1  0.85973350  0.46101050  0.50262400  1
  O  O328  1  0.94184950  0.71600950  0.84886300  1
  O  O329  1  0.05815050  0.71600950  0.65113700  1
  O  O330  1  0.05815050  0.28399050  0.15113700  1
  O  O331  1  0.94184950  0.28399050  0.34886300  1
  O  O332  1  0.04375350  0.76372650  0.15812700  1
  O  O333  1  0.95624650  0.76372650  0.34187300  1
  O  O334  1  0.95624650  0.23627350  0.84187300  1
  O  O335  1  0.04375350  0.23627350  0.65812700  1
  O  O336  1  0.13574250  0.20672650  0.03979300  1
  O  O337  1  0.86425750  0.20672650  0.46020700  1
  O  O338  1  0.86425750  0.79327350  0.96020700  1
  O  O339  1  0.13574250  0.79327350  0.53979300  1
  O  O340  1  0.95929650  0.63306250  0.02485300  1
  O  O341  1  0.04070350  0.63306250  0.47514700  1
  O  O342  1  0.04070350  0.36693750  0.97514700  1
  O  O343  1  0.95929650  0.36693750  0.52485300  1
  O  O344  1  0.03850550  0.86036250  0.00020400  1
  O  O345  1  0.96149450  0.86036250  0.49979600  1
  O  O346  1  0.96149450  0.13963750  0.99979600  1
  O  O347  1  0.03850550  0.13963750  0.50020400  1
  O  O348  1  0.86934350  0.29411550  0.95604200  1
  O  O349  1  0.13065650  0.29411550  0.54395800  1
  O  O350  1  0.13065650  0.70588450  0.04395800  1
  O  O351  1  0.86934350  0.70588450  0.45604200  1
  O  O352  1  0.33623150  0.96441350  0.15932000  1
  O  O353  1  0.66376850  0.96441350  0.34068000  1
  O  O354  1  0.66376850  0.03558650  0.84068000  1
  O  O355  1  0.33623150  0.03558650  0.65932000  1
  O  O356  1  0.14126650  0.01011650  0.84842100  1
  O  O357  1  0.85873350  0.01011650  0.65157900  1
  O  O358  1  0.85873350  0.98988350  0.15157900  1
  O  O359  1  0.14126650  0.98988350  0.34842100  1
  O  O360  1  0.14602050  0.94630350  0.02464100  1
  O  O361  1  0.85397950  0.94630350  0.47535900  1
  O  O362  1  0.85397950  0.05369650  0.97535900  1
  O  O363  1  0.14602050  0.05369650  0.52464100  1
  O  O364  1  0.27280700  0.88139800  0.95818600  1
  O  O365  1  0.72719300  0.88139800  0.54181400  1
  O  O366  1  0.72719300  0.11860200  0.04181400  1
  O  O367  1  0.27280700  0.11860200  0.45818600  1
  O  O368  1  0.22367800  0.10958800  0.03998400  1
  O  O369  1  0.77632200  0.10958800  0.46001600  1
  O  O370  1  0.77632200  0.89041200  0.96001600  1
  O  O371  1  0.22367800  0.89041200  0.53998400  1
  O  O372  1  0.35973350  0.03898950  0.00262400  1
  O  O373  1  0.64026650  0.03898950  0.49737600  1
  O  O374  1  0.64026650  0.96101050  0.99737600  1
  O  O375  1  0.35973350  0.96101050  0.50262400  1
  O  O376  1  0.44184950  0.21600950  0.84886300  1
  O  O377  1  0.55815050  0.21600950  0.65113700  1
  O  O378  1  0.55815050  0.78399050  0.15113700  1
  O  O379  1  0.44184950  0.78399050  0.34886300  1
  O  O380  1  0.54375350  0.26372650  0.15812700  1
  O  O381  1  0.45624650  0.26372650  0.34187300  1
  O  O382  1  0.45624650  0.73627350  0.84187300  1
  O  O383  1  0.54375350  0.73627350  0.65812700  1
  O  O384  1  0.63574250  0.70672650  0.03979300  1
  O  O385  1  0.36425750  0.70672650  0.46020700  1
  O  O386  1  0.36425750  0.29327350  0.96020700  1
  O  O387  1  0.63574250  0.29327350  0.53979300  1
  O  O388  1  0.45929650  0.13306250  0.02485300  1
  O  O389  1  0.54070350  0.13306250  0.47514700  1
  O  O390  1  0.54070350  0.86693750  0.97514700  1
  O  O391  1  0.45929650  0.86693750  0.52485300  1
  O  O392  1  0.53850550  0.36036250  0.00020400  1
  O  O393  1  0.46149450  0.36036250  0.49979600  1
  O  O394  1  0.46149450  0.63963750  0.99979600  1
  O  O395  1  0.53850550  0.63963750  0.50020400  1
  O  O396  1  0.36934350  0.79411550  0.95604200  1
  O  O397  1  0.63065650  0.79411550  0.54395800  1
  O  O398  1  0.63065650  0.20588450  0.04395800  1
  O  O399  1  0.36934350  0.20588450  0.45604200  1
