# generated using pymatgen
data_Gd2CdS4
_symmetry_space_group_name_H-M   'P 1'
_cell_length_a   8.37120800
_cell_length_b   8.37120800
_cell_length_c   8.66055000
_cell_angle_alpha   90.00000000
_cell_angle_beta   90.00000000
_cell_angle_gamma   90.00000000
_symmetry_Int_Tables_number   1
_chemical_formula_structural   Gd2CdS4
_chemical_formula_sum   'Gd8 Cd4 S16'
_cell_volume   606.90643088
_cell_formula_units_Z   4
loop_
 _symmetry_equiv_pos_site_id
 _symmetry_equiv_pos_as_xyz
  1  'x, y, z'
loop_
 _atom_site_type_symbol
 _atom_site_label
 _atom_site_symmetry_multiplicity
 _atom_site_fract_x
 _atom_site_fract_y
 _atom_site_fract_z
 _atom_site_occupancy
  Gd  Gd0  1  0.75000000  0.13928100  0.87500000  1
  Gd  Gd1  1  0.36071900  0.25000000  0.62500000  1
  Gd  Gd2  1  0.75000000  0.36071900  0.37500000  1
  Gd  Gd3  1  0.13928100  0.25000000  0.12500000  1
  Gd  Gd4  1  0.25000000  0.63928100  0.37500000  1
  Gd  Gd5  1  0.86071900  0.75000000  0.12500000  1
  Gd  Gd6  1  0.25000000  0.86071900  0.87500000  1
  Gd  Gd7  1  0.63928100  0.75000000  0.62500000  1
  Cd  Cd8  1  0.00000000  0.00000000  0.50000000  1
  Cd  Cd9  1  0.50000000  0.00000000  0.25000000  1
  Cd  Cd10  1  0.50000000  0.50000000  0.00000000  1
  Cd  Cd11  1  0.00000000  0.50000000  0.75000000  1
  S  S12  1  0.19352850  0.93216650  0.18303650  1
  S  S13  1  0.43216650  0.19352850  0.93303650  1
  S  S14  1  0.43216650  0.30647150  0.31696350  1
  S  S15  1  0.56783350  0.69352850  0.31696350  1
  S  S16  1  0.06783350  0.30647150  0.43303650  1
  S  S17  1  0.19352850  0.56783350  0.06696350  1
  S  S18  1  0.30647150  0.93216650  0.56696350  1
  S  S19  1  0.80647150  0.06783350  0.18303650  1
  S  S20  1  0.69352850  0.43216650  0.68303650  1
  S  S21  1  0.93216650  0.69352850  0.43303650  1
  S  S22  1  0.93216650  0.80647150  0.81696350  1
  S  S23  1  0.06783350  0.19352850  0.81696350  1
  S  S24  1  0.56783350  0.80647150  0.93303650  1
  S  S25  1  0.69352850  0.06783350  0.56696350  1
  S  S26  1  0.80647150  0.43216650  0.06696350  1
  S  S27  1  0.30647150  0.56783350  0.68303650  1
