# generated using pymatgen
data_CuI
_symmetry_space_group_name_H-M   'P 1'
_cell_length_a   4.28597100
_cell_length_b   8.57754300
_cell_length_c   7.42916214
_cell_angle_alpha   90.00000000
_cell_angle_beta   125.26928491
_cell_angle_gamma   90.00000000
_symmetry_Int_Tables_number   1
_chemical_formula_structural   CuI
_chemical_formula_sum   'Cu4 I4'
_cell_volume   222.98728488
_cell_formula_units_Z   4
loop_
 _symmetry_equiv_pos_site_id
 _symmetry_equiv_pos_as_xyz
  1  'x, y, z'
loop_
 _atom_site_type_symbol
 _atom_site_label
 _atom_site_symmetry_multiplicity
 _atom_site_fract_x
 _atom_site_fract_y
 _atom_site_fract_z
 _atom_site_occupancy
  Cu  Cu0  1  0.83956000  0.62297300  0.27628400  1
  Cu  Cu1  1  0.83956000  0.37702700  0.77628400  1
  Cu  Cu2  1  0.77162300  0.12967000  0.26062600  1
  Cu  Cu3  1  0.77162300  0.87033000  0.76062600  1
  I  I4  1  0.07719700  0.62632300  0.02211900  1
  I  I5  1  0.07719700  0.37367700  0.52211900  1
  I  I6  1  0.03032000  0.12338100  0.01387200  1
  I  I7  1  0.03032000  0.87661900  0.51387200  1
