# generated using pymatgen
data_Cs3Re3(SI)4
_symmetry_space_group_name_H-M   'P 1'
_cell_length_a   16.19111800
_cell_length_b   16.19111800
_cell_length_c   16.19111800
_cell_angle_alpha   90.00000000
_cell_angle_beta   90.00000000
_cell_angle_gamma   90.00000000
_symmetry_Int_Tables_number   1
_chemical_formula_structural   Cs3Re3(SI)4
_chemical_formula_sum   'Cs24 Re24 S32 I32'
_cell_volume   4244.53885711
_cell_formula_units_Z   8
loop_
 _symmetry_equiv_pos_site_id
 _symmetry_equiv_pos_as_xyz
  1  'x, y, z'
loop_
 _atom_site_type_symbol
 _atom_site_label
 _atom_site_symmetry_multiplicity
 _atom_site_fract_x
 _atom_site_fract_y
 _atom_site_fract_z
 _atom_site_occupancy
  Cs  Cs0  1  0.00000000  0.75000000  0.75000000  1
  Cs  Cs1  1  0.25000000  0.00000000  0.75000000  1
  Cs  Cs2  1  0.75000000  0.00000000  0.75000000  1
  Cs  Cs3  1  0.25000000  0.25000000  0.00000000  1
  Cs  Cs4  1  0.00000000  0.25000000  0.75000000  1
  Cs  Cs5  1  0.25000000  0.75000000  0.00000000  1
  Cs  Cs6  1  0.00000000  0.25000000  0.25000000  1
  Cs  Cs7  1  0.25000000  0.50000000  0.25000000  1
  Cs  Cs8  1  0.75000000  0.50000000  0.25000000  1
  Cs  Cs9  1  0.25000000  0.75000000  0.50000000  1
  Cs  Cs10  1  0.00000000  0.75000000  0.25000000  1
  Cs  Cs11  1  0.25000000  0.25000000  0.50000000  1
  Cs  Cs12  1  0.50000000  0.75000000  0.25000000  1
  Cs  Cs13  1  0.75000000  0.00000000  0.25000000  1
  Cs  Cs14  1  0.25000000  0.00000000  0.25000000  1
  Cs  Cs15  1  0.75000000  0.25000000  0.50000000  1
  Cs  Cs16  1  0.50000000  0.25000000  0.25000000  1
  Cs  Cs17  1  0.75000000  0.75000000  0.50000000  1
  Cs  Cs18  1  0.50000000  0.25000000  0.75000000  1
  Cs  Cs19  1  0.75000000  0.50000000  0.75000000  1
  Cs  Cs20  1  0.25000000  0.50000000  0.75000000  1
  Cs  Cs21  1  0.75000000  0.75000000  0.00000000  1
  Cs  Cs22  1  0.50000000  0.75000000  0.75000000  1
  Cs  Cs23  1  0.75000000  0.25000000  0.00000000  1
  Re  Re24  1  0.38508800  0.00000000  0.00000000  1
  Re  Re25  1  0.61491200  0.00000000  0.00000000  1
  Re  Re26  1  0.50000000  0.00000000  0.88508800  1
  Re  Re27  1  0.50000000  0.11491200  0.00000000  1
  Re  Re28  1  0.00000000  0.00000000  0.61491200  1
  Re  Re29  1  0.50000000  0.88508800  0.00000000  1
  Re  Re30  1  0.38508800  0.50000000  0.50000000  1
  Re  Re31  1  0.61491200  0.50000000  0.50000000  1
  Re  Re32  1  0.50000000  0.50000000  0.38508800  1
  Re  Re33  1  0.50000000  0.61491200  0.50000000  1
  Re  Re34  1  0.00000000  0.50000000  0.11491200  1
  Re  Re35  1  0.50000000  0.38508800  0.50000000  1
  Re  Re36  1  0.88508800  0.00000000  0.50000000  1
  Re  Re37  1  0.11491200  0.00000000  0.50000000  1
  Re  Re38  1  0.00000000  0.00000000  0.38508800  1
  Re  Re39  1  0.00000000  0.11491200  0.50000000  1
  Re  Re40  1  0.50000000  0.00000000  0.11491200  1
  Re  Re41  1  0.00000000  0.88508800  0.50000000  1
  Re  Re42  1  0.88508800  0.50000000  0.00000000  1
  Re  Re43  1  0.11491200  0.50000000  0.00000000  1
  Re  Re44  1  0.00000000  0.50000000  0.88508800  1
  Re  Re45  1  0.00000000  0.61491200  0.00000000  1
  Re  Re46  1  0.50000000  0.50000000  0.61491200  1
  Re  Re47  1  0.00000000  0.38508800  0.00000000  1
  S  S48  1  0.10573233  0.89426767  0.60573233  1
  S  S49  1  0.10573233  0.10573233  0.60573233  1
  S  S50  1  0.60573233  0.89426767  0.89426767  1
  S  S51  1  0.39426767  0.89426767  0.89426767  1
  S  S52  1  0.89426767  0.89426767  0.60573233  1
  S  S53  1  0.89426767  0.10573233  0.60573233  1
  S  S54  1  0.39426767  0.10573233  0.89426767  1
  S  S55  1  0.60573233  0.10573233  0.89426767  1
  S  S56  1  0.10573233  0.39426767  0.10573233  1
  S  S57  1  0.10573233  0.60573233  0.10573233  1
  S  S58  1  0.60573233  0.39426767  0.39426767  1
  S  S59  1  0.39426767  0.39426767  0.39426767  1
  S  S60  1  0.89426767  0.39426767  0.10573233  1
  S  S61  1  0.89426767  0.60573233  0.10573233  1
  S  S62  1  0.39426767  0.60573233  0.39426767  1
  S  S63  1  0.60573233  0.60573233  0.39426767  1
  S  S64  1  0.60573233  0.89426767  0.10573233  1
  S  S65  1  0.60573233  0.10573233  0.10573233  1
  S  S66  1  0.10573233  0.89426767  0.39426767  1
  S  S67  1  0.89426767  0.89426767  0.39426767  1
  S  S68  1  0.39426767  0.89426767  0.10573233  1
  S  S69  1  0.39426767  0.10573233  0.10573233  1
  S  S70  1  0.89426767  0.10573233  0.39426767  1
  S  S71  1  0.10573233  0.10573233  0.39426767  1
  S  S72  1  0.60573233  0.39426767  0.60573233  1
  S  S73  1  0.60573233  0.60573233  0.60573233  1
  S  S74  1  0.10573233  0.39426767  0.89426767  1
  S  S75  1  0.89426767  0.39426767  0.89426767  1
  S  S76  1  0.39426767  0.39426767  0.60573233  1
  S  S77  1  0.39426767  0.60573233  0.60573233  1
  S  S78  1  0.89426767  0.60573233  0.89426767  1
  S  S79  1  0.10573233  0.60573233  0.89426767  1
  I  I80  1  0.50000000  0.00000000  0.71052800  1
  I  I81  1  0.78947200  0.00000000  0.00000000  1
  I  I82  1  0.21052800  0.00000000  0.00000000  1
  I  I83  1  0.25000000  0.25000000  0.75000000  1
  I  I84  1  0.50000000  0.71052800  0.00000000  1
  I  I85  1  0.25000000  0.75000000  0.75000000  1
  I  I86  1  0.00000000  0.00000000  0.78947200  1
  I  I87  1  0.50000000  0.28947200  0.00000000  1
  I  I88  1  0.50000000  0.50000000  0.21052800  1
  I  I89  1  0.78947200  0.50000000  0.50000000  1
  I  I90  1  0.21052800  0.50000000  0.50000000  1
  I  I91  1  0.25000000  0.75000000  0.25000000  1
  I  I92  1  0.50000000  0.21052800  0.50000000  1
  I  I93  1  0.25000000  0.25000000  0.25000000  1
  I  I94  1  0.00000000  0.50000000  0.28947200  1
  I  I95  1  0.50000000  0.78947200  0.50000000  1
  I  I96  1  0.00000000  0.00000000  0.21052800  1
  I  I97  1  0.28947200  0.00000000  0.50000000  1
  I  I98  1  0.71052800  0.00000000  0.50000000  1
  I  I99  1  0.75000000  0.25000000  0.25000000  1
  I  I100  1  0.00000000  0.71052800  0.50000000  1
  I  I101  1  0.75000000  0.75000000  0.25000000  1
  I  I102  1  0.50000000  0.00000000  0.28947200  1
  I  I103  1  0.00000000  0.28947200  0.50000000  1
  I  I104  1  0.00000000  0.50000000  0.71052800  1
  I  I105  1  0.28947200  0.50000000  0.00000000  1
  I  I106  1  0.71052800  0.50000000  0.00000000  1
  I  I107  1  0.75000000  0.75000000  0.75000000  1
  I  I108  1  0.00000000  0.21052800  0.00000000  1
  I  I109  1  0.75000000  0.25000000  0.75000000  1
  I  I110  1  0.50000000  0.50000000  0.78947200  1
  I  I111  1  0.00000000  0.78947200  0.00000000  1
