# generated using pymatgen
data_Cs4Mg3H10
_symmetry_space_group_name_H-M   'P 1'
_cell_length_a   6.26770800
_cell_length_b   14.66903800
_cell_length_c   13.80872300
_cell_angle_alpha   90.00000000
_cell_angle_beta   90.00000000
_cell_angle_gamma   90.00000000
_symmetry_Int_Tables_number   1
_chemical_formula_structural   Cs4Mg3H10
_chemical_formula_sum   'Cs16 Mg12 H40'
_cell_volume   1269.59120968
_cell_formula_units_Z   4
loop_
 _symmetry_equiv_pos_site_id
 _symmetry_equiv_pos_as_xyz
  1  'x, y, z'
loop_
 _atom_site_type_symbol
 _atom_site_label
 _atom_site_symmetry_multiplicity
 _atom_site_fract_x
 _atom_site_fract_y
 _atom_site_fract_z
 _atom_site_occupancy
  Cs  Cs0  1  0.00000000  0.74666900  0.39492400  1
  Cs  Cs1  1  0.50000000  0.75333100  0.60507600  1
  Cs  Cs2  1  0.00000000  0.75333100  0.89492400  1
  Cs  Cs3  1  0.50000000  0.74666900  0.10507600  1
  Cs  Cs4  1  0.00000000  0.54741300  0.13892600  1
  Cs  Cs5  1  0.50000000  0.95258700  0.86107400  1
  Cs  Cs6  1  0.00000000  0.95258700  0.63892600  1
  Cs  Cs7  1  0.50000000  0.54741300  0.36107400  1
  Cs  Cs8  1  0.50000000  0.24666900  0.39492400  1
  Cs  Cs9  1  0.00000000  0.25333100  0.60507600  1
  Cs  Cs10  1  0.50000000  0.25333100  0.89492400  1
  Cs  Cs11  1  0.00000000  0.24666900  0.10507600  1
  Cs  Cs12  1  0.50000000  0.04741300  0.13892600  1
  Cs  Cs13  1  0.00000000  0.45258700  0.86107400  1
  Cs  Cs14  1  0.50000000  0.45258700  0.63892600  1
  Cs  Cs15  1  0.00000000  0.04741300  0.36107400  1
  Mg  Mg16  1  0.00000000  0.88371600  0.15701700  1
  Mg  Mg17  1  0.50000000  0.61628400  0.84298300  1
  Mg  Mg18  1  0.00000000  0.61628400  0.65701700  1
  Mg  Mg19  1  0.50000000  0.88371600  0.34298300  1
  Mg  Mg20  1  0.50000000  0.50000000  0.00000000  1
  Mg  Mg21  1  0.00000000  0.50000000  0.50000000  1
  Mg  Mg22  1  0.50000000  0.38371600  0.15701700  1
  Mg  Mg23  1  0.00000000  0.11628400  0.84298300  1
  Mg  Mg24  1  0.50000000  0.11628400  0.65701700  1
  Mg  Mg25  1  0.00000000  0.38371600  0.34298300  1
  Mg  Mg26  1  0.00000000  0.00000000  0.00000000  1
  Mg  Mg27  1  0.50000000  0.00000000  0.50000000  1
  H  H28  1  0.79519050  0.90354550  0.03924500  1
  H  H29  1  0.29519050  0.59645450  0.96075500  1
  H  H30  1  0.79519050  0.59645450  0.53924500  1
  H  H31  1  0.29519050  0.90354550  0.46075500  1
  H  H32  1  0.70480950  0.59645450  0.96075500  1
  H  H33  1  0.20480950  0.90354550  0.03924500  1
  H  H34  1  0.70480950  0.90354550  0.46075500  1
  H  H35  1  0.20480950  0.59645450  0.53924500  1
  H  H36  1  0.00000000  0.75491200  0.15107700  1
  H  H37  1  0.50000000  0.74508800  0.84892300  1
  H  H38  1  0.00000000  0.74508800  0.65107700  1
  H  H39  1  0.50000000  0.75491200  0.34892300  1
  H  H40  1  0.00000000  0.52473500  0.35944100  1
  H  H41  1  0.50000000  0.97526500  0.64055900  1
  H  H42  1  0.00000000  0.97526500  0.85944100  1
  H  H43  1  0.50000000  0.52473500  0.14055900  1
  H  H44  1  0.75000000  0.89624000  0.25000000  1
  H  H45  1  0.25000000  0.60376000  0.75000000  1
  H  H46  1  0.75000000  0.60376000  0.75000000  1
  H  H47  1  0.25000000  0.89624000  0.25000000  1
  H  H48  1  0.29519050  0.40354550  0.03924500  1
  H  H49  1  0.79519050  0.09645450  0.96075500  1
  H  H50  1  0.29519050  0.09645450  0.53924500  1
  H  H51  1  0.79519050  0.40354550  0.46075500  1
  H  H52  1  0.20480950  0.09645450  0.96075500  1
  H  H53  1  0.70480950  0.40354550  0.03924500  1
  H  H54  1  0.20480950  0.40354550  0.46075500  1
  H  H55  1  0.70480950  0.09645450  0.53924500  1
  H  H56  1  0.50000000  0.25491200  0.15107700  1
  H  H57  1  0.00000000  0.24508800  0.84892300  1
  H  H58  1  0.50000000  0.24508800  0.65107700  1
  H  H59  1  0.00000000  0.25491200  0.34892300  1
  H  H60  1  0.50000000  0.02473500  0.35944100  1
  H  H61  1  0.00000000  0.47526500  0.64055900  1
  H  H62  1  0.50000000  0.47526500  0.85944100  1
  H  H63  1  0.00000000  0.02473500  0.14055900  1
  H  H64  1  0.25000000  0.39624000  0.25000000  1
  H  H65  1  0.75000000  0.10376000  0.75000000  1
  H  H66  1  0.25000000  0.10376000  0.75000000  1
  H  H67  1  0.75000000  0.39624000  0.25000000  1
