# generated using pymatgen
data_BaCo2P2H2O9
_symmetry_space_group_name_H-M   'P 1'
_cell_length_a   9.31985588
_cell_length_b   4.95937900
_cell_length_c   8.43218217
_cell_angle_alpha   90.00000000
_cell_angle_beta   91.78122192
_cell_angle_gamma   90.00000000
_symmetry_Int_Tables_number   1
_chemical_formula_structural   BaCo2P2H2O9
_chemical_formula_sum   'Ba2 Co4 P4 H4 O18'
_cell_volume   389.55301923
_cell_formula_units_Z   2
loop_
 _symmetry_equiv_pos_site_id
 _symmetry_equiv_pos_as_xyz
  1  'x, y, z'
loop_
 _atom_site_type_symbol
 _atom_site_label
 _atom_site_symmetry_multiplicity
 _atom_site_fract_x
 _atom_site_fract_y
 _atom_site_fract_z
 _atom_site_occupancy
  Ba  Ba0  1  0.50000000  0.27805250  0.00000000  1
  Ba  Ba1  1  0.00000000  0.77805250  0.00000000  1
  Co  Co2  1  0.66791300  0.83220700  0.64723200  1
  Co  Co3  1  0.83208700  0.33220700  0.35276800  1
  Co  Co4  1  0.16791300  0.33220700  0.64723200  1
  Co  Co5  1  0.33208700  0.83220700  0.35276800  1
  P  P6  1  0.84465675  0.26573925  0.73702450  1
  P  P7  1  0.65534325  0.76573925  0.26297550  1
  P  P8  1  0.34465675  0.76573925  0.73702450  1
  P  P9  1  0.15534325  0.26573925  0.26297550  1
  H  H10  1  0.55953725  0.21024225  0.43339450  1
  H  H11  1  0.94046275  0.71024225  0.56660550  1
  H  H12  1  0.05953725  0.71024225  0.43339450  1
  H  H13  1  0.44046275  0.21024225  0.56660550  1
  O  O14  1  0.00000000  0.59543275  0.50000000  1
  O  O15  1  0.68489700  0.64159500  0.43286400  1
  O  O16  1  0.81510300  0.14159500  0.56713600  1
  O  O17  1  0.50499000  0.71430050  0.78871700  1
  O  O18  1  0.99501000  0.21430050  0.21128300  1
  O  O19  1  0.74340425  0.10655475  0.84481450  1
  O  O20  1  0.75659575  0.60655475  0.15518550  1
  O  O21  1  0.82045700  0.57411150  0.74484500  1
  O  O22  1  0.67954300  0.07411150  0.25515500  1
  O  O23  1  0.50000000  0.09543275  0.50000000  1
  O  O24  1  0.18489700  0.14159500  0.43286400  1
  O  O25  1  0.31510300  0.64159500  0.56713600  1
  O  O26  1  0.00499000  0.21430050  0.78871700  1
  O  O27  1  0.49501000  0.71430050  0.21128300  1
  O  O28  1  0.24340425  0.60655475  0.84481450  1
  O  O29  1  0.25659575  0.10655475  0.15518550  1
  O  O30  1  0.32045700  0.07411150  0.74484500  1
  O  O31  1  0.17954300  0.57411150  0.25515500  1
