# generated using pymatgen
data_As2Pb14Cl4O17
_symmetry_space_group_name_H-M   'P 1'
_cell_length_a   12.92140200
_cell_length_b   22.99912600
_cell_length_c   11.50358125
_cell_angle_alpha   90.00000000
_cell_angle_beta   118.34838106
_cell_angle_gamma   90.00000000
_symmetry_Int_Tables_number   1
_chemical_formula_structural   As2Pb14Cl4O17
_chemical_formula_sum   'As8 Pb56 Cl16 O68'
_cell_volume   3008.67006923
_cell_formula_units_Z   4
loop_
 _symmetry_equiv_pos_site_id
 _symmetry_equiv_pos_as_xyz
  1  'x, y, z'
loop_
 _atom_site_type_symbol
 _atom_site_label
 _atom_site_symmetry_multiplicity
 _atom_site_fract_x
 _atom_site_fract_y
 _atom_site_fract_z
 _atom_site_occupancy
  As  As0  1  0.13724650  0.32187250  0.67735500  1
  As  As1  1  0.36275350  0.17812750  0.32264500  1
  As  As2  1  0.86275350  0.32187250  0.82264500  1
  As  As3  1  0.63724650  0.17812750  0.17735500  1
  As  As4  1  0.63724650  0.82187250  0.67735500  1
  As  As5  1  0.86275350  0.67812750  0.32264500  1
  As  As6  1  0.36275350  0.82187250  0.82264500  1
  As  As7  1  0.13724650  0.67812750  0.17735500  1
  Pb  Pb8  1  0.86883050  0.41358950  0.07572900  1
  Pb  Pb9  1  0.87756200  0.08216800  0.30657400  1
  Pb  Pb10  1  0.12243800  0.08216800  0.19342600  1
  Pb  Pb11  1  0.64639350  0.19477050  0.70090000  1
  Pb  Pb12  1  0.62243800  0.41783200  0.69342600  1
  Pb  Pb13  1  0.12689850  0.42186750  0.95080700  1
  Pb  Pb14  1  0.87310150  0.42186750  0.54919300  1
  Pb  Pb15  1  0.11362350  0.08482350  0.68148600  1
  Pb  Pb16  1  0.09958250  0.19668150  0.43925900  1
  Pb  Pb17  1  0.36883050  0.08641050  0.57572900  1
  Pb  Pb18  1  0.37756200  0.41783200  0.80657400  1
  Pb  Pb19  1  0.61362350  0.41517650  0.18148600  1
  Pb  Pb20  1  0.63116950  0.08641050  0.92427100  1
  Pb  Pb21  1  0.62412450  0.30141850  0.42452600  1
  Pb  Pb22  1  0.12412450  0.19858150  0.92452600  1
  Pb  Pb23  1  0.87587550  0.19858150  0.57547400  1
  Pb  Pb24  1  0.35360650  0.19477050  0.79910000  1
  Pb  Pb25  1  0.85360650  0.30522950  0.29910000  1
  Pb  Pb26  1  0.37587550  0.30141850  0.07547400  1
  Pb  Pb27  1  0.62689850  0.07813250  0.45080700  1
  Pb  Pb28  1  0.14639350  0.30522950  0.20090000  1
  Pb  Pb29  1  0.38637650  0.41517650  0.31851400  1
  Pb  Pb30  1  0.40041750  0.30331850  0.56074100  1
  Pb  Pb31  1  0.90041750  0.19668150  0.06074100  1
  Pb  Pb32  1  0.59958250  0.30331850  0.93925900  1
  Pb  Pb33  1  0.13116950  0.41358950  0.42427100  1
  Pb  Pb34  1  0.88637650  0.08482350  0.81851400  1
  Pb  Pb35  1  0.37310150  0.07813250  0.04919300  1
  Pb  Pb36  1  0.36883050  0.91358950  0.07572900  1
  Pb  Pb37  1  0.37756200  0.58216800  0.30657400  1
  Pb  Pb38  1  0.62243800  0.58216800  0.19342600  1
  Pb  Pb39  1  0.14639350  0.69477050  0.70090000  1
  Pb  Pb40  1  0.12243800  0.91783200  0.69342600  1
  Pb  Pb41  1  0.62689850  0.92186750  0.95080700  1
  Pb  Pb42  1  0.37310150  0.92186750  0.54919300  1
  Pb  Pb43  1  0.61362350  0.58482350  0.68148600  1
  Pb  Pb44  1  0.59958250  0.69668150  0.43925900  1
  Pb  Pb45  1  0.86883050  0.58641050  0.57572900  1
  Pb  Pb46  1  0.87756200  0.91783200  0.80657400  1
  Pb  Pb47  1  0.11362350  0.91517650  0.18148600  1
  Pb  Pb48  1  0.13116950  0.58641050  0.92427100  1
  Pb  Pb49  1  0.12412450  0.80141850  0.42452600  1
  Pb  Pb50  1  0.62412450  0.69858150  0.92452600  1
  Pb  Pb51  1  0.37587550  0.69858150  0.57547400  1
  Pb  Pb52  1  0.85360650  0.69477050  0.79910000  1
  Pb  Pb53  1  0.35360650  0.80522950  0.29910000  1
  Pb  Pb54  1  0.87587550  0.80141850  0.07547400  1
  Pb  Pb55  1  0.12689850  0.57813250  0.45080700  1
  Pb  Pb56  1  0.64639350  0.80522950  0.20090000  1
  Pb  Pb57  1  0.88637650  0.91517650  0.31851400  1
  Pb  Pb58  1  0.90041750  0.80331850  0.56074100  1
  Pb  Pb59  1  0.40041750  0.69668150  0.06074100  1
  Pb  Pb60  1  0.09958250  0.80331850  0.93925900  1
  Pb  Pb61  1  0.63116950  0.91358950  0.42427100  1
  Pb  Pb62  1  0.38637650  0.58482350  0.81851400  1
  Pb  Pb63  1  0.87310150  0.57813250  0.04919300  1
  Cl  Cl64  1  0.62635250  0.49989650  0.93776000  1
  Cl  Cl65  1  0.12635250  0.00010350  0.43776000  1
  Cl  Cl66  1  0.88022300  0.48551800  0.30873800  1
  Cl  Cl67  1  0.38022300  0.01448200  0.80873800  1
  Cl  Cl68  1  0.37364750  0.49989650  0.56224000  1
  Cl  Cl69  1  0.87364750  0.00010350  0.06224000  1
  Cl  Cl70  1  0.11977700  0.48551800  0.19126200  1
  Cl  Cl71  1  0.61977700  0.01448200  0.69126200  1
  Cl  Cl72  1  0.12635250  0.99989650  0.93776000  1
  Cl  Cl73  1  0.62635250  0.50010350  0.43776000  1
  Cl  Cl74  1  0.38022300  0.98551800  0.30873800  1
  Cl  Cl75  1  0.88022300  0.51448200  0.80873800  1
  Cl  Cl76  1  0.87364750  0.99989650  0.56224000  1
  Cl  Cl77  1  0.37364750  0.50010350  0.06224000  1
  Cl  Cl78  1  0.61977700  0.98551800  0.19126200  1
  Cl  Cl79  1  0.11977700  0.51448200  0.69126200  1
  O  O80  1  0.52682800  0.35760700  0.51376700  1
  O  O81  1  0.17470300  0.35184300  0.83033200  1
  O  O82  1  0.67470300  0.14815700  0.33033200  1
  O  O83  1  0.24818700  0.15916800  0.35519600  1
  O  O84  1  0.26401900  0.35709100  0.38887400  1
  O  O85  1  0.32529700  0.14815700  0.16966800  1
  O  O86  1  0.00000000  0.13302400  0.25000000  1
  O  O87  1  0.00000000  0.14425500  0.75000000  1
  O  O88  1  0.50000000  0.14364000  0.75000000  1
  O  O89  1  0.37872400  0.25226300  0.31936900  1
  O  O90  1  0.50000000  0.35574500  0.25000000  1
  O  O91  1  0.47317200  0.35760700  0.98623300  1
  O  O92  1  0.76401900  0.14290900  0.88887400  1
  O  O93  1  0.74818700  0.34083200  0.85519600  1
  O  O94  1  0.73598100  0.35709100  0.11112600  1
  O  O95  1  0.00000000  0.35636000  0.25000000  1
  O  O96  1  0.75472500  0.36250000  0.38017500  1
  O  O97  1  0.25472500  0.13750000  0.88017500  1
  O  O98  1  0.24527500  0.36250000  0.11982500  1
  O  O99  1  0.48686350  0.14670950  0.45405300  1
  O  O100  1  0.12127600  0.24773700  0.68063100  1
  O  O101  1  0.02682800  0.14239300  0.01376700  1
  O  O102  1  0.25181300  0.34083200  0.64480400  1
  O  O103  1  0.23598100  0.14290900  0.61112600  1
  O  O104  1  0.62127600  0.25226300  0.18063100  1
  O  O105  1  0.75181300  0.15916800  0.14480400  1
  O  O106  1  0.98686350  0.35329050  0.95405300  1
  O  O107  1  0.87872400  0.24773700  0.81936900  1
  O  O108  1  0.97317200  0.14239300  0.48623300  1
  O  O109  1  0.01313650  0.35329050  0.54594700  1
  O  O110  1  0.51313650  0.14670950  0.04594700  1
  O  O111  1  0.50000000  0.36697600  0.75000000  1
  O  O112  1  0.74527500  0.13750000  0.61982500  1
  O  O113  1  0.82529700  0.35184300  0.66966800  1
  O  O114  1  0.02682800  0.85760700  0.51376700  1
  O  O115  1  0.67470300  0.85184300  0.83033200  1
  O  O116  1  0.17470300  0.64815700  0.33033200  1
  O  O117  1  0.74818700  0.65916800  0.35519600  1
  O  O118  1  0.76401900  0.85709100  0.38887400  1
  O  O119  1  0.82529700  0.64815700  0.16966800  1
  O  O120  1  0.50000000  0.63302400  0.25000000  1
  O  O121  1  0.50000000  0.64425500  0.75000000  1
  O  O122  1  0.00000000  0.64364000  0.75000000  1
  O  O123  1  0.87872400  0.75226300  0.31936900  1
  O  O124  1  0.00000000  0.85574500  0.25000000  1
  O  O125  1  0.97317200  0.85760700  0.98623300  1
  O  O126  1  0.26401900  0.64290900  0.88887400  1
  O  O127  1  0.24818700  0.84083200  0.85519600  1
  O  O128  1  0.23598100  0.85709100  0.11112600  1
  O  O129  1  0.50000000  0.85636000  0.25000000  1
  O  O130  1  0.25472500  0.86250000  0.38017500  1
  O  O131  1  0.75472500  0.63750000  0.88017500  1
  O  O132  1  0.74527500  0.86250000  0.11982500  1
  O  O133  1  0.98686350  0.64670950  0.45405300  1
  O  O134  1  0.62127600  0.74773700  0.68063100  1
  O  O135  1  0.52682800  0.64239300  0.01376700  1
  O  O136  1  0.75181300  0.84083200  0.64480400  1
  O  O137  1  0.73598100  0.64290900  0.61112600  1
  O  O138  1  0.12127600  0.75226300  0.18063100  1
  O  O139  1  0.25181300  0.65916800  0.14480400  1
  O  O140  1  0.48686350  0.85329050  0.95405300  1
  O  O141  1  0.37872400  0.74773700  0.81936900  1
  O  O142  1  0.47317200  0.64239300  0.48623300  1
  O  O143  1  0.51313650  0.85329050  0.54594700  1
  O  O144  1  0.01313650  0.64670950  0.04594700  1
  O  O145  1  0.00000000  0.86697600  0.75000000  1
  O  O146  1  0.24527500  0.63750000  0.61982500  1
  O  O147  1  0.32529700  0.85184300  0.66966800  1
