# generated using pymatgen
data_Rb2CuH4(C2O5)2
_symmetry_space_group_name_H-M   'P 1'
_cell_length_a   7.04898608
_cell_length_b   9.00767442
_cell_length_c   9.05867635
_cell_angle_alpha   107.82091545
_cell_angle_beta   97.95200552
_cell_angle_gamma   97.92191771
_symmetry_Int_Tables_number   1
_chemical_formula_structural   Rb2CuH4(C2O5)2
_chemical_formula_sum   'Rb4 Cu2 H8 C8 O20'
_cell_volume   532.32406910
_cell_formula_units_Z   2
loop_
 _symmetry_equiv_pos_site_id
 _symmetry_equiv_pos_as_xyz
  1  'x, y, z'
loop_
 _atom_site_type_symbol
 _atom_site_label
 _atom_site_symmetry_multiplicity
 _atom_site_fract_x
 _atom_site_fract_y
 _atom_site_fract_z
 _atom_site_occupancy
  Rb  Rb0  1  0.62872600  0.88079600  0.83244000  1
  Rb  Rb1  1  0.37127400  0.11920400  0.16756000  1
  Rb  Rb2  1  0.74391900  0.44978600  0.87169100  1
  Rb  Rb3  1  0.25608100  0.55021400  0.12830900  1
  Cu  Cu4  1  0.00000000  0.00000000  0.50000000  1
  Cu  Cu5  1  0.50000000  0.50000000  0.50000000  1
  H  H6  1  0.50267700  0.17210800  0.56198100  1
  H  H7  1  0.49732300  0.82789200  0.43801900  1
  H  H8  1  0.70554800  0.23099600  0.51466800  1
  H  H9  1  0.29445200  0.76900400  0.48533200  1
  H  H10  1  0.13765300  0.81784700  0.91750300  1
  H  H11  1  0.86234700  0.18215300  0.08249700  1
  H  H12  1  0.15206200  0.81204800  0.74465100  1
  H  H13  1  0.84793800  0.18795200  0.25534900  1
  C  C14  1  0.94355000  0.84898500  0.18159700  1
  C  C15  1  0.05645000  0.15101500  0.81840300  1
  C  C16  1  0.73704700  0.84339200  0.22400100  1
  C  C17  1  0.26295300  0.15660800  0.77599900  1
  C  C18  1  0.77835800  0.53496900  0.32460700  1
  C  C19  1  0.22164200  0.46503100  0.67539300  1
  C  C20  1  0.87145600  0.63392900  0.50037700  1
  C  C21  1  0.12854400  0.36607100  0.49962300  1
  O  O22  1  0.08754800  0.92393000  0.29680500  1
  O  O23  1  0.91245200  0.07607000  0.70319500  1
  O  O24  1  0.96089100  0.78140800  0.04194100  1
  O  O25  1  0.03910900  0.21859200  0.95805900  1
  O  O26  1  0.73497900  0.90900800  0.37274600  1
  O  O27  1  0.26502100  0.09099200  0.62725400  1
  O  O28  1  0.58840600  0.77775800  0.11972500  1
  O  O29  1  0.41159400  0.22224200  0.88027500  1
  O  O30  1  0.59889500  0.46360200  0.30147500  1
  O  O31  1  0.40110500  0.53639800  0.69852500  1
  O  O32  1  0.87474200  0.53099600  0.21845700  1
  O  O33  1  0.12525800  0.46900400  0.78154300  1
  O  O34  1  0.76624600  0.62130700  0.60298000  1
  O  O35  1  0.23375400  0.37869300  0.39702000  1
  O  O36  1  0.03796600  0.72041600  0.53460700  1
  O  O37  1  0.96203400  0.27958400  0.46539300  1
  O  O38  1  0.56982700  0.24463700  0.51539700  1
  O  O39  1  0.43017300  0.75536300  0.48460300  1
  O  O40  1  0.21634600  0.86677300  0.85655100  1
  O  O41  1  0.78365400  0.13322700  0.14344900  1
