# generated using pymatgen
data_BaSm2ZnO5
_symmetry_space_group_name_H-M   'P 1'
_cell_length_a   5.85958500
_cell_length_b   7.29040800
_cell_length_c   12.67919200
_cell_angle_alpha   90.00000000
_cell_angle_beta   90.00000000
_cell_angle_gamma   90.00000000
_symmetry_Int_Tables_number   1
_chemical_formula_structural   BaSm2ZnO5
_chemical_formula_sum   'Ba4 Sm8 Zn4 O20'
_cell_volume   541.63942801
_cell_formula_units_Z   4
loop_
 _symmetry_equiv_pos_site_id
 _symmetry_equiv_pos_as_xyz
  1  'x, y, z'
loop_
 _atom_site_type_symbol
 _atom_site_label
 _atom_site_symmetry_multiplicity
 _atom_site_fract_x
 _atom_site_fract_y
 _atom_site_fract_z
 _atom_site_occupancy
  Ba  Ba0  1  0.75000000  0.07660300  0.09993800  1
  Ba  Ba1  1  0.75000000  0.42339700  0.59993800  1
  Ba  Ba2  1  0.25000000  0.57660300  0.40006200  1
  Ba  Ba3  1  0.25000000  0.92339700  0.90006200  1
  Sm  Sm4  1  0.25000000  0.39846400  0.07468200  1
  Sm  Sm5  1  0.75000000  0.61716800  0.20778500  1
  Sm  Sm6  1  0.75000000  0.88283200  0.70778500  1
  Sm  Sm7  1  0.25000000  0.11716800  0.29221500  1
  Sm  Sm8  1  0.75000000  0.60153600  0.92531800  1
  Sm  Sm9  1  0.75000000  0.89846400  0.42531800  1
  Sm  Sm10  1  0.25000000  0.10153600  0.57468200  1
  Sm  Sm11  1  0.25000000  0.38283200  0.79221500  1
  Zn  Zn12  1  0.25000000  0.80822300  0.14968500  1
  Zn  Zn13  1  0.75000000  0.19177700  0.85031500  1
  Zn  Zn14  1  0.75000000  0.30822300  0.35031500  1
  Zn  Zn15  1  0.25000000  0.69177700  0.64968500  1
  O  O16  1  0.25000000  0.43138800  0.59855200  1
  O  O17  1  0.75000000  0.56861200  0.40144800  1
  O  O18  1  0.75000000  0.93138800  0.90144800  1
  O  O19  1  0.25000000  0.06861200  0.09855200  1
  O  O20  1  0.00347600  0.85307200  0.27548500  1
  O  O21  1  0.50347600  0.14692800  0.72451500  1
  O  O22  1  0.99652400  0.35307200  0.22451500  1
  O  O23  1  0.49652400  0.64692800  0.77548500  1
  O  O24  1  0.99652400  0.14692800  0.72451500  1
  O  O25  1  0.49652400  0.85307200  0.27548500  1
  O  O26  1  0.00347600  0.64692800  0.77548500  1
  O  O27  1  0.50347600  0.35307200  0.22451500  1
  O  O28  1  0.49497000  0.66602300  0.06586300  1
  O  O29  1  0.99497000  0.33397700  0.93413700  1
  O  O30  1  0.50503000  0.16602300  0.43413700  1
  O  O31  1  0.00503000  0.83397700  0.56586300  1
  O  O32  1  0.99497000  0.16602300  0.43413700  1
  O  O33  1  0.49497000  0.83397700  0.56586300  1
  O  O34  1  0.00503000  0.66602300  0.06586300  1
  O  O35  1  0.50503000  0.33397700  0.93413700  1
