# generated using pymatgen
data_Ag2Hg7(P4I3)2
_symmetry_space_group_name_H-M   'P 1'
_cell_length_a   13.43628600
_cell_length_b   11.23100600
_cell_length_c   8.53356982
_cell_angle_alpha   90.00000000
_cell_angle_beta   102.69050272
_cell_angle_gamma   90.00000000
_symmetry_Int_Tables_number   1
_chemical_formula_structural   Ag2Hg7(P4I3)2
_chemical_formula_sum   'Ag4 Hg14 P16 I12'
_cell_volume   1256.28309030
_cell_formula_units_Z   2
loop_
 _symmetry_equiv_pos_site_id
 _symmetry_equiv_pos_as_xyz
  1  'x, y, z'
loop_
 _atom_site_type_symbol
 _atom_site_label
 _atom_site_symmetry_multiplicity
 _atom_site_fract_x
 _atom_site_fract_y
 _atom_site_fract_z
 _atom_site_occupancy
  Ag  Ag0  1  0.75000000  0.75000000  0.50000000  1
  Ag  Ag1  1  0.75000000  0.25000000  0.50000000  1
  Ag  Ag2  1  0.25000000  0.25000000  0.50000000  1
  Ag  Ag3  1  0.25000000  0.75000000  0.50000000  1
  Hg  Hg4  1  0.45295250  0.18254550  0.23450600  1
  Hg  Hg5  1  0.27203700  0.00000000  0.86776200  1
  Hg  Hg6  1  0.54704750  0.81745450  0.76549400  1
  Hg  Hg7  1  0.72796300  0.00000000  0.13223800  1
  Hg  Hg8  1  0.54704750  0.18254550  0.76549400  1
  Hg  Hg9  1  0.00000000  0.00000000  0.00000000  1
  Hg  Hg10  1  0.45295250  0.81745450  0.23450600  1
  Hg  Hg11  1  0.95295250  0.68254550  0.23450600  1
  Hg  Hg12  1  0.77203700  0.50000000  0.86776200  1
  Hg  Hg13  1  0.04704750  0.31745450  0.76549400  1
  Hg  Hg14  1  0.22796300  0.50000000  0.13223800  1
  Hg  Hg15  1  0.04704750  0.68254550  0.76549400  1
  Hg  Hg16  1  0.50000000  0.50000000  0.00000000  1
  Hg  Hg17  1  0.95295250  0.31745450  0.23450600  1
  P  P18  1  0.42104700  0.34255100  0.42102300  1
  P  P19  1  0.56158800  0.00000000  0.93432700  1
  P  P20  1  0.43841200  0.00000000  0.06567300  1
  P  P21  1  0.91472700  0.00000000  0.25776800  1
  P  P22  1  0.57895300  0.34255100  0.57897700  1
  P  P23  1  0.42104700  0.65744900  0.42102300  1
  P  P24  1  0.57895300  0.65744900  0.57897700  1
  P  P25  1  0.08527300  0.00000000  0.74223200  1
  P  P26  1  0.92104700  0.84255100  0.42102300  1
  P  P27  1  0.06158800  0.50000000  0.93432700  1
  P  P28  1  0.93841200  0.50000000  0.06567300  1
  P  P29  1  0.41472700  0.50000000  0.25776800  1
  P  P30  1  0.07895300  0.84255100  0.57897700  1
  P  P31  1  0.92104700  0.15744900  0.42102300  1
  P  P32  1  0.07895300  0.15744900  0.57897700  1
  P  P33  1  0.58527300  0.50000000  0.74223200  1
  I  I34  1  0.33883150  0.69875350  0.85173900  1
  I  I35  1  0.35376600  0.00000000  0.53507000  1
  I  I36  1  0.66116850  0.30124650  0.14826100  1
  I  I37  1  0.33883150  0.30124650  0.85173900  1
  I  I38  1  0.66116850  0.69875350  0.14826100  1
  I  I39  1  0.64623400  0.00000000  0.46493000  1
  I  I40  1  0.83883150  0.19875350  0.85173900  1
  I  I41  1  0.85376600  0.50000000  0.53507000  1
  I  I42  1  0.16116850  0.80124650  0.14826100  1
  I  I43  1  0.83883150  0.80124650  0.85173900  1
  I  I44  1  0.16116850  0.19875350  0.14826100  1
  I  I45  1  0.14623400  0.50000000  0.46493000  1
