# generated using pymatgen
data_H8PtO6
_symmetry_space_group_name_H-M   'P 1'
_cell_length_a   5.56104100
_cell_length_b   5.67878217
_cell_length_c   7.34468574
_cell_angle_alpha   89.22017337
_cell_angle_beta   85.14284578
_cell_angle_gamma   81.37950579
_symmetry_Int_Tables_number   1
_chemical_formula_structural   H8PtO6
_chemical_formula_sum   'H16 Pt2 O12'
_cell_volume   228.50079120
_cell_formula_units_Z   2
loop_
 _symmetry_equiv_pos_site_id
 _symmetry_equiv_pos_as_xyz
  1  'x, y, z'
loop_
 _atom_site_type_symbol
 _atom_site_label
 _atom_site_symmetry_multiplicity
 _atom_site_fract_x
 _atom_site_fract_y
 _atom_site_fract_z
 _atom_site_occupancy
  H  H0  1  0.61106300  0.88680000  0.84502800  1
  H  H1  1  0.47429200  0.16651500  0.84102900  1
  H  H2  1  0.13574500  0.38065100  0.64321400  1
  H  H3  1  0.89198500  0.25882500  0.74364400  1
  H  H4  1  0.24654300  0.91086900  0.25077000  1
  H  H5  1  0.53010400  0.82897900  0.15066900  1
  H  H6  1  0.15004000  0.47753100  0.33384900  1
  H  H7  1  0.86782300  0.62210100  0.35066100  1
  H  H8  1  0.53786800  0.56035700  0.00150700  1
  H  H9  1  0.43665800  0.45518900  0.51263400  1
  H  H10  1  0.37820900  0.23075600  0.08561700  1
  H  H11  1  0.75410300  0.60575000  0.59227300  1
  H  H12  1  0.02893400  0.94554500  0.98352300  1
  H  H13  1  0.16426600  0.84804200  0.71296000  1
  H  H14  1  0.85367900  0.17548300  0.21186300  1
  H  H15  1  0.94671600  0.02695600  0.48487200  1
  Pt  Pt16  1  0.49853000  0.99770300  0.50534500  1
  Pt  Pt17  1  0.99997500  0.50067400  0.00492900  1
  O  O18  1  0.59392300  0.03520200  0.76428600  1
  O  O19  1  0.96160900  0.40986500  0.74142600  1
  O  O20  1  0.40892900  0.96458800  0.24214100  1
  O  O21  1  0.03765200  0.59590200  0.26518900  1
  O  O22  1  0.64905900  0.68261600  0.01642100  1
  O  O23  1  0.31489200  0.34054300  0.51241300  1
  O  O24  1  0.35337000  0.34143600  0.98135400  1
  O  O25  1  0.66471000  0.65518600  0.48390400  1
  O  O26  1  0.13416900  0.80189800  0.92390800  1
  O  O27  1  0.18059700  0.87597600  0.57544000  1
  O  O28  1  0.87726500  0.19123800  0.07402000  1
  O  O29  1  0.81010100  0.12959100  0.42610800  1
