# generated using pymatgen
data_Sr14La6Mg3Ti17O60
_symmetry_space_group_name_H-M   'P 1'
_cell_length_a   9.67094200
_cell_length_b   5.57902800
_cell_length_c   45.86957294
_cell_angle_alpha   90.00000000
_cell_angle_beta   94.30000353
_cell_angle_gamma   90.00000000
_symmetry_Int_Tables_number   1
_chemical_formula_structural   Sr14La6Mg3Ti17O60
_chemical_formula_sum   'Sr28 La12 Mg6 Ti34 O120'
_cell_volume   2467.90143002
_cell_formula_units_Z   2
loop_
 _symmetry_equiv_pos_site_id
 _symmetry_equiv_pos_as_xyz
  1  'x, y, z'
loop_
 _atom_site_type_symbol
 _atom_site_label
 _atom_site_symmetry_multiplicity
 _atom_site_fract_x
 _atom_site_fract_y
 _atom_site_fract_z
 _atom_site_occupancy
  Sr  Sr0  1  0.82571700  0.50000000  0.97496900  1
  Sr  Sr1  1  0.62508000  0.00000000  0.87517100  1
  Sr  Sr2  1  0.42509500  0.50000000  0.77525200  1
  Sr  Sr3  1  0.47616300  0.50000000  0.92452100  1
  Sr  Sr4  1  0.72509400  0.50000000  0.67529300  1
  Sr  Sr5  1  0.77555500  0.50000000  0.82511200  1
  Sr  Sr6  1  0.52505500  0.00000000  0.57531800  1
  Sr  Sr7  1  0.57542600  0.00000000  0.72514300  1
  Sr  Sr8  1  0.32504600  0.50000000  0.47541000  1
  Sr  Sr9  1  0.37540200  0.50000000  0.62516300  1
  Sr  Sr10  1  0.62385900  0.50000000  0.37563700  1
  Sr  Sr11  1  0.67557600  0.50000000  0.52517400  1
  Sr  Sr12  1  0.42532900  0.00000000  0.27551000  1
  Sr  Sr13  1  0.47517800  0.00000000  0.42558900  1
  Sr  Sr14  1  0.32571700  0.00000000  0.97496900  1
  Sr  Sr15  1  0.12508000  0.50000000  0.87517100  1
  Sr  Sr16  1  0.92509500  0.00000000  0.77525200  1
  Sr  Sr17  1  0.97616300  0.00000000  0.92452100  1
  Sr  Sr18  1  0.22509400  0.00000000  0.67529300  1
  Sr  Sr19  1  0.27555500  0.00000000  0.82511200  1
  Sr  Sr20  1  0.02505500  0.50000000  0.57531800  1
  Sr  Sr21  1  0.07542600  0.50000000  0.72514300  1
  Sr  Sr22  1  0.82504600  0.00000000  0.47541000  1
  Sr  Sr23  1  0.87540200  0.00000000  0.62516300  1
  Sr  Sr24  1  0.12385900  0.00000000  0.37563700  1
  Sr  Sr25  1  0.17557600  0.00000000  0.52517400  1
  Sr  Sr26  1  0.92532900  0.50000000  0.27551000  1
  Sr  Sr27  1  0.97517800  0.50000000  0.42558900  1
  La  La28  1  0.22143400  0.50000000  0.17666900  1
  La  La29  1  0.27734500  0.50000000  0.32489000  1
  La  La30  1  0.52029600  0.50000000  0.07582600  1
  La  La31  1  0.57943900  0.50000000  0.22338400  1
  La  La32  1  0.37807400  0.00000000  0.12438600  1
  La  La33  1  0.17930000  0.50000000  0.02436400  1
  La  La34  1  0.72143400  0.00000000  0.17666900  1
  La  La35  1  0.77734500  0.00000000  0.32489000  1
  La  La36  1  0.02029600  0.00000000  0.07582600  1
  La  La37  1  0.07943900  0.00000000  0.22338400  1
  La  La38  1  0.87807400  0.50000000  0.12438600  1
  La  La39  1  0.67930000  0.00000000  0.02436400  1
  Mg  Mg40  1  0.24928100  0.50000000  0.25007600  1
  Mg  Mg41  1  0.55005100  0.50000000  0.14966400  1
  Mg  Mg42  1  0.35187200  0.00000000  0.05028000  1
  Mg  Mg43  1  0.74928100  0.00000000  0.25007600  1
  Mg  Mg44  1  0.05005100  0.00000000  0.14966400  1
  Mg  Mg45  1  0.85187200  0.50000000  0.05028000  1
  Ti  Ti46  1  0.49638800  0.50000000  0.00161500  1
  Ti  Ti47  1  0.80070200  0.50000000  0.90072100  1
  Ti  Ti48  1  0.60038500  0.00000000  0.80056500  1
  Ti  Ti49  1  0.65403100  0.00000000  0.95056300  1
  Ti  Ti50  1  0.45146300  0.50000000  0.85050300  1
  Ti  Ti51  1  0.40010100  0.50000000  0.70059400  1
  Ti  Ti52  1  0.70012800  0.50000000  0.60060800  1
  Ti  Ti53  1  0.75086700  0.50000000  0.75057300  1
  Ti  Ti54  1  0.55070700  0.00000000  0.65059300  1
  Ti  Ti55  1  0.50052100  0.00000000  0.50065800  1
  Ti  Ti56  1  0.35093300  0.50000000  0.55061800  1
  Ti  Ti57  1  0.30150100  0.50000000  0.40076600  1
  Ti  Ti58  1  0.60166000  0.50000000  0.29795400  1
  Ti  Ti59  1  0.65044400  0.50000000  0.45056700  1
  Ti  Ti60  1  0.40323400  0.00000000  0.20043300  1
  Ti  Ti61  1  0.44627400  0.00000000  0.35010700  1
  Ti  Ti62  1  0.20018500  0.50000000  0.10034700  1
  Ti  Ti63  1  0.99638800  0.00000000  0.00161500  1
  Ti  Ti64  1  0.30070200  0.00000000  0.90072100  1
  Ti  Ti65  1  0.10038500  0.50000000  0.80056500  1
  Ti  Ti66  1  0.15403100  0.50000000  0.95056300  1
  Ti  Ti67  1  0.95146300  0.00000000  0.85050300  1
  Ti  Ti68  1  0.90010100  0.00000000  0.70059400  1
  Ti  Ti69  1  0.20012800  0.00000000  0.60060800  1
  Ti  Ti70  1  0.25086700  0.00000000  0.75057300  1
  Ti  Ti71  1  0.05070700  0.50000000  0.65059300  1
  Ti  Ti72  1  0.00052100  0.50000000  0.50065800  1
  Ti  Ti73  1  0.85093300  0.00000000  0.55061800  1
  Ti  Ti74  1  0.80150100  0.00000000  0.40076600  1
  Ti  Ti75  1  0.10166000  0.00000000  0.29795400  1
  Ti  Ti76  1  0.15044400  0.00000000  0.45056700  1
  Ti  Ti77  1  0.90323400  0.50000000  0.20043300  1
  Ti  Ti78  1  0.94627400  0.50000000  0.35010700  1
  Ti  Ti79  1  0.70018500  0.00000000  0.10034700  1
  O  O80  1  0.70965750  0.74812050  0.92273100  1
  O  O81  1  0.59480000  0.75597400  0.97829000  1
  O  O82  1  0.96351300  0.50000000  0.92856900  1
  O  O83  1  0.83814300  0.00000000  0.96916500  1
  O  O84  1  0.51190750  0.24966950  0.82289900  1
  O  O85  1  0.88725400  0.75016900  0.87661900  1
  O  O86  1  0.70965750  0.25187950  0.92273100  1
  O  O87  1  0.59480000  0.24402600  0.97829000  1
  O  O88  1  0.76403300  0.00000000  0.82810600  1
  O  O89  1  0.63442700  0.50000000  0.87110300  1
  O  O90  1  0.81231400  0.24975900  0.72294500  1
  O  O91  1  0.68745250  0.25026250  0.77653700  1
  O  O92  1  0.51190750  0.75033050  0.82289900  1
  O  O93  1  0.88725400  0.24983100  0.87661900  1
  O  O94  1  0.56432000  0.50000000  0.72815000  1
  O  O95  1  0.43460800  0.00000000  0.77132800  1
  O  O96  1  0.61230300  0.74980100  0.62294800  1
  O  O97  1  0.48755650  0.75021850  0.67654900  1
  O  O98  1  0.81231400  0.75024100  0.72294500  1
  O  O99  1  0.68745250  0.74973750  0.77653700  1
  O  O100  1  0.36435500  0.00000000  0.62817200  1
  O  O101  1  0.73474700  0.00000000  0.67137700  1
  O  O102  1  0.41208200  0.24971500  0.52297500  1
  O  O103  1  0.78754150  0.75021350  0.57657800  1
  O  O104  1  0.61230300  0.25019900  0.62294800  1
  O  O105  1  0.48755650  0.24978150  0.67654900  1
  O  O106  1  0.66413100  0.00000000  0.52822800  1
  O  O107  1  0.53473000  0.50000000  0.57138200  1
  O  O108  1  0.71028800  0.24859200  0.42276100  1
  O  O109  1  0.58756550  0.25024550  0.47665500  1
  O  O110  1  0.41208200  0.75028500  0.52297500  1
  O  O111  1  0.78754150  0.24978650  0.57657800  1
  O  O112  1  0.46379900  0.50000000  0.42867000  1
  O  O113  1  0.33431200  0.00000000  0.47125100  1
  O  O114  1  0.50071900  0.74580700  0.32310200  1
  O  O115  1  0.39207750  0.74963350  0.37757200  1
  O  O116  1  0.71028800  0.75140800  0.42276100  1
  O  O117  1  0.58756550  0.74975450  0.47665500  1
  O  O118  1  0.26140300  0.00000000  0.33128900  1
  O  O119  1  0.64388800  0.00000000  0.36901100  1
  O  O120  1  0.29325550  0.24440150  0.21934700  1
  O  O121  1  0.19884150  0.25118950  0.28106100  1
  O  O122  1  0.50071900  0.25419300  0.32310200  1
  O  O123  1  0.39207750  0.25036650  0.37757200  1
  O  O124  1  0.54878700  0.00000000  0.23081700  1
  O  O125  1  0.45399500  0.50000000  0.26832000  1
  O  O126  1  0.09014650  0.74583250  0.11865500  1
  O  O127  1  0.50651350  0.24733450  0.17995900  1
  O  O128  1  0.29325550  0.75559850  0.21934700  1
  O  O129  1  0.19884150  0.74881050  0.28106100  1
  O  O130  1  0.34103900  0.50000000  0.13292600  1
  O  O131  1  0.25677700  0.00000000  0.16635800  1
  O  O132  1  0.39759650  0.73904550  0.02089800  1
  O  O133  1  0.30703500  0.74506800  0.08044300  1
  O  O134  1  0.09014650  0.25416750  0.11865500  1
  O  O135  1  0.50651350  0.75266550  0.17995900  1
  O  O136  1  0.14716300  0.00000000  0.03136200  1
  O  O137  1  0.05851100  0.50000000  0.06625900  1
  O  O138  1  0.39759650  0.26095450  0.02089800  1
  O  O139  1  0.30703500  0.25493200  0.08044300  1
  O  O140  1  0.20965750  0.24812050  0.92273100  1
  O  O141  1  0.09480000  0.25597400  0.97829000  1
  O  O142  1  0.46351300  0.00000000  0.92856900  1
  O  O143  1  0.33814300  0.50000000  0.96916500  1
  O  O144  1  0.01190750  0.74966950  0.82289900  1
  O  O145  1  0.38725400  0.25016900  0.87661900  1
  O  O146  1  0.20965750  0.75187950  0.92273100  1
  O  O147  1  0.09480000  0.74402600  0.97829000  1
  O  O148  1  0.26403300  0.50000000  0.82810600  1
  O  O149  1  0.13442700  0.00000000  0.87110300  1
  O  O150  1  0.31231400  0.74975900  0.72294500  1
  O  O151  1  0.18745250  0.75026250  0.77653700  1
  O  O152  1  0.01190750  0.25033050  0.82289900  1
  O  O153  1  0.38725400  0.74983100  0.87661900  1
  O  O154  1  0.06432000  0.00000000  0.72815000  1
  O  O155  1  0.93460800  0.50000000  0.77132800  1
  O  O156  1  0.11230300  0.24980100  0.62294800  1
  O  O157  1  0.98755650  0.25021850  0.67654900  1
  O  O158  1  0.31231400  0.25024100  0.72294500  1
  O  O159  1  0.18745250  0.24973750  0.77653700  1
  O  O160  1  0.86435500  0.50000000  0.62817200  1
  O  O161  1  0.23474700  0.50000000  0.67137700  1
  O  O162  1  0.91208200  0.74971500  0.52297500  1
  O  O163  1  0.28754150  0.25021350  0.57657800  1
  O  O164  1  0.11230300  0.75019900  0.62294800  1
  O  O165  1  0.98755650  0.74978150  0.67654900  1
  O  O166  1  0.16413100  0.50000000  0.52822800  1
  O  O167  1  0.03473000  0.00000000  0.57138200  1
  O  O168  1  0.21028800  0.74859200  0.42276100  1
  O  O169  1  0.08756550  0.75024550  0.47665500  1
  O  O170  1  0.91208200  0.25028500  0.52297500  1
  O  O171  1  0.28754150  0.74978650  0.57657800  1
  O  O172  1  0.96379900  0.00000000  0.42867000  1
  O  O173  1  0.83431200  0.50000000  0.47125100  1
  O  O174  1  0.00071900  0.24580700  0.32310200  1
  O  O175  1  0.89207750  0.24963350  0.37757200  1
  O  O176  1  0.21028800  0.25140800  0.42276100  1
  O  O177  1  0.08756550  0.24975450  0.47665500  1
  O  O178  1  0.76140300  0.50000000  0.33128900  1
  O  O179  1  0.14388800  0.50000000  0.36901100  1
  O  O180  1  0.79325550  0.74440150  0.21934700  1
  O  O181  1  0.69884150  0.75118950  0.28106100  1
  O  O182  1  0.00071900  0.75419300  0.32310200  1
  O  O183  1  0.89207750  0.75036650  0.37757200  1
  O  O184  1  0.04878700  0.50000000  0.23081700  1
  O  O185  1  0.95399500  0.00000000  0.26832000  1
  O  O186  1  0.59014650  0.24583250  0.11865500  1
  O  O187  1  0.00651350  0.74733450  0.17995900  1
  O  O188  1  0.79325550  0.25559850  0.21934700  1
  O  O189  1  0.69884150  0.24881050  0.28106100  1
  O  O190  1  0.84103900  0.00000000  0.13292600  1
  O  O191  1  0.75677700  0.50000000  0.16635800  1
  O  O192  1  0.89759650  0.23904550  0.02089800  1
  O  O193  1  0.80703500  0.24506800  0.08044300  1
  O  O194  1  0.59014650  0.75416750  0.11865500  1
  O  O195  1  0.00651350  0.25266550  0.17995900  1
  O  O196  1  0.64716300  0.50000000  0.03136200  1
  O  O197  1  0.55851100  0.00000000  0.06625900  1
  O  O198  1  0.89759650  0.76095450  0.02089800  1
  O  O199  1  0.80703500  0.75493200  0.08044300  1
