# generated using pymatgen
data_Cu3AsSe4
_symmetry_space_group_name_H-M   'P 1'
_cell_length_a   5.62115600
_cell_length_b   5.62115600
_cell_length_c   11.14001200
_cell_angle_alpha   90.00000000
_cell_angle_beta   90.00000000
_cell_angle_gamma   90.00000000
_symmetry_Int_Tables_number   1
_chemical_formula_structural   Cu3AsSe4
_chemical_formula_sum   'Cu6 As2 Se8'
_cell_volume   351.99535698
_cell_formula_units_Z   2
loop_
 _symmetry_equiv_pos_site_id
 _symmetry_equiv_pos_as_xyz
  1  'x, y, z'
loop_
 _atom_site_type_symbol
 _atom_site_label
 _atom_site_symmetry_multiplicity
 _atom_site_fract_x
 _atom_site_fract_y
 _atom_site_fract_z
 _atom_site_occupancy
  Cu  Cu0  1  0.50000000  0.00000000  0.25000000  1
  Cu  Cu1  1  0.00000000  0.50000000  0.25000000  1
  Cu  Cu2  1  0.50000000  0.50000000  0.00000000  1
  Cu  Cu3  1  0.00000000  0.50000000  0.75000000  1
  Cu  Cu4  1  0.50000000  0.00000000  0.75000000  1
  Cu  Cu5  1  0.00000000  0.00000000  0.50000000  1
  As  As6  1  0.00000000  0.00000000  0.00000000  1
  As  As7  1  0.50000000  0.50000000  0.50000000  1
  Se  Se8  1  0.25451600  0.74548400  0.13102100  1
  Se  Se9  1  0.75451600  0.75451600  0.36897900  1
  Se  Se10  1  0.74548400  0.25451600  0.13102100  1
  Se  Se11  1  0.24548400  0.24548400  0.36897900  1
  Se  Se12  1  0.75451600  0.24548400  0.63102100  1
  Se  Se13  1  0.25451600  0.25451600  0.86897900  1
  Se  Se14  1  0.24548400  0.75451600  0.63102100  1
  Se  Se15  1  0.74548400  0.74548400  0.86897900  1
