# generated using pymatgen
data_RbHO
_symmetry_space_group_name_H-M   'P 1'
_cell_length_a   4.24075800
_cell_length_b   11.54276200
_cell_length_c   4.19343400
_cell_angle_alpha   90.00000000
_cell_angle_beta   90.00000000
_cell_angle_gamma   90.00000000
_symmetry_Int_Tables_number   1
_chemical_formula_structural   RbHO
_chemical_formula_sum   'Rb4 H4 O4'
_cell_volume   205.26884714
_cell_formula_units_Z   4
loop_
 _symmetry_equiv_pos_site_id
 _symmetry_equiv_pos_as_xyz
  1  'x, y, z'
loop_
 _atom_site_type_symbol
 _atom_site_label
 _atom_site_symmetry_multiplicity
 _atom_site_fract_x
 _atom_site_fract_y
 _atom_site_fract_z
 _atom_site_occupancy
  Rb  Rb0  1  0.00000000  0.35822300  0.73679600  1
  Rb  Rb1  1  0.50000000  0.14177700  0.23679600  1
  Rb  Rb2  1  0.50000000  0.85822300  0.73679600  1
  Rb  Rb3  1  0.00000000  0.64177700  0.23679600  1
  H  H4  1  0.00000000  0.04298900  0.61257400  1
  H  H5  1  0.50000000  0.45701100  0.11257400  1
  H  H6  1  0.50000000  0.54298900  0.61257400  1
  H  H7  1  0.00000000  0.95701100  0.11257400  1
  O  O8  1  0.00000000  0.11045000  0.75523800  1
  O  O9  1  0.50000000  0.38955000  0.25523800  1
  O  O10  1  0.50000000  0.61045000  0.75523800  1
  O  O11  1  0.00000000  0.88955000  0.25523800  1
