# generated using pymatgen
data_Na4Pu(MoO4)4
_symmetry_space_group_name_H-M   'P 1'
_cell_length_a   11.38341000
_cell_length_b   11.38341000
_cell_length_c   12.01436200
_cell_angle_alpha   90.00000000
_cell_angle_beta   90.00000000
_cell_angle_gamma   90.00000000
_symmetry_Int_Tables_number   1
_chemical_formula_structural   Na4Pu(MoO4)4
_chemical_formula_sum   'Na16 Pu4 Mo16 O64'
_cell_volume   1556.84533575
_cell_formula_units_Z   4
loop_
 _symmetry_equiv_pos_site_id
 _symmetry_equiv_pos_as_xyz
  1  'x, y, z'
loop_
 _atom_site_type_symbol
 _atom_site_label
 _atom_site_symmetry_multiplicity
 _atom_site_fract_x
 _atom_site_fract_y
 _atom_site_fract_z
 _atom_site_occupancy
  Na  Na0  1  0.22762500  0.60782800  0.02865200  1
  Na  Na1  1  0.22762500  0.10782800  0.22134800  1
  Na  Na2  1  0.10782800  0.27237500  0.47134800  1
  Na  Na3  1  0.39217200  0.72762500  0.27865200  1
  Na  Na4  1  0.39217200  0.22762500  0.97134800  1
  Na  Na5  1  0.60782800  0.27237500  0.27865200  1
  Na  Na6  1  0.77237500  0.89217200  0.22134800  1
  Na  Na7  1  0.27237500  0.89217200  0.52865200  1
  Na  Na8  1  0.72762500  0.10782800  0.52865200  1
  Na  Na9  1  0.72762500  0.60782800  0.72134800  1
  Na  Na10  1  0.60782800  0.77237500  0.97134800  1
  Na  Na11  1  0.89217200  0.22762500  0.77865200  1
  Na  Na12  1  0.89217200  0.72762500  0.47134800  1
  Na  Na13  1  0.10782800  0.77237500  0.77865200  1
  Na  Na14  1  0.27237500  0.39217200  0.72134800  1
  Na  Na15  1  0.77237500  0.39217200  0.02865200  1
  Pu  Pu16  1  0.00000000  0.00000000  0.00000000  1
  Pu  Pu17  1  0.00000000  0.50000000  0.25000000  1
  Pu  Pu18  1  0.50000000  0.50000000  0.50000000  1
  Pu  Pu19  1  0.50000000  0.00000000  0.75000000  1
  Mo  Mo20  1  0.09470000  0.31887500  0.00238800  1
  Mo  Mo21  1  0.31887500  0.40530000  0.25238800  1
  Mo  Mo22  1  0.59470000  0.31887500  0.74761200  1
  Mo  Mo23  1  0.68112500  0.09470000  0.99761200  1
  Mo  Mo24  1  0.18112500  0.09470000  0.75238800  1
  Mo  Mo25  1  0.40530000  0.18112500  0.50238800  1
  Mo  Mo26  1  0.81887500  0.40530000  0.49761200  1
  Mo  Mo27  1  0.90530000  0.18112500  0.24761200  1
  Mo  Mo28  1  0.59470000  0.81887500  0.50238800  1
  Mo  Mo29  1  0.81887500  0.90530000  0.75238800  1
  Mo  Mo30  1  0.09470000  0.81887500  0.24761200  1
  Mo  Mo31  1  0.18112500  0.59470000  0.49761200  1
  Mo  Mo32  1  0.68112500  0.59470000  0.25238800  1
  Mo  Mo33  1  0.90530000  0.68112500  0.00238800  1
  Mo  Mo34  1  0.31887500  0.90530000  0.99761200  1
  Mo  Mo35  1  0.40530000  0.68112500  0.74761200  1
  O  O36  1  0.11798750  0.93957550  0.14821050  1
  O  O37  1  0.34971150  0.03478150  0.07174550  1
  O  O38  1  0.17243600  0.21595500  0.65970800  1
  O  O39  1  0.28404500  0.17243600  0.40970800  1
  O  O40  1  0.46521850  0.34971150  0.82174550  1
  O  O41  1  0.41269900  0.32629700  0.57149200  1
  O  O42  1  0.03478150  0.15028850  0.32174550  1
  O  O43  1  0.34971150  0.53478150  0.17825450  1
  O  O44  1  0.53478150  0.15028850  0.42825450  1
  O  O45  1  0.82629700  0.08730100  0.92850800  1
  O  O46  1  0.38201250  0.06042450  0.60178950  1
  O  O47  1  0.91269900  0.32629700  0.17850800  1
  O  O48  1  0.15028850  0.96521850  0.67825450  1
  O  O49  1  0.17370300  0.41269900  0.32149200  1
  O  O50  1  0.38201250  0.56042450  0.64821050  1
  O  O51  1  0.21595500  0.82756400  0.34029200  1
  O  O52  1  0.46521850  0.84971150  0.42825450  1
  O  O53  1  0.65028850  0.96521850  0.07174550  1
  O  O54  1  0.11798750  0.43957550  0.10178950  1
  O  O55  1  0.21595500  0.32756400  0.90970800  1
  O  O56  1  0.82756400  0.28404500  0.59029200  1
  O  O57  1  0.56042450  0.11798750  0.89821050  1
  O  O58  1  0.06042450  0.11798750  0.85178950  1
  O  O59  1  0.08730100  0.67370300  0.17850800  1
  O  O60  1  0.28404500  0.67243600  0.84029200  1
  O  O61  1  0.32756400  0.28404500  0.15970800  1
  O  O62  1  0.67243600  0.21595500  0.09029200  1
  O  O63  1  0.08730100  0.17370300  0.07149200  1
  O  O64  1  0.82629700  0.58730100  0.32149200  1
  O  O65  1  0.67370300  0.41269900  0.42850800  1
  O  O66  1  0.43957550  0.38201250  0.35178950  1
  O  O67  1  0.93957550  0.38201250  0.39821050  1
  O  O68  1  0.61798750  0.43957550  0.64821050  1
  O  O69  1  0.84971150  0.53478150  0.57174550  1
  O  O70  1  0.67243600  0.71595500  0.15970800  1
  O  O71  1  0.78404500  0.67243600  0.90970800  1
  O  O72  1  0.96521850  0.84971150  0.32174550  1
  O  O73  1  0.91269900  0.82629700  0.07149200  1
  O  O74  1  0.53478150  0.65028850  0.82174550  1
  O  O75  1  0.84971150  0.03478150  0.67825450  1
  O  O76  1  0.03478150  0.65028850  0.92825450  1
  O  O77  1  0.32629700  0.58730100  0.42850800  1
  O  O78  1  0.88201250  0.56042450  0.10178950  1
  O  O79  1  0.41269900  0.82629700  0.67850800  1
  O  O80  1  0.65028850  0.46521850  0.17825450  1
  O  O81  1  0.67370300  0.91269900  0.82149200  1
  O  O82  1  0.88201250  0.06042450  0.14821050  1
  O  O83  1  0.71595500  0.32756400  0.84029200  1
  O  O84  1  0.96521850  0.34971150  0.92825450  1
  O  O85  1  0.15028850  0.46521850  0.57174550  1
  O  O86  1  0.61798750  0.93957550  0.60178950  1
  O  O87  1  0.71595500  0.82756400  0.40970800  1
  O  O88  1  0.32756400  0.78404500  0.09029200  1
  O  O89  1  0.06042450  0.61798750  0.39821050  1
  O  O90  1  0.56042450  0.61798750  0.35178950  1
  O  O91  1  0.58730100  0.17370300  0.67850800  1
  O  O92  1  0.78404500  0.17243600  0.34029200  1
  O  O93  1  0.82756400  0.78404500  0.65970800  1
  O  O94  1  0.17243600  0.71595500  0.59029200  1
  O  O95  1  0.58730100  0.67370300  0.57149200  1
  O  O96  1  0.32629700  0.08730100  0.82149200  1
  O  O97  1  0.17370300  0.91269900  0.92850800  1
  O  O98  1  0.93957550  0.88201250  0.85178950  1
  O  O99  1  0.43957550  0.88201250  0.89821050  1
