# generated using pymatgen
data_Ta2H4O7
_symmetry_space_group_name_H-M   'P 1'
_cell_length_a   10.61094600
_cell_length_b   10.54873800
_cell_length_c   7.46055392
_cell_angle_alpha   90.00000000
_cell_angle_beta   132.99498564
_cell_angle_gamma   90.00000000
_symmetry_Int_Tables_number   1
_chemical_formula_structural   Ta2H4O7
_chemical_formula_sum   'Ta8 H16 O28'
_cell_volume   610.78531628
_cell_formula_units_Z   4
loop_
 _symmetry_equiv_pos_site_id
 _symmetry_equiv_pos_as_xyz
  1  'x, y, z'
loop_
 _atom_site_type_symbol
 _atom_site_label
 _atom_site_symmetry_multiplicity
 _atom_site_fract_x
 _atom_site_fract_y
 _atom_site_fract_z
 _atom_site_occupancy
  Ta  Ta0  1  0.75857050  0.25818050  0.50841900  1
  Ta  Ta1  1  0.01024950  0.50219250  0.50266300  1
  Ta  Ta2  1  0.75857050  0.74181950  0.00841900  1
  Ta  Ta3  1  0.01024950  0.49780750  0.00266300  1
  Ta  Ta4  1  0.25857050  0.75818050  0.50841900  1
  Ta  Ta5  1  0.51024950  0.00219250  0.50266300  1
  Ta  Ta6  1  0.25857050  0.24181950  0.00841900  1
  Ta  Ta7  1  0.51024950  0.99780750  0.00266300  1
  H  H8  1  0.09619700  0.14396900  0.37028800  1
  H  H9  1  0.94773000  0.13861100  0.08713500  1
  H  H10  1  0.29989250  0.63341950  0.23534000  1
  H  H11  1  0.00560750  0.92481250  0.24607100  1
  H  H12  1  0.09619700  0.85603100  0.87028800  1
  H  H13  1  0.94773000  0.86138900  0.58713500  1
  H  H14  1  0.00560750  0.07518750  0.74607100  1
  H  H15  1  0.29989250  0.36658050  0.73534000  1
  H  H16  1  0.59619700  0.64396900  0.37028800  1
  H  H17  1  0.44773000  0.63861100  0.08713500  1
  H  H18  1  0.79989250  0.13341950  0.23534000  1
  H  H19  1  0.50560750  0.42481250  0.24607100  1
  H  H20  1  0.59619700  0.35603100  0.87028800  1
  H  H21  1  0.44773000  0.36138900  0.58713500  1
  H  H22  1  0.50560750  0.57518750  0.74607100  1
  H  H23  1  0.79989250  0.86658050  0.73534000  1
  O  O24  1  0.19297900  0.62775800  0.60460000  1
  O  O25  1  0.84893200  0.63199200  0.90546900  1
  O  O26  1  0.01482450  0.83029650  0.25930800  1
  O  O27  1  0.02338000  0.44286800  0.25915200  1
  O  O28  1  0.83580400  0.62680200  0.25995900  1
  O  O29  1  0.21715400  0.62774800  0.25506900  1
  O  O30  1  0.84893200  0.36800800  0.40546900  1
  O  O31  1  0.19297900  0.37224200  0.10460000  1
  O  O32  1  0.01482450  0.16970350  0.75930800  1
  O  O33  1  0.02338000  0.55713200  0.75915200  1
  O  O34  1  0.21715400  0.37225200  0.75506900  1
  O  O35  1  0.83580400  0.37319800  0.75995900  1
  O  O36  1  0.98874250  0.09987350  0.23825100  1
  O  O37  1  0.98874250  0.90012650  0.73825100  1
  O  O38  1  0.69297900  0.12775800  0.60460000  1
  O  O39  1  0.34893200  0.13199200  0.90546900  1
  O  O40  1  0.51482450  0.33029650  0.25930800  1
  O  O41  1  0.52338000  0.94286800  0.25915200  1
  O  O42  1  0.33580400  0.12680200  0.25995900  1
  O  O43  1  0.71715400  0.12774800  0.25506900  1
  O  O44  1  0.34893200  0.86800800  0.40546900  1
  O  O45  1  0.69297900  0.87224200  0.10460000  1
  O  O46  1  0.51482450  0.66970350  0.75930800  1
  O  O47  1  0.52338000  0.05713200  0.75915200  1
  O  O48  1  0.71715400  0.87225200  0.75506900  1
  O  O49  1  0.33580400  0.87319800  0.75995900  1
  O  O50  1  0.48874250  0.59987350  0.23825100  1
  O  O51  1  0.48874250  0.40012650  0.73825100  1
