# generated using pymatgen
data_VAgTeO5
_symmetry_space_group_name_H-M   'P 1'
_cell_length_a   5.94779300
_cell_length_b   11.54341700
_cell_length_c   6.90056348
_cell_angle_alpha   90.00000000
_cell_angle_beta   102.69380650
_cell_angle_gamma   90.00000000
_symmetry_Int_Tables_number   1
_chemical_formula_structural   VAgTeO5
_chemical_formula_sum   'V4 Ag4 Te4 O20'
_cell_volume   462.19795024
_cell_formula_units_Z   4
loop_
 _symmetry_equiv_pos_site_id
 _symmetry_equiv_pos_as_xyz
  1  'x, y, z'
loop_
 _atom_site_type_symbol
 _atom_site_label
 _atom_site_symmetry_multiplicity
 _atom_site_fract_x
 _atom_site_fract_y
 _atom_site_fract_z
 _atom_site_occupancy
  V  V0  1  0.67929700  0.87930500  0.41175500  1
  V  V1  1  0.32070300  0.12069500  0.58824500  1
  V  V2  1  0.67929700  0.62069500  0.91175500  1
  V  V3  1  0.32070300  0.37930500  0.08824500  1
  Ag  Ag4  1  0.80177100  0.20850200  0.30950600  1
  Ag  Ag5  1  0.80177100  0.29149800  0.80950600  1
  Ag  Ag6  1  0.19822900  0.79149800  0.69049400  1
  Ag  Ag7  1  0.19822900  0.70850200  0.19049400  1
  Te  Te8  1  0.24051300  0.06054300  0.09721500  1
  Te  Te9  1  0.75948700  0.56054300  0.40278500  1
  Te  Te10  1  0.24051300  0.43945700  0.59721500  1
  Te  Te11  1  0.75948700  0.93945700  0.90278500  1
  O  O12  1  0.87630100  0.09209300  0.98730300  1
  O  O13  1  0.46860300  0.70273600  0.96802400  1
  O  O14  1  0.86406500  0.79236200  0.32545500  1
  O  O15  1  0.13593500  0.20763800  0.67454500  1
  O  O16  1  0.56147900  0.51621300  0.72005100  1
  O  O17  1  0.16534100  0.45240900  0.85828000  1
  O  O18  1  0.13593500  0.29236200  0.17454500  1
  O  O19  1  0.83465900  0.54759100  0.14172000  1
  O  O20  1  0.87630100  0.40790700  0.48730300  1
  O  O21  1  0.46860300  0.79726400  0.46802400  1
  O  O22  1  0.53139700  0.29726400  0.03197600  1
  O  O23  1  0.53139700  0.20273600  0.53197600  1
  O  O24  1  0.56147900  0.98378700  0.22005100  1
  O  O25  1  0.43852100  0.48378700  0.27994900  1
  O  O26  1  0.12369900  0.90790700  0.01269700  1
  O  O27  1  0.12369900  0.59209300  0.51269700  1
  O  O28  1  0.16534100  0.04759100  0.35828000  1
  O  O29  1  0.86406500  0.70763800  0.82545500  1
  O  O30  1  0.83465900  0.95240900  0.64172000  1
  O  O31  1  0.43852100  0.01621300  0.77994900  1
