# generated using pymatgen
data_CoH22N7(ClO2)4
_symmetry_space_group_name_H-M   'P 1'
_cell_length_a   13.95630200
_cell_length_b   7.30652400
_cell_length_c   10.30100783
_cell_angle_alpha   90.00000000
_cell_angle_beta   117.82009526
_cell_angle_gamma   90.00000000
_symmetry_Int_Tables_number   1
_chemical_formula_structural   CoH22N7(ClO2)4
_chemical_formula_sum   'Co2 H44 N14 Cl8 O16'
_cell_volume   929.00519484
_cell_formula_units_Z   2
loop_
 _symmetry_equiv_pos_site_id
 _symmetry_equiv_pos_as_xyz
  1  'x, y, z'
loop_
 _atom_site_type_symbol
 _atom_site_label
 _atom_site_symmetry_multiplicity
 _atom_site_fract_x
 _atom_site_fract_y
 _atom_site_fract_z
 _atom_site_occupancy
  Co  Co0  1  0.94581800  0.00000000  0.82362800  1
  Co  Co1  1  0.44581800  0.50000000  0.82362800  1
  H  H2  1  0.95020250  0.57387550  0.42543300  1
  H  H3  1  0.95020250  0.42612450  0.42543300  1
  H  H4  1  0.05745200  0.60715000  0.53489700  1
  H  H5  1  0.05745200  0.39285000  0.53489700  1
  H  H6  1  0.12468200  0.88650300  0.85095200  1
  H  H7  1  0.40436550  0.17427950  0.83135400  1
  H  H8  1  0.40436550  0.82572050  0.83135400  1
  H  H9  1  0.31718500  0.70692600  0.85473800  1
  H  H10  1  0.12468200  0.11349700  0.85095200  1
  H  H11  1  0.31718500  0.29307400  0.85473800  1
  H  H12  1  0.63953300  0.14741000  0.06983400  1
  H  H13  1  0.03900000  0.75199500  0.08410000  1
  H  H14  1  0.65259950  0.36592850  0.10895500  1
  H  H15  1  0.66160350  0.21948850  0.24214700  1
  H  H16  1  0.63953300  0.85259000  0.06983400  1
  H  H17  1  0.79474000  0.00000000  0.06772600  1
  H  H18  1  0.03900000  0.24800500  0.08410000  1
  H  H19  1  0.90593500  0.11648800  0.09979700  1
  H  H20  1  0.90593500  0.88351200  0.09979700  1
  H  H21  1  0.65259950  0.63407150  0.10895500  1
  H  H22  1  0.66160350  0.78051150  0.24214700  1
  H  H23  1  0.90409500  0.00000000  0.24173600  1
  H  H24  1  0.45020250  0.07387550  0.42543300  1
  H  H25  1  0.45020250  0.92612450  0.42543300  1
  H  H26  1  0.55745200  0.10715000  0.53489700  1
  H  H27  1  0.55745200  0.89285000  0.53489700  1
  H  H28  1  0.62468200  0.38650300  0.85095200  1
  H  H29  1  0.90436550  0.67427950  0.83135400  1
  H  H30  1  0.90436550  0.32572050  0.83135400  1
  H  H31  1  0.81718500  0.20692600  0.85473800  1
  H  H32  1  0.62468200  0.61349700  0.85095200  1
  H  H33  1  0.81718500  0.79307400  0.85473800  1
  H  H34  1  0.13953300  0.64741000  0.06983400  1
  H  H35  1  0.53900000  0.25199500  0.08410000  1
  H  H36  1  0.15259950  0.86592850  0.10895500  1
  H  H37  1  0.16160350  0.71948850  0.24214700  1
  H  H38  1  0.13953300  0.35259000  0.06983400  1
  H  H39  1  0.29474000  0.50000000  0.06772600  1
  H  H40  1  0.53900000  0.74800500  0.08410000  1
  H  H41  1  0.40593500  0.61648800  0.09979700  1
  H  H42  1  0.40593500  0.38351200  0.09979700  1
  H  H43  1  0.15259950  0.13407150  0.10895500  1
  H  H44  1  0.16160350  0.28051150  0.24214700  1
  H  H45  1  0.40409500  0.50000000  0.24173600  1
  N  N46  1  0.09173200  0.00000000  0.87328400  1
  N  N47  1  0.39918600  0.28487600  0.88969800  1
  N  N48  1  0.39918600  0.71512400  0.88969800  1
  N  N49  1  0.00498900  0.50000000  0.53189700  1
  N  N50  1  0.62370550  0.24708950  0.13154700  1
  N  N51  1  0.62370550  0.75291050  0.13154700  1
  N  N52  1  0.88003600  0.00000000  0.13124800  1
  N  N53  1  0.59173200  0.50000000  0.87328400  1
  N  N54  1  0.89918600  0.78487600  0.88969800  1
  N  N55  1  0.89918600  0.21512400  0.88969800  1
  N  N56  1  0.50498900  0.00000000  0.53189700  1
  N  N57  1  0.12370550  0.74708950  0.13154700  1
  N  N58  1  0.12370550  0.25291050  0.13154700  1
  N  N59  1  0.38003600  0.50000000  0.13124800  1
  Cl  Cl60  1  0.16473300  0.00000000  0.53328600  1
  Cl  Cl61  1  0.88013200  0.50000000  0.20180600  1
  Cl  Cl62  1  0.14423900  0.50000000  0.90878000  1
  Cl  Cl63  1  0.82345600  0.00000000  0.44093000  1
  Cl  Cl64  1  0.66473300  0.50000000  0.53328600  1
  Cl  Cl65  1  0.38013200  0.00000000  0.20180600  1
  Cl  Cl66  1  0.64423900  0.00000000  0.90878000  1
  Cl  Cl67  1  0.32345600  0.50000000  0.44093000  1
  O  O68  1  0.11100100  0.00000000  0.37174300  1
  O  O69  1  0.85314600  0.83727700  0.38626100  1
  O  O70  1  0.70598500  0.00000000  0.38929800  1
  O  O71  1  0.85314600  0.16272300  0.38626100  1
  O  O72  1  0.28180400  0.00000000  0.58992900  1
  O  O73  1  0.13180450  0.83703750  0.58564800  1
  O  O74  1  0.13180450  0.16296250  0.58564800  1
  O  O75  1  0.87874000  0.00000000  0.60088900  1
  O  O76  1  0.61100100  0.50000000  0.37174300  1
  O  O77  1  0.35314600  0.33727700  0.38626100  1
  O  O78  1  0.20598500  0.50000000  0.38929800  1
  O  O79  1  0.35314600  0.66272300  0.38626100  1
  O  O80  1  0.78180400  0.50000000  0.58992900  1
  O  O81  1  0.63180450  0.33703750  0.58564800  1
  O  O82  1  0.63180450  0.66296250  0.58564800  1
  O  O83  1  0.37874000  0.50000000  0.60088900  1
