# generated using pymatgen
data_Rb5Tc3S7
_symmetry_space_group_name_H-M   'P 1'
_cell_length_a   18.69795800
_cell_length_b   10.79156200
_cell_length_c   11.02618728
_cell_angle_alpha   90.00000000
_cell_angle_beta   125.99696664
_cell_angle_gamma   90.00000000
_symmetry_Int_Tables_number   1
_chemical_formula_structural   Rb5Tc3S7
_chemical_formula_sum   'Rb20 Tc12 S28'
_cell_volume   1800.02361804
_cell_formula_units_Z   4
loop_
 _symmetry_equiv_pos_site_id
 _symmetry_equiv_pos_as_xyz
  1  'x, y, z'
loop_
 _atom_site_type_symbol
 _atom_site_label
 _atom_site_symmetry_multiplicity
 _atom_site_fract_x
 _atom_site_fract_y
 _atom_site_fract_z
 _atom_site_occupancy
  Rb  Rb0  1  0.98989000  0.00000000  0.99027300  1
  Rb  Rb1  1  0.29877550  0.28304250  0.00179800  1
  Rb  Rb2  1  0.29987700  0.29363600  0.59434300  1
  Rb  Rb3  1  0.64465500  0.50000000  0.85642500  1
  Rb  Rb4  1  0.66153000  0.50000000  0.42839300  1
  Rb  Rb5  1  0.29987700  0.70636400  0.59434300  1
  Rb  Rb6  1  0.46414400  0.50000000  0.42943100  1
  Rb  Rb7  1  0.29877550  0.71695750  0.00179800  1
  Rb  Rb8  1  0.11840850  0.69974050  0.11829500  1
  Rb  Rb9  1  0.11840850  0.30025950  0.11829500  1
  Rb  Rb10  1  0.48989000  0.50000000  0.99027300  1
  Rb  Rb11  1  0.79877550  0.78304250  0.00179800  1
  Rb  Rb12  1  0.79987700  0.79363600  0.59434300  1
  Rb  Rb13  1  0.14465500  0.00000000  0.85642500  1
  Rb  Rb14  1  0.16153000  0.00000000  0.42839300  1
  Rb  Rb15  1  0.79987700  0.20636400  0.59434300  1
  Rb  Rb16  1  0.96414400  0.00000000  0.42943100  1
  Rb  Rb17  1  0.79877550  0.21695750  0.00179800  1
  Rb  Rb18  1  0.61840850  0.19974050  0.11829500  1
  Rb  Rb19  1  0.61840850  0.80025950  0.11829500  1
  Tc  Tc20  1  0.50068900  0.12293600  0.61997100  1
  Tc  Tc21  1  0.62378900  0.00000000  0.62386700  1
  Tc  Tc22  1  0.50151650  0.12375550  0.38177400  1
  Tc  Tc23  1  0.50068900  0.87706400  0.61997100  1
  Tc  Tc24  1  0.37673500  0.00000000  0.37449600  1
  Tc  Tc25  1  0.50151650  0.87624450  0.38177400  1
  Tc  Tc26  1  0.00068900  0.62293600  0.61997100  1
  Tc  Tc27  1  0.12378900  0.50000000  0.62386700  1
  Tc  Tc28  1  0.00151650  0.62375550  0.38177400  1
  Tc  Tc29  1  0.00068900  0.37706400  0.61997100  1
  Tc  Tc30  1  0.87673500  0.50000000  0.37449600  1
  Tc  Tc31  1  0.00151650  0.37624450  0.38177400  1
  S  S32  1  0.78521100  0.00000000  0.78784400  1
  S  S33  1  0.50521950  0.28805150  0.77580600  1
  S  S34  1  0.61323600  0.00000000  0.83252600  1
  S  S35  1  0.61417800  0.22449800  0.61413500  1
  S  S36  1  0.38683100  0.00000000  0.60548600  1
  S  S37  1  0.50803000  0.29530200  0.24172300  1
  S  S38  1  0.61348000  0.00000000  0.39246700  1
  S  S39  1  0.38496600  0.22221700  0.38491700  1
  S  S40  1  0.61417800  0.77550200  0.61413500  1
  S  S41  1  0.50521950  0.71194850  0.77580600  1
  S  S42  1  0.38496600  0.77778300  0.38491700  1
  S  S43  1  0.38949300  0.00000000  0.16793800  1
  S  S44  1  0.21288500  0.00000000  0.20013300  1
  S  S45  1  0.50803000  0.70469800  0.24172300  1
  S  S46  1  0.28521100  0.50000000  0.78784400  1
  S  S47  1  0.00521950  0.78805150  0.77580600  1
  S  S48  1  0.11323600  0.50000000  0.83252600  1
  S  S49  1  0.11417800  0.72449800  0.61413500  1
  S  S50  1  0.88683100  0.50000000  0.60548600  1
  S  S51  1  0.00803000  0.79530200  0.24172300  1
  S  S52  1  0.11348000  0.50000000  0.39246700  1
  S  S53  1  0.88496600  0.72221700  0.38491700  1
  S  S54  1  0.11417800  0.27550200  0.61413500  1
  S  S55  1  0.00521950  0.21194850  0.77580600  1
  S  S56  1  0.88496600  0.27778300  0.38491700  1
  S  S57  1  0.88949300  0.50000000  0.16793800  1
  S  S58  1  0.71288500  0.50000000  0.20013300  1
  S  S59  1  0.00803000  0.20469800  0.24172300  1
