# generated using pymatgen
data_Ba5Er8Zn4O21
_symmetry_space_group_name_H-M   'P 1'
_cell_length_a   13.81042800
_cell_length_b   13.81042800
_cell_length_c   5.72258800
_cell_angle_alpha   90.00000000
_cell_angle_beta   90.00000000
_cell_angle_gamma   90.00000000
_symmetry_Int_Tables_number   1
_chemical_formula_structural   Ba5Er8Zn4O21
_chemical_formula_sum   'Ba10 Er16 Zn8 O42'
_cell_volume   1091.45731509
_cell_formula_units_Z   2
loop_
 _symmetry_equiv_pos_site_id
 _symmetry_equiv_pos_as_xyz
  1  'x, y, z'
loop_
 _atom_site_type_symbol
 _atom_site_label
 _atom_site_symmetry_multiplicity
 _atom_site_fract_x
 _atom_site_fract_y
 _atom_site_fract_z
 _atom_site_occupancy
  Ba  Ba0  1  0.46450750  0.86007250  0.00000000  1
  Ba  Ba1  1  0.63992750  0.96450750  0.50000000  1
  Ba  Ba2  1  0.36007250  0.03549250  0.50000000  1
  Ba  Ba3  1  0.53549250  0.13992750  0.00000000  1
  Ba  Ba4  1  0.00000000  0.00000000  0.00000000  1
  Ba  Ba5  1  0.96450750  0.36007250  0.50000000  1
  Ba  Ba6  1  0.13992750  0.46450750  0.00000000  1
  Ba  Ba7  1  0.86007250  0.53549250  0.00000000  1
  Ba  Ba8  1  0.03549250  0.63992750  0.50000000  1
  Ba  Ba9  1  0.50000000  0.50000000  0.50000000  1
  Er  Er10  1  0.58876200  0.64163500  0.00000000  1
  Er  Er11  1  0.85836500  0.08876200  0.50000000  1
  Er  Er12  1  0.14163500  0.91123800  0.50000000  1
  Er  Er13  1  0.41123800  0.35836500  0.00000000  1
  Er  Er14  1  0.75248100  0.83182300  0.00000000  1
  Er  Er15  1  0.66817700  0.25248100  0.50000000  1
  Er  Er16  1  0.33182300  0.74751900  0.50000000  1
  Er  Er17  1  0.24751900  0.16817700  0.00000000  1
  Er  Er18  1  0.08876200  0.14163500  0.50000000  1
  Er  Er19  1  0.35836500  0.58876200  0.00000000  1
  Er  Er20  1  0.64163500  0.41123800  0.00000000  1
  Er  Er21  1  0.91123800  0.85836500  0.50000000  1
  Er  Er22  1  0.25248100  0.33182300  0.50000000  1
  Er  Er23  1  0.16817700  0.75248100  0.00000000  1
  Er  Er24  1  0.83182300  0.24751900  0.00000000  1
  Er  Er25  1  0.74751900  0.66817700  0.50000000  1
  Zn  Zn26  1  0.45941100  0.25007300  0.50000000  1
  Zn  Zn27  1  0.24992700  0.95941100  0.00000000  1
  Zn  Zn28  1  0.75007300  0.04058900  0.00000000  1
  Zn  Zn29  1  0.54058900  0.74992700  0.50000000  1
  Zn  Zn30  1  0.95941100  0.75007300  0.00000000  1
  Zn  Zn31  1  0.74992700  0.45941100  0.50000000  1
  Zn  Zn32  1  0.25007300  0.54058900  0.50000000  1
  Zn  Zn33  1  0.04058900  0.24992700  0.00000000  1
  O  O34  1  0.35125300  0.24340300  0.74914700  1
  O  O35  1  0.25659700  0.85125300  0.24914700  1
  O  O36  1  0.74340300  0.14874700  0.24914700  1
  O  O37  1  0.64874700  0.75659700  0.74914700  1
  O  O38  1  0.64874700  0.75659700  0.25085300  1
  O  O39  1  0.74340300  0.14874700  0.75085300  1
  O  O40  1  0.25659700  0.85125300  0.75085300  1
  O  O41  1  0.35125300  0.24340300  0.25085300  1
  O  O42  1  0.17743950  0.04829950  0.74908050  1
  O  O43  1  0.45170050  0.67743950  0.24908050  1
  O  O44  1  0.54829950  0.32256050  0.24908050  1
  O  O45  1  0.82256050  0.95170050  0.74908050  1
  O  O46  1  0.82256050  0.95170050  0.25091950  1
  O  O47  1  0.54829950  0.32256050  0.75091950  1
  O  O48  1  0.45170050  0.67743950  0.75091950  1
  O  O49  1  0.17743950  0.04829950  0.25091950  1
  O  O50  1  0.37101700  0.03880600  0.00000000  1
  O  O51  1  0.00000000  0.00000000  0.50000000  1
  O  O52  1  0.62898300  0.96119400  0.00000000  1
  O  O53  1  0.53880600  0.12898300  0.50000000  1
  O  O54  1  0.46119400  0.87101700  0.50000000  1
  O  O55  1  0.85125300  0.74340300  0.24914700  1
  O  O56  1  0.75659700  0.35125300  0.74914700  1
  O  O57  1  0.24340300  0.64874700  0.74914700  1
  O  O58  1  0.14874700  0.25659700  0.24914700  1
  O  O59  1  0.14874700  0.25659700  0.75085300  1
  O  O60  1  0.24340300  0.64874700  0.25085300  1
  O  O61  1  0.75659700  0.35125300  0.25085300  1
  O  O62  1  0.85125300  0.74340300  0.75085300  1
  O  O63  1  0.67743950  0.54829950  0.24908050  1
  O  O64  1  0.95170050  0.17743950  0.74908050  1
  O  O65  1  0.04829950  0.82256050  0.74908050  1
  O  O66  1  0.32256050  0.45170050  0.24908050  1
  O  O67  1  0.32256050  0.45170050  0.75091950  1
  O  O68  1  0.04829950  0.82256050  0.25091950  1
  O  O69  1  0.95170050  0.17743950  0.25091950  1
  O  O70  1  0.67743950  0.54829950  0.75091950  1
  O  O71  1  0.87101700  0.53880600  0.50000000  1
  O  O72  1  0.50000000  0.50000000  0.00000000  1
  O  O73  1  0.12898300  0.46119400  0.50000000  1
  O  O74  1  0.03880600  0.62898300  0.00000000  1
  O  O75  1  0.96119400  0.37101700  0.00000000  1
