# generated using pymatgen
data_GaBr2
_symmetry_space_group_name_H-M   'P 1'
_cell_length_a   21.90755083
_cell_length_b   21.90755083
_cell_length_c   8.80661452
_cell_angle_alpha   90.00000000
_cell_angle_beta   90.00000000
_cell_angle_gamma   120.00000000
_symmetry_Int_Tables_number   1
_chemical_formula_structural   GaBr2
_chemical_formula_sum   'Ga36 Br72'
_cell_volume   3660.38927922
_cell_formula_units_Z   36
loop_
 _symmetry_equiv_pos_site_id
 _symmetry_equiv_pos_as_xyz
  1  'x, y, z'
loop_
 _atom_site_type_symbol
 _atom_site_label
 _atom_site_symmetry_multiplicity
 _atom_site_fract_x
 _atom_site_fract_y
 _atom_site_fract_z
 _atom_site_occupancy
  Ga  Ga0  1  0.87945933  0.34076267  0.73698167  1
  Ga  Ga1  1  0.81379233  0.01495867  0.38424667  1
  Ga  Ga2  1  0.99257067  0.20536333  0.40364833  1
  Ga  Ga3  1  0.65923733  0.12054067  0.23698167  1
  Ga  Ga4  1  0.12797000  0.45387400  0.07031500  1
  Ga  Ga5  1  0.14712567  0.46550033  0.55091333  1
  Ga  Ga6  1  0.86783300  0.34829200  0.21758000  1
  Ga  Ga7  1  0.54612600  0.87203000  0.57031500  1
  Ga  Ga8  1  0.79463667  0.00742933  0.90364833  1
  Ga  Ga9  1  0.65170800  0.13216700  0.71758000  1
  Ga  Ga10  1  0.53449967  0.85287433  0.05091333  1
  Ga  Ga11  1  0.98504133  0.18620767  0.88424667  1
  Ga  Ga12  1  0.54612600  0.67409600  0.07031500  1
  Ga  Ga13  1  0.48045900  0.34829200  0.71758000  1
  Ga  Ga14  1  0.65923733  0.53869667  0.73698167  1
  Ga  Ga15  1  0.32590400  0.45387400  0.57031500  1
  Ga  Ga16  1  0.79463667  0.78720733  0.40364833  1
  Ga  Ga17  1  0.81379233  0.79883367  0.88424667  1
  Ga  Ga18  1  0.53449967  0.68162533  0.55091333  1
  Ga  Ga19  1  0.21279267  0.20536333  0.90364833  1
  Ga  Ga20  1  0.46130333  0.34076267  0.23698167  1
  Ga  Ga21  1  0.31837467  0.46550033  0.05091333  1
  Ga  Ga22  1  0.20116633  0.18620767  0.38424667  1
  Ga  Ga23  1  0.65170800  0.51954100  0.21758000  1
  Ga  Ga24  1  0.21279267  0.00742933  0.40364833  1
  Ga  Ga25  1  0.14712567  0.68162533  0.05091333  1
  Ga  Ga26  1  0.32590400  0.87203000  0.07031500  1
  Ga  Ga27  1  0.99257067  0.78720733  0.90364833  1
  Ga  Ga28  1  0.46130333  0.12054067  0.73698167  1
  Ga  Ga29  1  0.48045900  0.13216700  0.21758000  1
  Ga  Ga30  1  0.20116633  0.01495867  0.88424667  1
  Ga  Ga31  1  0.87945933  0.53869667  0.23698167  1
  Ga  Ga32  1  0.12797000  0.67409600  0.57031500  1
  Ga  Ga33  1  0.98504133  0.79883367  0.38424667  1
  Ga  Ga34  1  0.86783300  0.51954100  0.71758000  1
  Ga  Ga35  1  0.31837467  0.85287433  0.55091333  1
  Br  Br36  1  0.92187467  0.04336633  0.49971833  1
  Br  Br37  1  0.45482500  0.74479200  0.16638500  1
  Br  Br38  1  0.15843633  0.38023367  0.40758067  1
  Br  Br39  1  0.82510300  0.11153600  0.24091400  1
  Br  Br40  1  0.95663367  0.07812533  0.99971833  1
  Br  Br41  1  0.74894033  0.19634867  0.55297667  1
  Br  Br42  1  0.72472267  0.98834733  0.56992933  1
  Br  Br43  1  0.11407500  0.52968200  0.38631000  1
  Br  Br44  1  0.05805600  0.40304200  0.73659600  1
  Br  Br45  1  0.61976633  0.84156367  0.90758067  1
  Br  Br46  1  0.62330033  0.21184167  0.83305167  1
  Br  Br47  1  0.47031800  0.88592500  0.88631000  1
  Br  Br48  1  0.59695800  0.94194400  0.23659600  1
  Br  Br49  1  0.88846400  0.17489700  0.74091400  1
  Br  Br50  1  0.55513067  0.04690033  0.57424733  1
  Br  Br51  1  0.01165267  0.27527733  0.06992933  1
  Br  Br52  1  0.08227367  0.21925833  0.71964333  1
  Br  Br53  1  0.25520800  0.54517500  0.66638500  1
  Br  Br54  1  0.93029133  0.32168067  0.40326267  1
  Br  Br55  1  0.67831933  0.06970867  0.90326267  1
  Br  Br56  1  0.78815833  0.37669967  0.33305167  1
  Br  Br57  1  0.95309967  0.44486933  0.07424733  1
  Br  Br58  1  0.78074167  0.91772633  0.21964333  1
  Br  Br59  1  0.80365133  0.25105967  0.05297667  1
  Br  Br60  1  0.58854133  0.37669967  0.83305167  1
  Br  Br61  1  0.12149167  0.07812533  0.49971833  1
  Br  Br62  1  0.82510300  0.71356700  0.74091400  1
  Br  Br63  1  0.49176967  0.44486933  0.57424733  1
  Br  Br64  1  0.62330033  0.41145867  0.33305167  1
  Br  Br65  1  0.41560700  0.52968200  0.88631000  1
  Br  Br66  1  0.39138933  0.32168067  0.90326267  1
  Br  Br67  1  0.78074167  0.86301533  0.71964333  1
  Br  Br68  1  0.72472267  0.73637533  0.06992933  1
  Br  Br69  1  0.28643300  0.17489700  0.24091400  1
  Br  Br70  1  0.28996700  0.54517500  0.16638500  1
  Br  Br71  1  0.13698467  0.21925833  0.21964333  1
  Br  Br72  1  0.26362467  0.27527733  0.56992933  1
  Br  Br73  1  0.55513067  0.50823033  0.07424733  1
  Br  Br74  1  0.22179733  0.38023367  0.90758067  1
  Br  Br75  1  0.67831933  0.60861067  0.40326267  1
  Br  Br76  1  0.74894033  0.55259167  0.05297667  1
  Br  Br77  1  0.92187467  0.87850833  0.99971833  1
  Br  Br78  1  0.59695800  0.65501400  0.73659600  1
  Br  Br79  1  0.34498600  0.40304200  0.23659600  1
  Br  Br80  1  0.45482500  0.71003300  0.66638500  1
  Br  Br81  1  0.61976633  0.77820267  0.40758067  1
  Br  Br82  1  0.44740833  0.25105967  0.55297667  1
  Br  Br83  1  0.47031800  0.58439300  0.38631000  1
  Br  Br84  1  0.25520800  0.71003300  0.16638500  1
  Br  Br85  1  0.78815833  0.41145867  0.83305167  1
  Br  Br86  1  0.49176967  0.04690033  0.07424733  1
  Br  Br87  1  0.15843633  0.77820267  0.90758067  1
  Br  Br88  1  0.28996700  0.74479200  0.66638500  1
  Br  Br89  1  0.08227367  0.86301533  0.21964333  1
  Br  Br90  1  0.05805600  0.65501400  0.23659600  1
  Br  Br91  1  0.44740833  0.19634867  0.05297667  1
  Br  Br92  1  0.39138933  0.06970867  0.40326267  1
  Br  Br93  1  0.95309967  0.50823033  0.57424733  1
  Br  Br94  1  0.95663367  0.87850833  0.49971833  1
  Br  Br95  1  0.80365133  0.55259167  0.55297667  1
  Br  Br96  1  0.93029133  0.60861067  0.90326267  1
  Br  Br97  1  0.22179733  0.84156367  0.40758067  1
  Br  Br98  1  0.88846400  0.71356700  0.24091400  1
  Br  Br99  1  0.34498600  0.94194400  0.73659600  1
  Br  Br100  1  0.41560700  0.88592500  0.38631000  1
  Br  Br101  1  0.58854133  0.21184167  0.33305167  1
  Br  Br102  1  0.26362467  0.98834733  0.06992933  1
  Br  Br103  1  0.01165267  0.73637533  0.56992933  1
  Br  Br104  1  0.12149167  0.04336633  0.99971833  1
  Br  Br105  1  0.28643300  0.11153600  0.74091400  1
  Br  Br106  1  0.11407500  0.58439300  0.88631000  1
  Br  Br107  1  0.13698467  0.91772633  0.71964333  1
