# generated using pymatgen
data_SiO2
_symmetry_space_group_name_H-M   'P 1'
_cell_length_a   14.10624000
_cell_length_b   14.10624000
_cell_length_c   10.02970400
_cell_angle_alpha   90.00000000
_cell_angle_beta   90.00000000
_cell_angle_gamma   90.00000000
_symmetry_Int_Tables_number   1
_chemical_formula_structural   SiO2
_chemical_formula_sum   'Si32 O64'
_cell_volume   1995.77074973
_cell_formula_units_Z   32
loop_
 _symmetry_equiv_pos_site_id
 _symmetry_equiv_pos_as_xyz
  1  'x, y, z'
loop_
 _atom_site_type_symbol
 _atom_site_label
 _atom_site_symmetry_multiplicity
 _atom_site_fract_x
 _atom_site_fract_y
 _atom_site_fract_z
 _atom_site_occupancy
  Si  Si0  1  0.61045200  0.76715400  0.65527700  1
  Si  Si1  1  0.73284600  0.11045200  0.15527700  1
  Si  Si2  1  0.26715400  0.88954800  0.15527700  1
  Si  Si3  1  0.61045200  0.23284600  0.34472300  1
  Si  Si4  1  0.38954800  0.76715400  0.34472300  1
  Si  Si5  1  0.38954800  0.23284600  0.65527700  1
  Si  Si6  1  0.26715400  0.11045200  0.84472300  1
  Si  Si7  1  0.73284600  0.88954800  0.84472300  1
  Si  Si8  1  0.38954800  0.23284600  0.34472300  1
  Si  Si9  1  0.26715400  0.88954800  0.84472300  1
  Si  Si10  1  0.73284600  0.11045200  0.84472300  1
  Si  Si11  1  0.38954800  0.76715400  0.65527700  1
  Si  Si12  1  0.61045200  0.23284600  0.65527700  1
  Si  Si13  1  0.61045200  0.76715400  0.34472300  1
  Si  Si14  1  0.73284600  0.88954800  0.15527700  1
  Si  Si15  1  0.26715400  0.11045200  0.15527700  1
  Si  Si16  1  0.11045200  0.26715400  0.15527700  1
  Si  Si17  1  0.23284600  0.61045200  0.65527700  1
  Si  Si18  1  0.76715400  0.38954800  0.65527700  1
  Si  Si19  1  0.11045200  0.73284600  0.84472300  1
  Si  Si20  1  0.88954800  0.26715400  0.84472300  1
  Si  Si21  1  0.88954800  0.73284600  0.15527700  1
  Si  Si22  1  0.76715400  0.61045200  0.34472300  1
  Si  Si23  1  0.23284600  0.38954800  0.34472300  1
  Si  Si24  1  0.88954800  0.73284600  0.84472300  1
  Si  Si25  1  0.76715400  0.38954800  0.34472300  1
  Si  Si26  1  0.23284600  0.61045200  0.34472300  1
  Si  Si27  1  0.88954800  0.26715400  0.15527700  1
  Si  Si28  1  0.11045200  0.73284600  0.15527700  1
  Si  Si29  1  0.11045200  0.26715400  0.84472300  1
  Si  Si30  1  0.23284600  0.38954800  0.65527700  1
  Si  Si31  1  0.76715400  0.61045200  0.65527700  1
  O  O32  1  0.67134900  0.67134900  0.68504700  1
  O  O33  1  0.82865100  0.17134900  0.18504700  1
  O  O34  1  0.67134900  0.32865100  0.68504700  1
  O  O35  1  0.67134900  0.32865100  0.31495300  1
  O  O36  1  0.82865100  0.17134900  0.81495300  1
  O  O37  1  0.82865100  0.82865100  0.18504700  1
  O  O38  1  0.67134900  0.67134900  0.31495300  1
  O  O39  1  0.82865100  0.82865100  0.81495300  1
  O  O40  1  0.62286850  0.79914250  0.50000000  1
  O  O41  1  0.70085750  0.12286850  0.00000000  1
  O  O42  1  0.29914250  0.87713150  0.00000000  1
  O  O43  1  0.62286850  0.20085750  0.50000000  1
  O  O44  1  0.37713150  0.79914250  0.50000000  1
  O  O45  1  0.37713150  0.20085750  0.50000000  1
  O  O46  1  0.29914250  0.12286850  0.00000000  1
  O  O47  1  0.70085750  0.87713150  0.00000000  1
  O  O48  1  0.50000000  0.74483800  0.68785800  1
  O  O49  1  0.75516200  0.00000000  0.18785800  1
  O  O50  1  0.24483800  0.00000000  0.18785800  1
  O  O51  1  0.50000000  0.25516200  0.31214200  1
  O  O52  1  0.50000000  0.74483800  0.31214200  1
  O  O53  1  0.50000000  0.25516200  0.68785800  1
  O  O54  1  0.24483800  0.00000000  0.81214200  1
  O  O55  1  0.75516200  0.00000000  0.81214200  1
  O  O56  1  0.64681500  0.85318500  0.75000000  1
  O  O57  1  0.64681500  0.14681500  0.25000000  1
  O  O58  1  0.35318500  0.85318500  0.25000000  1
  O  O59  1  0.35318500  0.14681500  0.75000000  1
  O  O60  1  0.35318500  0.14681500  0.25000000  1
  O  O61  1  0.35318500  0.85318500  0.75000000  1
  O  O62  1  0.64681500  0.14681500  0.75000000  1
  O  O63  1  0.64681500  0.85318500  0.25000000  1
  O  O64  1  0.17134900  0.17134900  0.18504700  1
  O  O65  1  0.32865100  0.67134900  0.68504700  1
  O  O66  1  0.17134900  0.82865100  0.18504700  1
  O  O67  1  0.17134900  0.82865100  0.81495300  1
  O  O68  1  0.32865100  0.67134900  0.31495300  1
  O  O69  1  0.32865100  0.32865100  0.68504700  1
  O  O70  1  0.17134900  0.17134900  0.81495300  1
  O  O71  1  0.32865100  0.32865100  0.31495300  1
  O  O72  1  0.12286850  0.29914250  0.00000000  1
  O  O73  1  0.20085750  0.62286850  0.50000000  1
  O  O74  1  0.79914250  0.37713150  0.50000000  1
  O  O75  1  0.12286850  0.70085750  0.00000000  1
  O  O76  1  0.87713150  0.29914250  0.00000000  1
  O  O77  1  0.87713150  0.70085750  0.00000000  1
  O  O78  1  0.79914250  0.62286850  0.50000000  1
  O  O79  1  0.20085750  0.37713150  0.50000000  1
  O  O80  1  0.00000000  0.24483800  0.18785800  1
  O  O81  1  0.25516200  0.50000000  0.68785800  1
  O  O82  1  0.74483800  0.50000000  0.68785800  1
  O  O83  1  0.00000000  0.75516200  0.81214200  1
  O  O84  1  0.00000000  0.24483800  0.81214200  1
  O  O85  1  0.00000000  0.75516200  0.18785800  1
  O  O86  1  0.74483800  0.50000000  0.31214200  1
  O  O87  1  0.25516200  0.50000000  0.31214200  1
  O  O88  1  0.14681500  0.35318500  0.25000000  1
  O  O89  1  0.14681500  0.64681500  0.75000000  1
  O  O90  1  0.85318500  0.35318500  0.75000000  1
  O  O91  1  0.85318500  0.64681500  0.25000000  1
  O  O92  1  0.85318500  0.64681500  0.75000000  1
  O  O93  1  0.85318500  0.35318500  0.25000000  1
  O  O94  1  0.14681500  0.64681500  0.25000000  1
  O  O95  1  0.14681500  0.35318500  0.75000000  1
