# generated using pymatgen
data_K2ZnCl4
_symmetry_space_group_name_H-M   'P 1'
_cell_length_a   7.39777300
_cell_length_b   9.04785500
_cell_length_c   12.68145600
_cell_angle_alpha   90.00000000
_cell_angle_beta   90.00000000
_cell_angle_gamma   90.00000000
_symmetry_Int_Tables_number   1
_chemical_formula_structural   K2ZnCl4
_chemical_formula_sum   'K8 Zn4 Cl16'
_cell_volume   848.82028964
_cell_formula_units_Z   4
loop_
 _symmetry_equiv_pos_site_id
 _symmetry_equiv_pos_as_xyz
  1  'x, y, z'
loop_
 _atom_site_type_symbol
 _atom_site_label
 _atom_site_symmetry_multiplicity
 _atom_site_fract_x
 _atom_site_fract_y
 _atom_site_fract_z
 _atom_site_occupancy
  K  K0  1  0.74908200  0.49523400  0.81388000  1
  K  K1  1  0.74447400  0.63242400  0.41647400  1
  K  K2  1  0.24908200  0.50476600  0.18612000  1
  K  K3  1  0.74447400  0.13242400  0.08352600  1
  K  K4  1  0.24447400  0.86757600  0.91647400  1
  K  K5  1  0.24447400  0.36757600  0.58352600  1
  K  K6  1  0.74908200  0.99523400  0.68612000  1
  K  K7  1  0.24908200  0.00476600  0.31388000  1
  Zn  Zn8  1  0.25399700  0.78200800  0.58293600  1
  Zn  Zn9  1  0.75399700  0.71799200  0.08293600  1
  Zn  Zn10  1  0.25399700  0.28200800  0.91706400  1
  Zn  Zn11  1  0.75399700  0.21799200  0.41706400  1
  Cl  Cl12  1  0.50251100  0.70435800  0.67524000  1
  Cl  Cl13  1  0.26473100  0.16130500  0.07653500  1
  Cl  Cl14  1  0.00251100  0.29564200  0.32476000  1
  Cl  Cl15  1  0.26473100  0.66130500  0.42346500  1
  Cl  Cl16  1  0.26860100  0.52940900  0.93828900  1
  Cl  Cl17  1  0.50251100  0.20435800  0.82476000  1
  Cl  Cl18  1  0.51060500  0.30105900  0.32483000  1
  Cl  Cl19  1  0.76473100  0.33869500  0.57653500  1
  Cl  Cl20  1  0.76860100  0.97059100  0.43828900  1
  Cl  Cl21  1  0.01060500  0.19894100  0.82483000  1
  Cl  Cl22  1  0.76473100  0.83869500  0.92346500  1
  Cl  Cl23  1  0.76860100  0.47059100  0.06171100  1
  Cl  Cl24  1  0.01060500  0.69894100  0.67517000  1
  Cl  Cl25  1  0.26860100  0.02940900  0.56171100  1
  Cl  Cl26  1  0.51060500  0.80105900  0.17517000  1
  Cl  Cl27  1  0.00251100  0.79564200  0.17524000  1
