# generated using pymatgen
data_Ba2PrRuO6
_symmetry_space_group_name_H-M   'P 1'
_cell_length_a   10.52720600
_cell_length_b   6.07426200
_cell_length_c   6.12725577
_cell_angle_alpha   90.00000000
_cell_angle_beta   125.25156646
_cell_angle_gamma   90.00000000
_symmetry_Int_Tables_number   1
_chemical_formula_structural   Ba2PrRuO6
_chemical_formula_sum   'Ba4 Pr2 Ru2 O12'
_cell_volume   319.96003476
_cell_formula_units_Z   2
loop_
 _symmetry_equiv_pos_site_id
 _symmetry_equiv_pos_as_xyz
  1  'x, y, z'
loop_
 _atom_site_type_symbol
 _atom_site_label
 _atom_site_symmetry_multiplicity
 _atom_site_fract_x
 _atom_site_fract_y
 _atom_site_fract_z
 _atom_site_occupancy
  Ba  Ba0  1  0.25176800  0.00000000  0.25485800  1
  Ba  Ba1  1  0.74823200  0.00000000  0.74514200  1
  Ba  Ba2  1  0.75176800  0.50000000  0.25485800  1
  Ba  Ba3  1  0.24823200  0.50000000  0.74514200  1
  Pr  Pr4  1  0.00000000  0.50000000  0.00000000  1
  Pr  Pr5  1  0.50000000  0.00000000  0.00000000  1
  Ru  Ru6  1  0.50000000  0.50000000  0.50000000  1
  Ru  Ru7  1  0.00000000  0.00000000  0.50000000  1
  O  O8  1  0.27152900  0.50000000  0.22244000  1
  O  O9  1  0.72847100  0.50000000  0.77756000  1
  O  O10  1  0.47399050  0.26931450  0.70157200  1
  O  O11  1  0.52600950  0.26931450  0.29842800  1
  O  O12  1  0.52600950  0.73068550  0.29842800  1
  O  O13  1  0.47399050  0.73068550  0.70157200  1
  O  O14  1  0.77152900  0.00000000  0.22244000  1
  O  O15  1  0.22847100  0.00000000  0.77756000  1
  O  O16  1  0.97399050  0.76931450  0.70157200  1
  O  O17  1  0.02600950  0.76931450  0.29842800  1
  O  O18  1  0.02600950  0.23068550  0.29842800  1
  O  O19  1  0.97399050  0.23068550  0.70157200  1
