# generated using pymatgen
data_Na2P2H2O7
_symmetry_space_group_name_H-M   'P 1'
_cell_length_a   6.93474800
_cell_length_b   12.42479400
_cell_length_c   27.78697000
_cell_angle_alpha   90.00000000
_cell_angle_beta   90.00000000
_cell_angle_gamma   90.00000000
_symmetry_Int_Tables_number   1
_chemical_formula_structural   Na2P2H2O7
_chemical_formula_sum   'Na32 P32 H32 O112'
_cell_volume   2394.20356502
_cell_formula_units_Z   16
loop_
 _symmetry_equiv_pos_site_id
 _symmetry_equiv_pos_as_xyz
  1  'x, y, z'
loop_
 _atom_site_type_symbol
 _atom_site_label
 _atom_site_symmetry_multiplicity
 _atom_site_fract_x
 _atom_site_fract_y
 _atom_site_fract_z
 _atom_site_occupancy
  Na  Na0  1  0.64967350  0.60919850  0.95057900  1
  Na  Na1  1  0.85032650  0.89080150  0.95057900  1
  Na  Na2  1  0.85032650  0.60919850  0.54942100  1
  Na  Na3  1  0.64967350  0.89080150  0.54942100  1
  Na  Na4  1  0.10032650  0.64080150  0.79942100  1
  Na  Na5  1  0.39967350  0.85919850  0.79942100  1
  Na  Na6  1  0.39967350  0.64080150  0.70057900  1
  Na  Na7  1  0.10032650  0.85919850  0.70057900  1
  Na  Na8  1  0.64967350  0.10919850  0.45057900  1
  Na  Na9  1  0.85032650  0.39080150  0.45057900  1
  Na  Na10  1  0.85032650  0.10919850  0.04942100  1
  Na  Na11  1  0.64967350  0.39080150  0.04942100  1
  Na  Na12  1  0.10032650  0.14080150  0.29942100  1
  Na  Na13  1  0.39967350  0.35919850  0.29942100  1
  Na  Na14  1  0.39967350  0.14080150  0.20057900  1
  Na  Na15  1  0.10032650  0.35919850  0.20057900  1
  Na  Na16  1  0.14967350  0.60919850  0.45057900  1
  Na  Na17  1  0.35032650  0.89080150  0.45057900  1
  Na  Na18  1  0.35032650  0.60919850  0.04942100  1
  Na  Na19  1  0.14967350  0.89080150  0.04942100  1
  Na  Na20  1  0.60032650  0.64080150  0.29942100  1
  Na  Na21  1  0.89967350  0.85919850  0.29942100  1
  Na  Na22  1  0.89967350  0.64080150  0.20057900  1
  Na  Na23  1  0.60032650  0.85919850  0.20057900  1
  Na  Na24  1  0.14967350  0.10919850  0.95057900  1
  Na  Na25  1  0.35032650  0.39080150  0.95057900  1
  Na  Na26  1  0.35032650  0.10919850  0.54942100  1
  Na  Na27  1  0.14967350  0.39080150  0.54942100  1
  Na  Na28  1  0.60032650  0.14080150  0.79942100  1
  Na  Na29  1  0.89967350  0.35919850  0.79942100  1
  Na  Na30  1  0.89967350  0.14080150  0.70057900  1
  Na  Na31  1  0.60032650  0.35919850  0.70057900  1
  P  P32  1  0.15929450  0.64233300  0.92860550  1
  P  P33  1  0.34070550  0.85766700  0.92860550  1
  P  P34  1  0.34070550  0.64233300  0.57139450  1
  P  P35  1  0.15929450  0.85766700  0.57139450  1
  P  P36  1  0.59070550  0.60766700  0.82139450  1
  P  P37  1  0.90929450  0.89233300  0.82139450  1
  P  P38  1  0.90929450  0.60766700  0.67860550  1
  P  P39  1  0.59070550  0.89233300  0.67860550  1
  P  P40  1  0.15929450  0.14233300  0.42860550  1
  P  P41  1  0.34070550  0.35766700  0.42860550  1
  P  P42  1  0.34070550  0.14233300  0.07139450  1
  P  P43  1  0.15929450  0.35766700  0.07139450  1
  P  P44  1  0.59070550  0.10766700  0.32139450  1
  P  P45  1  0.90929450  0.39233300  0.32139450  1
  P  P46  1  0.90929450  0.10766700  0.17860550  1
  P  P47  1  0.59070550  0.39233300  0.17860550  1
  P  P48  1  0.65929450  0.64233300  0.42860550  1
  P  P49  1  0.84070550  0.85766700  0.42860550  1
  P  P50  1  0.84070550  0.64233300  0.07139450  1
  P  P51  1  0.65929450  0.85766700  0.07139450  1
  P  P52  1  0.09070550  0.60766700  0.32139450  1
  P  P53  1  0.40929450  0.89233300  0.32139450  1
  P  P54  1  0.40929450  0.60766700  0.17860550  1
  P  P55  1  0.09070550  0.89233300  0.17860550  1
  P  P56  1  0.65929450  0.14233300  0.92860550  1
  P  P57  1  0.84070550  0.35766700  0.92860550  1
  P  P58  1  0.84070550  0.14233300  0.57139450  1
  P  P59  1  0.65929450  0.35766700  0.57139450  1
  P  P60  1  0.09070550  0.10766700  0.82139450  1
  P  P61  1  0.40929450  0.39233300  0.82139450  1
  P  P62  1  0.40929450  0.10766700  0.67860550  1
  P  P63  1  0.09070550  0.39233300  0.67860550  1
  H  H64  1  0.50000000  0.00000000  0.88549100  1
  H  H65  1  0.00000000  0.00000000  0.61450900  1
  H  H66  1  0.75000000  0.75000000  0.86450900  1
  H  H67  1  0.75000000  0.75000000  0.63549100  1
  H  H68  1  0.00000000  0.67632200  0.00000000  1
  H  H69  1  0.50000000  0.82367800  0.00000000  1
  H  H70  1  0.75000000  0.57367800  0.75000000  1
  H  H71  1  0.75000000  0.92632200  0.75000000  1
  H  H72  1  0.50000000  0.50000000  0.38549100  1
  H  H73  1  0.00000000  0.50000000  0.11450900  1
  H  H74  1  0.75000000  0.25000000  0.36450900  1
  H  H75  1  0.75000000  0.25000000  0.13549100  1
  H  H76  1  0.00000000  0.17632200  0.50000000  1
  H  H77  1  0.50000000  0.32367800  0.50000000  1
  H  H78  1  0.75000000  0.07367800  0.25000000  1
  H  H79  1  0.75000000  0.42632200  0.25000000  1
  H  H80  1  0.00000000  0.00000000  0.38549100  1
  H  H81  1  0.50000000  0.00000000  0.11450900  1
  H  H82  1  0.25000000  0.75000000  0.36450900  1
  H  H83  1  0.25000000  0.75000000  0.13549100  1
  H  H84  1  0.50000000  0.67632200  0.50000000  1
  H  H85  1  0.00000000  0.82367800  0.50000000  1
  H  H86  1  0.25000000  0.57367800  0.25000000  1
  H  H87  1  0.25000000  0.92632200  0.25000000  1
  H  H88  1  0.00000000  0.50000000  0.88549100  1
  H  H89  1  0.50000000  0.50000000  0.61450900  1
  H  H90  1  0.25000000  0.25000000  0.86450900  1
  H  H91  1  0.25000000  0.25000000  0.63549100  1
  H  H92  1  0.50000000  0.17632200  0.00000000  1
  H  H93  1  0.00000000  0.32367800  0.00000000  1
  H  H94  1  0.25000000  0.07367800  0.75000000  1
  H  H95  1  0.25000000  0.42632200  0.75000000  1
  O  O96  1  0.09980550  0.57953750  0.88320400  1
  O  O97  1  0.40019450  0.92046250  0.88320400  1
  O  O98  1  0.40019450  0.57953750  0.61679600  1
  O  O99  1  0.09980550  0.92046250  0.61679600  1
  O  O100  1  0.65019450  0.67046250  0.86679600  1
  O  O101  1  0.84980550  0.82953750  0.86679600  1
  O  O102  1  0.84980550  0.67046250  0.63320400  1
  O  O103  1  0.65019450  0.82953750  0.63320400  1
  O  O104  1  0.97658550  0.67778000  0.95727150  1
  O  O105  1  0.52341450  0.82222000  0.95727150  1
  O  O106  1  0.52341450  0.67778000  0.54272850  1
  O  O107  1  0.97658550  0.82222000  0.54272850  1
  O  O108  1  0.77341450  0.57222000  0.79272850  1
  O  O109  1  0.72658550  0.92778000  0.79272850  1
  O  O110  1  0.72658550  0.57222000  0.70727150  1
  O  O111  1  0.77341450  0.92778000  0.70727150  1
  O  O112  1  0.30764050  0.58825800  0.96025150  1
  O  O113  1  0.19235950  0.91174200  0.96025150  1
  O  O114  1  0.19235950  0.58825800  0.53974850  1
  O  O115  1  0.30764050  0.91174200  0.53974850  1
  O  O116  1  0.44235950  0.66174200  0.78974850  1
  O  O117  1  0.05764050  0.83825800  0.78974850  1
  O  O118  1  0.05764050  0.66174200  0.71025150  1
  O  O119  1  0.44235950  0.83825800  0.71025150  1
  O  O120  1  0.25000000  0.75000000  0.90422200  1
  O  O121  1  0.25000000  0.75000000  0.59577800  1
  O  O122  1  0.00000000  0.00000000  0.84577800  1
  O  O123  1  0.50000000  0.00000000  0.65422200  1
  O  O124  1  0.09980550  0.07953750  0.38320400  1
  O  O125  1  0.40019450  0.42046250  0.38320400  1
  O  O126  1  0.40019450  0.07953750  0.11679600  1
  O  O127  1  0.09980550  0.42046250  0.11679600  1
  O  O128  1  0.65019450  0.17046250  0.36679600  1
  O  O129  1  0.84980550  0.32953750  0.36679600  1
  O  O130  1  0.84980550  0.17046250  0.13320400  1
  O  O131  1  0.65019450  0.32953750  0.13320400  1
  O  O132  1  0.97658550  0.17778000  0.45727150  1
  O  O133  1  0.52341450  0.32222000  0.45727150  1
  O  O134  1  0.52341450  0.17778000  0.04272850  1
  O  O135  1  0.97658550  0.32222000  0.04272850  1
  O  O136  1  0.77341450  0.07222000  0.29272850  1
  O  O137  1  0.72658550  0.42778000  0.29272850  1
  O  O138  1  0.72658550  0.07222000  0.20727150  1
  O  O139  1  0.77341450  0.42778000  0.20727150  1
  O  O140  1  0.30764050  0.08825800  0.46025150  1
  O  O141  1  0.19235950  0.41174200  0.46025150  1
  O  O142  1  0.19235950  0.08825800  0.03974850  1
  O  O143  1  0.30764050  0.41174200  0.03974850  1
  O  O144  1  0.44235950  0.16174200  0.28974850  1
  O  O145  1  0.05764050  0.33825800  0.28974850  1
  O  O146  1  0.05764050  0.16174200  0.21025150  1
  O  O147  1  0.44235950  0.33825800  0.21025150  1
  O  O148  1  0.25000000  0.25000000  0.40422200  1
  O  O149  1  0.25000000  0.25000000  0.09577800  1
  O  O150  1  0.00000000  0.50000000  0.34577800  1
  O  O151  1  0.50000000  0.50000000  0.15422200  1
  O  O152  1  0.59980550  0.57953750  0.38320400  1
  O  O153  1  0.90019450  0.92046250  0.38320400  1
  O  O154  1  0.90019450  0.57953750  0.11679600  1
  O  O155  1  0.59980550  0.92046250  0.11679600  1
  O  O156  1  0.15019450  0.67046250  0.36679600  1
  O  O157  1  0.34980550  0.82953750  0.36679600  1
  O  O158  1  0.34980550  0.67046250  0.13320400  1
  O  O159  1  0.15019450  0.82953750  0.13320400  1
  O  O160  1  0.47658550  0.67778000  0.45727150  1
  O  O161  1  0.02341450  0.82222000  0.45727150  1
  O  O162  1  0.02341450  0.67778000  0.04272850  1
  O  O163  1  0.47658550  0.82222000  0.04272850  1
  O  O164  1  0.27341450  0.57222000  0.29272850  1
  O  O165  1  0.22658550  0.92778000  0.29272850  1
  O  O166  1  0.22658550  0.57222000  0.20727150  1
  O  O167  1  0.27341450  0.92778000  0.20727150  1
  O  O168  1  0.80764050  0.58825800  0.46025150  1
  O  O169  1  0.69235950  0.91174200  0.46025150  1
  O  O170  1  0.69235950  0.58825800  0.03974850  1
  O  O171  1  0.80764050  0.91174200  0.03974850  1
  O  O172  1  0.94235950  0.66174200  0.28974850  1
  O  O173  1  0.55764050  0.83825800  0.28974850  1
  O  O174  1  0.55764050  0.66174200  0.21025150  1
  O  O175  1  0.94235950  0.83825800  0.21025150  1
  O  O176  1  0.75000000  0.75000000  0.40422200  1
  O  O177  1  0.75000000  0.75000000  0.09577800  1
  O  O178  1  0.50000000  0.00000000  0.34577800  1
  O  O179  1  0.00000000  0.00000000  0.15422200  1
  O  O180  1  0.59980550  0.07953750  0.88320400  1
  O  O181  1  0.90019450  0.42046250  0.88320400  1
  O  O182  1  0.90019450  0.07953750  0.61679600  1
  O  O183  1  0.59980550  0.42046250  0.61679600  1
  O  O184  1  0.15019450  0.17046250  0.86679600  1
  O  O185  1  0.34980550  0.32953750  0.86679600  1
  O  O186  1  0.34980550  0.17046250  0.63320400  1
  O  O187  1  0.15019450  0.32953750  0.63320400  1
  O  O188  1  0.47658550  0.17778000  0.95727150  1
  O  O189  1  0.02341450  0.32222000  0.95727150  1
  O  O190  1  0.02341450  0.17778000  0.54272850  1
  O  O191  1  0.47658550  0.32222000  0.54272850  1
  O  O192  1  0.27341450  0.07222000  0.79272850  1
  O  O193  1  0.22658550  0.42778000  0.79272850  1
  O  O194  1  0.22658550  0.07222000  0.70727150  1
  O  O195  1  0.27341450  0.42778000  0.70727150  1
  O  O196  1  0.80764050  0.08825800  0.96025150  1
  O  O197  1  0.69235950  0.41174200  0.96025150  1
  O  O198  1  0.69235950  0.08825800  0.53974850  1
  O  O199  1  0.80764050  0.41174200  0.53974850  1
  O  O200  1  0.94235950  0.16174200  0.78974850  1
  O  O201  1  0.55764050  0.33825800  0.78974850  1
  O  O202  1  0.55764050  0.16174200  0.71025150  1
  O  O203  1  0.94235950  0.33825800  0.71025150  1
  O  O204  1  0.75000000  0.25000000  0.90422200  1
  O  O205  1  0.75000000  0.25000000  0.59577800  1
  O  O206  1  0.50000000  0.50000000  0.84577800  1
  O  O207  1  0.00000000  0.50000000  0.65422200  1
