# generated using pymatgen
data_Sb8(Pb3S7)3
_symmetry_space_group_name_H-M   'P 1'
_cell_length_a   13.88719200
_cell_length_b   12.06677000
_cell_length_c   25.31881551
_cell_angle_alpha   90.00000000
_cell_angle_beta   104.94223513
_cell_angle_gamma   90.00000000
_symmetry_Int_Tables_number   1
_chemical_formula_structural   Sb8(Pb3S7)3
_chemical_formula_sum   'Sb32 Pb36 S84'
_cell_volume   4099.30018527
_cell_formula_units_Z   4
loop_
 _symmetry_equiv_pos_site_id
 _symmetry_equiv_pos_as_xyz
  1  'x, y, z'
loop_
 _atom_site_type_symbol
 _atom_site_label
 _atom_site_symmetry_multiplicity
 _atom_site_fract_x
 _atom_site_fract_y
 _atom_site_fract_z
 _atom_site_occupancy
  Sb  Sb0  1  0.48048250  0.94179650  0.42345100  1
  Sb  Sb1  1  0.77945800  0.67686400  0.62220200  1
  Sb  Sb2  1  0.50994200  0.66546800  0.97675200  1
  Sb  Sb3  1  0.45159600  0.74040600  0.81561400  1
  Sb  Sb4  1  0.51951750  0.94179650  0.07654900  1
  Sb  Sb5  1  0.72054200  0.82313600  0.37779800  1
  Sb  Sb6  1  0.45159600  0.25959400  0.31561400  1
  Sb  Sb7  1  0.99005800  0.83453200  0.02324800  1
  Sb  Sb8  1  0.04840400  0.24040600  0.68438600  1
  Sb  Sb9  1  0.22054200  0.67686400  0.87779800  1
  Sb  Sb10  1  0.99005800  0.16546800  0.52324800  1
  Sb  Sb11  1  0.50994200  0.33453200  0.47675200  1
  Sb  Sb12  1  0.04840400  0.75959400  0.18438600  1
  Sb  Sb13  1  0.01951750  0.55820350  0.57654900  1
  Sb  Sb14  1  0.98048250  0.55820350  0.92345100  1
  Sb  Sb15  1  0.27945800  0.82313600  0.12220200  1
  Sb  Sb16  1  0.98048250  0.44179650  0.42345100  1
  Sb  Sb17  1  0.27945800  0.17686400  0.62220200  1
  Sb  Sb18  1  0.00994200  0.16546800  0.97675200  1
  Sb  Sb19  1  0.95159600  0.24040600  0.81561400  1
  Sb  Sb20  1  0.01951750  0.44179650  0.07654900  1
  Sb  Sb21  1  0.22054200  0.32313600  0.37779800  1
  Sb  Sb22  1  0.95159600  0.75959400  0.31561400  1
  Sb  Sb23  1  0.49005800  0.33453200  0.02324800  1
  Sb  Sb24  1  0.54840400  0.74040600  0.68438600  1
  Sb  Sb25  1  0.72054200  0.17686400  0.87779800  1
  Sb  Sb26  1  0.49005800  0.66546800  0.52324800  1
  Sb  Sb27  1  0.00994200  0.83453200  0.47675200  1
  Sb  Sb28  1  0.54840400  0.25959400  0.18438600  1
  Sb  Sb29  1  0.51951750  0.05820350  0.57654900  1
  Sb  Sb30  1  0.48048250  0.05820350  0.92345100  1
  Sb  Sb31  1  0.77945800  0.32313600  0.12220200  1
  Pb  Pb32  1  0.27165400  0.48533700  0.69162700  1
  Pb  Pb33  1  0.52032450  0.61351750  0.13952500  1
  Pb  Pb34  1  0.23351900  0.72979200  0.40933100  1
  Pb  Pb35  1  0.02032450  0.88648250  0.63952500  1
  Pb  Pb36  1  0.50000000  0.95855000  0.25000000  1
  Pb  Pb37  1  0.00000000  0.54145000  0.75000000  1
  Pb  Pb38  1  0.25109450  0.44791550  0.51890800  1
  Pb  Pb39  1  0.24890550  0.94791550  0.98109200  1
  Pb  Pb40  1  0.27165400  0.51466300  0.19162700  1
  Pb  Pb41  1  0.23351900  0.27020800  0.90933100  1
  Pb  Pb42  1  0.47967550  0.61351750  0.36047500  1
  Pb  Pb43  1  0.26648100  0.77020800  0.59066900  1
  Pb  Pb44  1  0.24890550  0.05208450  0.48109200  1
  Pb  Pb45  1  0.26648100  0.22979200  0.09066900  1
  Pb  Pb46  1  0.25109450  0.55208450  0.01890800  1
  Pb  Pb47  1  0.97967550  0.88648250  0.86047500  1
  Pb  Pb48  1  0.22834600  0.01466300  0.30837300  1
  Pb  Pb49  1  0.22834600  0.98533700  0.80837300  1
  Pb  Pb50  1  0.77165400  0.98533700  0.69162700  1
  Pb  Pb51  1  0.02032450  0.11351750  0.13952500  1
  Pb  Pb52  1  0.73351900  0.22979200  0.40933100  1
  Pb  Pb53  1  0.52032450  0.38648250  0.63952500  1
  Pb  Pb54  1  0.00000000  0.45855000  0.25000000  1
  Pb  Pb55  1  0.50000000  0.04145000  0.75000000  1
  Pb  Pb56  1  0.75109450  0.94791550  0.51890800  1
  Pb  Pb57  1  0.74890550  0.44791550  0.98109200  1
  Pb  Pb58  1  0.77165400  0.01466300  0.19162700  1
  Pb  Pb59  1  0.73351900  0.77020800  0.90933100  1
  Pb  Pb60  1  0.97967550  0.11351750  0.36047500  1
  Pb  Pb61  1  0.76648100  0.27020800  0.59066900  1
  Pb  Pb62  1  0.74890550  0.55208450  0.48109200  1
  Pb  Pb63  1  0.76648100  0.72979200  0.09066900  1
  Pb  Pb64  1  0.75109450  0.05208450  0.01890800  1
  Pb  Pb65  1  0.47967550  0.38648250  0.86047500  1
  Pb  Pb66  1  0.72834600  0.51466300  0.30837300  1
  Pb  Pb67  1  0.72834600  0.48533700  0.80837300  1
  S  S68  1  0.09502350  0.77714950  0.95545000  1
  S  S69  1  0.35721000  0.13168000  0.24598900  1
  S  S70  1  0.13281550  0.61343850  0.09880300  1
  S  S71  1  0.12856200  0.06058300  0.89835500  1
  S  S72  1  0.86635800  0.67239900  0.00079400  1
  S  S73  1  0.88993500  0.50572000  0.63121100  1
  S  S74  1  0.61232800  0.71846100  0.30387300  1
  S  S75  1  0.86635800  0.32760100  0.50079400  1
  S  S76  1  0.61716500  0.45158800  0.54754700  1
  S  S77  1  0.32214400  0.59688600  0.81688900  1
  S  S78  1  0.61006500  0.99428000  0.36878900  1
  S  S79  1  0.00000000  0.89451500  0.25000000  1
  S  S80  1  0.12856200  0.93941700  0.39835500  1
  S  S81  1  0.62384650  0.83391950  0.15146500  1
  S  S82  1  0.38283500  0.45158800  0.95245300  1
  S  S83  1  0.14279000  0.36832000  0.75401100  1
  S  S84  1  0.63364200  0.82760100  0.99920600  1
  S  S85  1  0.35721000  0.86832000  0.74598900  1
  S  S86  1  0.87615350  0.66608050  0.84853500  1
  S  S87  1  0.12384650  0.66608050  0.65146500  1
  S  S88  1  0.36718450  0.11343850  0.40119700  1
  S  S89  1  0.37143800  0.43941700  0.10164500  1
  S  S90  1  0.37615350  0.83391950  0.34853500  1
  S  S91  1  0.13281550  0.38656150  0.59880300  1
  S  S92  1  0.63364200  0.17239900  0.49920600  1
  S  S93  1  0.36718450  0.88656150  0.90119700  1
  S  S94  1  0.38767200  0.71846100  0.19612700  1
  S  S95  1  0.38993500  0.99428000  0.13121100  1
  S  S96  1  0.11006500  0.50572000  0.86878900  1
  S  S97  1  0.17785600  0.90311400  0.18311100  1
  S  S98  1  0.90497650  0.77714950  0.54455000  1
  S  S99  1  0.14279000  0.63168000  0.25401100  1
  S  S100  1  0.37143800  0.56058300  0.60164500  1
  S  S101  1  0.11716500  0.04841200  0.04754700  1
  S  S102  1  0.11232800  0.78153900  0.80387300  1
  S  S103  1  0.40497650  0.72285050  0.04455000  1
  S  S104  1  0.88283500  0.04841200  0.45245300  1
  S  S105  1  0.50000000  0.60548500  0.75000000  1
  S  S106  1  0.67785600  0.59688600  0.68311100  1
  S  S107  1  0.88767200  0.78153900  0.69612700  1
  S  S108  1  0.82214400  0.90311400  0.31688900  1
  S  S109  1  0.59502350  0.72285050  0.45545000  1
  S  S110  1  0.59502350  0.27714950  0.95545000  1
  S  S111  1  0.85721000  0.63168000  0.24598900  1
  S  S112  1  0.63281550  0.11343850  0.09880300  1
  S  S113  1  0.62856200  0.56058300  0.89835500  1
  S  S114  1  0.36635800  0.17239900  0.00079400  1
  S  S115  1  0.38993500  0.00572000  0.63121100  1
  S  S116  1  0.11232800  0.21846100  0.30387300  1
  S  S117  1  0.36635800  0.82760100  0.50079400  1
  S  S118  1  0.11716500  0.95158800  0.54754700  1
  S  S119  1  0.82214400  0.09688600  0.81688900  1
  S  S120  1  0.11006500  0.49428000  0.36878900  1
  S  S121  1  0.50000000  0.39451500  0.25000000  1
  S  S122  1  0.62856200  0.43941700  0.39835500  1
  S  S123  1  0.12384650  0.33391950  0.15146500  1
  S  S124  1  0.88283500  0.95158800  0.95245300  1
  S  S125  1  0.64279000  0.86832000  0.75401100  1
  S  S126  1  0.13364200  0.32760100  0.99920600  1
  S  S127  1  0.85721000  0.36832000  0.74598900  1
  S  S128  1  0.37615350  0.16608050  0.84853500  1
  S  S129  1  0.62384650  0.16608050  0.65146500  1
  S  S130  1  0.86718450  0.61343850  0.40119700  1
  S  S131  1  0.87143800  0.93941700  0.10164500  1
  S  S132  1  0.87615350  0.33391950  0.34853500  1
  S  S133  1  0.63281550  0.88656150  0.59880300  1
  S  S134  1  0.13364200  0.67239900  0.49920600  1
  S  S135  1  0.86718450  0.38656150  0.90119700  1
  S  S136  1  0.88767200  0.21846100  0.19612700  1
  S  S137  1  0.88993500  0.49428000  0.13121100  1
  S  S138  1  0.61006500  0.00572000  0.86878900  1
  S  S139  1  0.67785600  0.40311400  0.18311100  1
  S  S140  1  0.40497650  0.27714950  0.54455000  1
  S  S141  1  0.64279000  0.13168000  0.25401100  1
  S  S142  1  0.87143800  0.06058300  0.60164500  1
  S  S143  1  0.61716500  0.54841200  0.04754700  1
  S  S144  1  0.61232800  0.28153900  0.80387300  1
  S  S145  1  0.90497650  0.22285050  0.04455000  1
  S  S146  1  0.38283500  0.54841200  0.45245300  1
  S  S147  1  0.00000000  0.10548500  0.75000000  1
  S  S148  1  0.17785600  0.09688600  0.68311100  1
  S  S149  1  0.38767200  0.28153900  0.69612700  1
  S  S150  1  0.32214400  0.40311400  0.31688900  1
  S  S151  1  0.09502350  0.22285050  0.45545000  1
