# generated using pymatgen
data_NaLi2La3Ti6O18
_symmetry_space_group_name_H-M   'P 1'
_cell_length_a   9.61366800
_cell_length_b   16.54254000
_cell_length_c   5.55830841
_cell_angle_alpha   90.00000000
_cell_angle_beta   125.27281268
_cell_angle_gamma   90.00000000
_symmetry_Int_Tables_number   1
_chemical_formula_structural   NaLi2La3Ti6O18
_chemical_formula_sum   'Na2 Li4 La6 Ti12 O36'
_cell_volume   721.67751144
_cell_formula_units_Z   2
loop_
 _symmetry_equiv_pos_site_id
 _symmetry_equiv_pos_as_xyz
  1  'x, y, z'
loop_
 _atom_site_type_symbol
 _atom_site_label
 _atom_site_symmetry_multiplicity
 _atom_site_fract_x
 _atom_site_fract_y
 _atom_site_fract_z
 _atom_site_occupancy
  Na  Na0  1  0.50000000  0.24978400  0.00000000  1
  Na  Na1  1  0.00000000  0.74978400  0.00000000  1
  Li  Li2  1  0.00044050  0.16660050  0.24710600  1
  Li  Li3  1  0.99955950  0.16660050  0.75289400  1
  Li  Li4  1  0.50044050  0.66660050  0.24710600  1
  Li  Li5  1  0.49955950  0.66660050  0.75289400  1
  La  La6  1  0.00000000  0.41316900  0.00000000  1
  La  La7  1  0.50000000  0.42008000  0.50000000  1
  La  La8  1  0.50000000  0.08279400  0.50000000  1
  La  La9  1  0.50000000  0.91316900  0.00000000  1
  La  La10  1  0.00000000  0.92008000  0.50000000  1
  La  La11  1  0.00000000  0.58279400  0.50000000  1
  Ti  Ti12  1  0.25446900  0.24908700  0.25709100  1
  Ti  Ti13  1  0.74761700  0.41320200  0.24922300  1
  Ti  Ti14  1  0.74752850  0.08655050  0.24357700  1
  Ti  Ti15  1  0.74553100  0.24908700  0.74290900  1
  Ti  Ti16  1  0.25238300  0.41320200  0.75077700  1
  Ti  Ti17  1  0.25247150  0.08655050  0.75642300  1
  Ti  Ti18  1  0.75446900  0.74908700  0.25709100  1
  Ti  Ti19  1  0.24761700  0.91320200  0.24922300  1
  Ti  Ti20  1  0.24752850  0.58655050  0.24357700  1
  Ti  Ti21  1  0.24553100  0.74908700  0.74290900  1
  Ti  Ti22  1  0.75238300  0.91320200  0.75077700  1
  Ti  Ti23  1  0.75247150  0.58655050  0.75642300  1
  O  O24  1  0.73300600  0.34394200  0.95203400  1
  O  O25  1  0.00000000  0.25557300  0.00000000  1
  O  O26  1  0.26699400  0.34394200  0.04796600  1
  O  O27  1  0.72263300  0.00265500  0.96625300  1
  O  O28  1  0.73120300  0.33365200  0.48203200  1
  O  O29  1  0.50000000  0.42398600  0.00000000  1
  O  O30  1  0.00000000  0.41294100  0.50000000  1
  O  O31  1  0.27736700  0.00265500  0.03374700  1
  O  O32  1  0.26879700  0.33365200  0.51796800  1
  O  O33  1  0.24630500  0.16958900  0.98725200  1
  O  O34  1  0.22705050  0.49239150  0.45273600  1
  O  O35  1  0.50000000  0.09005900  0.00000000  1
  O  O36  1  0.00000000  0.07735800  0.50000000  1
  O  O37  1  0.75369500  0.16958900  0.01274800  1
  O  O38  1  0.77294950  0.49239150  0.54726400  1
  O  O39  1  0.24736550  0.15957950  0.47669900  1
  O  O40  1  0.50000000  0.23975900  0.50000000  1
  O  O41  1  0.75263450  0.15957950  0.52330100  1
  O  O42  1  0.23300600  0.84394200  0.95203400  1
  O  O43  1  0.50000000  0.75557300  0.00000000  1
  O  O44  1  0.76699400  0.84394200  0.04796600  1
  O  O45  1  0.22263300  0.50265500  0.96625300  1
  O  O46  1  0.23120300  0.83365200  0.48203200  1
  O  O47  1  0.00000000  0.92398600  0.00000000  1
  O  O48  1  0.50000000  0.91294100  0.50000000  1
  O  O49  1  0.77736700  0.50265500  0.03374700  1
  O  O50  1  0.76879700  0.83365200  0.51796800  1
  O  O51  1  0.74630500  0.66958900  0.98725200  1
  O  O52  1  0.72705050  0.99239150  0.45273600  1
  O  O53  1  0.00000000  0.59005900  0.00000000  1
  O  O54  1  0.50000000  0.57735800  0.50000000  1
  O  O55  1  0.25369500  0.66958900  0.01274800  1
  O  O56  1  0.27294950  0.99239150  0.54726400  1
  O  O57  1  0.74736550  0.65957950  0.47669900  1
  O  O58  1  0.00000000  0.73975900  0.50000000  1
  O  O59  1  0.25263450  0.65957950  0.52330100  1
