# generated using pymatgen
data_LuNbO4
_symmetry_space_group_name_H-M   'P 1'
_cell_length_a   7.03145000
_cell_length_b   10.90863400
_cell_length_c   5.08773277
_cell_angle_alpha   90.00000000
_cell_angle_beta   131.82811809
_cell_angle_gamma   90.00000000
_symmetry_Int_Tables_number   1
_chemical_formula_structural   LuNbO4
_chemical_formula_sum   'Lu4 Nb4 O16'
_cell_volume   290.79207463
_cell_formula_units_Z   4
loop_
 _symmetry_equiv_pos_site_id
 _symmetry_equiv_pos_as_xyz
  1  'x, y, z'
loop_
 _atom_site_type_symbol
 _atom_site_label
 _atom_site_symmetry_multiplicity
 _atom_site_fract_x
 _atom_site_fract_y
 _atom_site_fract_z
 _atom_site_occupancy
  Lu  Lu0  1  0.50000000  0.37129400  0.25000000  1
  Lu  Lu1  1  0.00000000  0.12870600  0.75000000  1
  Lu  Lu2  1  0.00000000  0.87129400  0.25000000  1
  Lu  Lu3  1  0.50000000  0.62870600  0.75000000  1
  Nb  Nb4  1  0.00000000  0.39273600  0.25000000  1
  Nb  Nb5  1  0.50000000  0.10726400  0.75000000  1
  Nb  Nb6  1  0.50000000  0.89273600  0.25000000  1
  Nb  Nb7  1  0.00000000  0.60726400  0.75000000  1
  O  O8  1  0.25186250  0.46865650  0.71481300  1
  O  O9  1  0.74813750  0.46865650  0.78518700  1
  O  O10  1  0.24813750  0.03134350  0.28518700  1
  O  O11  1  0.75186250  0.03134350  0.21481300  1
  O  O12  1  0.33676550  0.21231250  0.84089200  1
  O  O13  1  0.66323450  0.21231250  0.65910800  1
  O  O14  1  0.16323450  0.28768750  0.15910800  1
  O  O15  1  0.83676550  0.28768750  0.34089200  1
  O  O16  1  0.75186250  0.96865650  0.71481300  1
  O  O17  1  0.24813750  0.96865650  0.78518700  1
  O  O18  1  0.74813750  0.53134350  0.28518700  1
  O  O19  1  0.25186250  0.53134350  0.21481300  1
  O  O20  1  0.83676550  0.71231250  0.84089200  1
  O  O21  1  0.16323450  0.71231250  0.65910800  1
  O  O22  1  0.66323450  0.78768750  0.15910800  1
  O  O23  1  0.33676550  0.78768750  0.34089200  1
