# generated using pymatgen
data_Ce3Nd2O9
_symmetry_space_group_name_H-M   'P 1'
_cell_length_a   3.90050000
_cell_length_b   3.90050000
_cell_length_c   27.89245200
_cell_angle_alpha   90.00000000
_cell_angle_beta   90.00000000
_cell_angle_gamma   90.00000000
_symmetry_Int_Tables_number   1
_chemical_formula_structural   Ce3Nd2O9
_chemical_formula_sum   'Ce6 Nd4 O18'
_cell_volume   424.35298246
_cell_formula_units_Z   2
loop_
 _symmetry_equiv_pos_site_id
 _symmetry_equiv_pos_as_xyz
  1  'x, y, z'
loop_
 _atom_site_type_symbol
 _atom_site_label
 _atom_site_symmetry_multiplicity
 _atom_site_fract_x
 _atom_site_fract_y
 _atom_site_fract_z
 _atom_site_occupancy
  Ce  Ce0  1  0.00000000  0.50000000  0.15226900  1
  Ce  Ce1  1  0.50000000  0.00000000  0.25000000  1
  Ce  Ce2  1  0.00000000  0.50000000  0.34773100  1
  Ce  Ce3  1  0.50000000  0.00000000  0.65226900  1
  Ce  Ce4  1  0.00000000  0.50000000  0.75000000  1
  Ce  Ce5  1  0.50000000  0.00000000  0.84773100  1
  Nd  Nd6  1  0.50000000  0.00000000  0.44270600  1
  Nd  Nd7  1  0.50000000  0.00000000  0.05729400  1
  Nd  Nd8  1  0.00000000  0.50000000  0.94270600  1
  Nd  Nd9  1  0.00000000  0.50000000  0.55729400  1
  O  O10  1  0.00000000  0.00000000  0.10820700  1
  O  O11  1  0.50000000  0.50000000  0.19815400  1
  O  O12  1  0.00000000  0.00000000  0.30184600  1
  O  O13  1  0.50000000  0.50000000  0.39179300  1
  O  O14  1  0.00000000  0.00000000  0.40226300  1
  O  O15  1  0.00000000  0.00000000  0.00000000  1
  O  O16  1  0.50000000  0.50000000  0.09773700  1
  O  O17  1  0.00000000  0.00000000  0.20414600  1
  O  O18  1  0.50000000  0.50000000  0.29585400  1
  O  O19  1  0.50000000  0.50000000  0.60820700  1
  O  O20  1  0.00000000  0.00000000  0.69815400  1
  O  O21  1  0.50000000  0.50000000  0.80184600  1
  O  O22  1  0.00000000  0.00000000  0.89179300  1
  O  O23  1  0.50000000  0.50000000  0.90226300  1
  O  O24  1  0.50000000  0.50000000  0.50000000  1
  O  O25  1  0.00000000  0.00000000  0.59773700  1
  O  O26  1  0.50000000  0.50000000  0.70414600  1
  O  O27  1  0.00000000  0.00000000  0.79585400  1
