# generated using pymatgen
data_Sn(PO3)3
_symmetry_space_group_name_H-M   'P 1'
_cell_length_a   9.48305700
_cell_length_b   10.20177287
_cell_length_c   10.58468044
_cell_angle_alpha   109.03444960
_cell_angle_beta   109.55292011
_cell_angle_gamma   105.68541406
_symmetry_Int_Tables_number   1
_chemical_formula_structural   Sn(PO3)3
_chemical_formula_sum   'Sn4 P12 O36'
_cell_volume   825.27062162
_cell_formula_units_Z   4
loop_
 _symmetry_equiv_pos_site_id
 _symmetry_equiv_pos_as_xyz
  1  'x, y, z'
loop_
 _atom_site_type_symbol
 _atom_site_label
 _atom_site_symmetry_multiplicity
 _atom_site_fract_x
 _atom_site_fract_y
 _atom_site_fract_z
 _atom_site_occupancy
  Sn  Sn0  1  0.23543100  0.73724100  0.27105200  1
  Sn  Sn1  1  0.76456900  0.26275900  0.72894800  1
  Sn  Sn2  1  0.69846100  0.86211500  0.80828100  1
  Sn  Sn3  1  0.30153900  0.13788500  0.19171900  1
  P  P4  1  0.61960600  0.97651100  0.37322600  1
  P  P5  1  0.84975900  0.49119100  0.10719200  1
  P  P6  1  0.15024100  0.50880900  0.89280800  1
  P  P7  1  0.79564200  0.03780500  0.19117000  1
  P  P8  1  0.68426900  0.44405100  0.29871300  1
  P  P9  1  0.57893200  0.68423900  0.40136700  1
  P  P10  1  0.31573100  0.55594900  0.70128700  1
  P  P11  1  0.20435800  0.96219500  0.80883000  1
  P  P12  1  0.38039400  0.02348900  0.62677400  1
  P  P13  1  0.42106800  0.31576100  0.59863300  1
  P  P14  1  0.90229400  0.78607100  0.09915400  1
  P  P15  1  0.09770600  0.21392900  0.90084600  1
  O  O16  1  0.39072300  0.42788100  0.72075200  1
  O  O17  1  0.16819000  0.49341400  0.55828100  1
  O  O18  1  0.34525900  0.30712600  0.44786500  1
  O  O19  1  0.39155800  0.64248000  0.33352500  1
  O  O20  1  0.06840400  0.81369000  0.69215000  1
  O  O21  1  0.72795600  0.12970200  0.51382200  1
  O  O22  1  0.43331800  0.92801300  0.31775100  1
  O  O23  1  0.19602000  0.37086700  0.90283900  1
  O  O24  1  0.70221600  0.99920900  0.02828500  1
  O  O25  1  0.33226800  0.15284100  0.59836400  1
  O  O26  1  0.56668200  0.07198700  0.68224900  1
  O  O27  1  0.85045700  0.76930100  0.94249300  1
  O  O28  1  0.81084600  0.38086600  0.95183200  1
  O  O29  1  0.46597000  0.70276700  0.76350000  1
  O  O30  1  0.64718400  0.98388800  0.23867700  1
  O  O31  1  0.83181000  0.50658600  0.44171900  1
  O  O32  1  0.65474100  0.69287400  0.55213500  1
  O  O33  1  0.18915400  0.61913400  0.04816800  1
  O  O34  1  0.97008900  0.44060500  0.77297200  1
  O  O35  1  0.14954300  0.23069900  0.05750700  1
  O  O36  1  0.93159600  0.18631000  0.30785000  1
  O  O37  1  0.14890300  0.10335700  0.80374500  1
  O  O38  1  0.85109700  0.89664300  0.19625500  1
  O  O39  1  0.02991100  0.55939500  0.22702800  1
  O  O40  1  0.60844200  0.35752000  0.66647500  1
  O  O41  1  0.35281600  0.01611200  0.76132300  1
  O  O42  1  0.60927700  0.57211900  0.27924800  1
  O  O43  1  0.91162600  0.16396100  0.80940900  1
  O  O44  1  0.27204400  0.87029800  0.48617800  1
  O  O45  1  0.29778400  0.00079100  0.97171500  1
  O  O46  1  0.53403000  0.29723300  0.23650000  1
  O  O47  1  0.80398000  0.62913300  0.09716100  1
  O  O48  1  0.27520800  0.58922500  0.84799600  1
  O  O49  1  0.66773200  0.84715900  0.40163600  1
  O  O50  1  0.08837400  0.83603900  0.19059100  1
  O  O51  1  0.72479200  0.41077500  0.15200400  1
