# generated using pymatgen
data_H7NO6
_symmetry_space_group_name_H-M   'P 1'
_cell_length_a   3.65103700
_cell_length_b   15.23077300
_cell_length_c   9.63917926
_cell_angle_alpha   90.00000000
_cell_angle_beta   92.35212151
_cell_angle_gamma   90.00000000
_symmetry_Int_Tables_number   1
_chemical_formula_structural   H7NO6
_chemical_formula_sum   'H28 N4 O24'
_cell_volume   535.56498817
_cell_formula_units_Z   4
loop_
 _symmetry_equiv_pos_site_id
 _symmetry_equiv_pos_as_xyz
  1  'x, y, z'
loop_
 _atom_site_type_symbol
 _atom_site_label
 _atom_site_symmetry_multiplicity
 _atom_site_fract_x
 _atom_site_fract_y
 _atom_site_fract_z
 _atom_site_occupancy
  H  H0  1  0.89812700  0.30346700  0.60073800  1
  H  H1  1  0.53323500  0.31741100  0.45351700  1
  H  H2  1  0.12926600  0.66818400  0.99709100  1
  H  H3  1  0.42331000  0.59016800  0.95197900  1
  H  H4  1  0.87073400  0.16818400  0.00290900  1
  H  H5  1  0.57669000  0.09016800  0.04802100  1
  H  H6  1  0.46676500  0.81741100  0.54648300  1
  H  H7  1  0.10187300  0.80346700  0.39926200  1
  H  H8  1  0.84859100  0.04595900  0.58682700  1
  H  H9  1  0.55795000  0.99540500  0.49175000  1
  H  H10  1  0.43716000  0.95574800  0.04383700  1
  H  H11  1  0.27008500  0.00465000  0.91084900  1
  H  H12  1  0.56284000  0.45574800  0.95616300  1
  H  H13  1  0.72991500  0.50465000  0.08915100  1
  H  H14  1  0.44205000  0.49540500  0.50825000  1
  H  H15  1  0.15140900  0.54595900  0.41317300  1
  H  H16  1  0.21344400  0.16570900  0.33077700  1
  H  H17  1  0.89645800  0.13018200  0.17410900  1
  H  H18  1  0.96863600  0.08170800  0.36938500  1
  H  H19  1  0.85799300  0.91706500  0.20397700  1
  H  H20  1  0.43508900  0.85809600  0.34346300  1
  H  H21  1  0.73539600  0.82327500  0.15586100  1
  H  H22  1  0.14200700  0.41706500  0.79602300  1
  H  H23  1  0.26460400  0.32327500  0.84413900  1
  H  H24  1  0.56491100  0.35809600  0.65653700  1
  H  H25  1  0.10354200  0.63018200  0.82589100  1
  H  H26  1  0.78655600  0.66570900  0.66922300  1
  H  H27  1  0.03136400  0.58170800  0.63061500  1
  N  N28  1  0.05673300  0.17024100  0.75247000  1
  N  N29  1  0.58287300  0.84052600  0.74921300  1
  N  N30  1  0.41712700  0.34052600  0.25078700  1
  N  N31  1  0.94326700  0.67024100  0.24753000  1
  O  O32  1  0.14701200  0.20522700  0.64023900  1
  O  O33  1  0.74313200  0.81457000  0.85564100  1
  O  O34  1  0.25686800  0.31457000  0.14435900  1
  O  O35  1  0.85298800  0.70522700  0.35976100  1
  O  O36  1  0.06648200  0.21636200  0.86477700  1
  O  O37  1  0.60769400  0.78600600  0.63577000  1
  O  O38  1  0.39230600  0.28600600  0.36423000  1
  O  O39  1  0.93351800  0.71636200  0.13522300  1
  O  O40  1  0.95739100  0.09108800  0.75719000  1
  O  O41  1  0.40545100  0.90876200  0.73275000  1
  O  O42  1  0.59454900  0.40876200  0.26725000  1
  O  O43  1  0.04260900  0.59108800  0.24281000  1
  O  O44  1  0.71670900  0.34944700  0.57419500  1
  O  O45  1  0.27563800  0.64505600  0.91878000  1
  O  O46  1  0.72436200  0.14505600  0.08122000  1
  O  O47  1  0.28329100  0.84944700  0.42580500  1
  O  O48  1  0.79848800  0.02314700  0.49189200  1
  O  O49  1  0.32730200  0.01139200  0.01033500  1
  O  O50  1  0.67269800  0.51139200  0.98966500  1
  O  O51  1  0.20151200  0.52314700  0.50810800  1
  O  O52  1  0.10385600  0.11149900  0.29260100  1
  O  O53  1  0.63958700  0.88165700  0.18399500  1
  O  O54  1  0.36041300  0.38165700  0.81600500  1
  O  O55  1  0.89614400  0.61149900  0.70739900  1
