# generated using pymatgen
data_Ti2SCl12
_symmetry_space_group_name_H-M   'P 1'
_cell_length_a   22.72918222
_cell_length_b   22.72918222
_cell_length_c   17.94653720
_cell_angle_alpha   90.00000000
_cell_angle_beta   90.00000000
_cell_angle_gamma   120.00000000
_symmetry_Int_Tables_number   1
_chemical_formula_structural   Ti2SCl12
_chemical_formula_sum   'Ti36 S18 Cl216'
_cell_volume   8029.32275860
_cell_formula_units_Z   18
loop_
 _symmetry_equiv_pos_site_id
 _symmetry_equiv_pos_as_xyz
  1  'x, y, z'
loop_
 _atom_site_type_symbol
 _atom_site_label
 _atom_site_symmetry_multiplicity
 _atom_site_fract_x
 _atom_site_fract_y
 _atom_site_fract_z
 _atom_site_occupancy
  Ti  Ti0  1  0.65879500  0.16300800  0.48582600  1
  Ti  Ti1  1  0.34120500  0.83699200  0.51417400  1
  Ti  Ti2  1  0.16636967  0.00247033  0.65505133  1
  Ti  Ti3  1  0.83610067  0.83363033  0.65505133  1
  Ti  Ti4  1  0.00247033  0.83610067  0.34494867  1
  Ti  Ti5  1  0.83363033  0.99752967  0.34494867  1
  Ti  Ti6  1  0.83699200  0.49578700  0.48582600  1
  Ti  Ti7  1  0.49578700  0.65879500  0.51417400  1
  Ti  Ti8  1  0.16389933  0.16636967  0.34494867  1
  Ti  Ti9  1  0.50421300  0.34120500  0.48582600  1
  Ti  Ti10  1  0.16300800  0.50421300  0.51417400  1
  Ti  Ti11  1  0.99752967  0.16389933  0.65505133  1
  Ti  Ti12  1  0.32546167  0.49634133  0.81915933  1
  Ti  Ti13  1  0.00787167  0.17032533  0.84750733  1
  Ti  Ti14  1  0.83303633  0.33580367  0.98838467  1
  Ti  Ti15  1  0.50276733  0.16696367  0.98838467  1
  Ti  Ti16  1  0.66913700  0.16943400  0.67828200  1
  Ti  Ti17  1  0.50029700  0.33086300  0.67828200  1
  Ti  Ti18  1  0.50365867  0.82912033  0.81915933  1
  Ti  Ti19  1  0.16245367  0.99212833  0.84750733  1
  Ti  Ti20  1  0.83056600  0.49970300  0.67828200  1
  Ti  Ti21  1  0.17087967  0.67453833  0.81915933  1
  Ti  Ti22  1  0.82967467  0.83754633  0.84750733  1
  Ti  Ti23  1  0.66419633  0.49723267  0.98838467  1
  Ti  Ti24  1  0.99212833  0.82967467  0.15249267  1
  Ti  Ti25  1  0.67453833  0.50365867  0.18084067  1
  Ti  Ti26  1  0.49970300  0.66913700  0.32171800  1
  Ti  Ti27  1  0.16943400  0.50029700  0.32171800  1
  Ti  Ti28  1  0.33580367  0.50276733  0.01161533  1
  Ti  Ti29  1  0.16696367  0.66419633  0.01161533  1
  Ti  Ti30  1  0.17032533  0.16245367  0.15249267  1
  Ti  Ti31  1  0.82912033  0.32546167  0.18084067  1
  Ti  Ti32  1  0.49723267  0.83303633  0.01161533  1
  Ti  Ti33  1  0.83754633  0.00787167  0.15249267  1
  Ti  Ti34  1  0.49634133  0.17087967  0.18084067  1
  Ti  Ti35  1  0.33086300  0.83056600  0.32171800  1
  S  S36  1  0.35282933  0.03820567  0.48604067  1
  S  S37  1  0.31462367  0.35282933  0.51395933  1
  S  S38  1  0.03820567  0.68537633  0.51395933  1
  S  S39  1  0.64717067  0.96179433  0.51395933  1
  S  S40  1  0.68537633  0.64717067  0.48604067  1
  S  S41  1  0.96179433  0.31462367  0.48604067  1
  S  S42  1  0.01949600  0.37153900  0.81937400  1
  S  S43  1  0.98129033  0.68616267  0.84729267  1
  S  S44  1  0.70487233  0.01870967  0.84729267  1
  S  S45  1  0.31383733  0.29512767  0.84729267  1
  S  S46  1  0.35204300  0.98050400  0.81937400  1
  S  S47  1  0.62846100  0.64795700  0.81937400  1
  S  S48  1  0.68616267  0.70487233  0.15270733  1
  S  S49  1  0.64795700  0.01949600  0.18062600  1
  S  S50  1  0.37153900  0.35204300  0.18062600  1
  S  S51  1  0.98050400  0.62846100  0.18062600  1
  S  S52  1  0.01870967  0.31383733  0.15270733  1
  S  S53  1  0.29512767  0.98129033  0.15270733  1
  Cl  Cl54  1  0.63409300  0.56781500  0.41777900  1
  Cl  Cl55  1  0.22057367  0.95658633  0.59213333  1
  Cl  Cl56  1  0.87723967  0.95462533  0.24449333  1
  Cl  Cl57  1  0.54899567  0.75243933  0.58429633  1
  Cl  Cl58  1  0.11534833  0.40478867  0.42275767  1
  Cl  Cl59  1  0.88650600  0.78008900  0.60426200  1
  Cl  Cl60  1  0.71909500  0.60838000  0.56515000  1
  Cl  Cl61  1  0.88465167  0.59521133  0.57724233  1
  Cl  Cl62  1  0.06324467  0.94347033  0.90544033  1
  Cl  Cl63  1  0.54160433  0.59988867  0.56811867  1
  Cl  Cl64  1  0.40478867  0.28944033  0.57724233  1
  Cl  Cl65  1  0.04537467  0.92261433  0.24449333  1
  Cl  Cl66  1  0.59521133  0.71055967  0.42275767  1
  Cl  Cl67  1  0.20344367  0.45100433  0.58429633  1
  Cl  Cl68  1  0.77076133  0.70695267  0.42795667  1
  Cl  Cl69  1  0.04345900  0.11464800  0.59029200  1
  Cl  Cl70  1  0.94171567  0.54160433  0.43188133  1
  Cl  Cl71  1  0.11071500  0.71909500  0.43485000  1
  Cl  Cl72  1  0.05652967  0.11977433  0.90544033  1
  Cl  Cl73  1  0.11349400  0.21991100  0.39573800  1
  Cl  Cl74  1  0.06380867  0.77076133  0.57204333  1
  Cl  Cl75  1  0.70695267  0.93619133  0.57204333  1
  Cl  Cl76  1  0.93619133  0.22923867  0.42795667  1
  Cl  Cl77  1  0.21339167  0.11892133  0.25606633  1
  Cl  Cl78  1  0.95658633  0.73601267  0.40786667  1
  Cl  Cl79  1  0.11977433  0.06324467  0.09455967  1
  Cl  Cl80  1  0.78008900  0.89358300  0.39573800  1
  Cl  Cl81  1  0.05828433  0.45839567  0.56811867  1
  Cl  Cl82  1  0.78660833  0.88107867  0.74393367  1
  Cl  Cl83  1  0.95654100  0.88535200  0.40970800  1
  Cl  Cl84  1  0.39162000  0.11071500  0.56515000  1
  Cl  Cl85  1  0.29304733  0.06380867  0.42795667  1
  Cl  Cl86  1  0.88022567  0.93675533  0.90544033  1
  Cl  Cl87  1  0.75243933  0.20344367  0.41570367  1
  Cl  Cl88  1  0.45839567  0.40011133  0.43188133  1
  Cl  Cl89  1  0.73601267  0.77942633  0.59213333  1
  Cl  Cl90  1  0.95462533  0.07738567  0.75550667  1
  Cl  Cl91  1  0.04341367  0.26398733  0.59213333  1
  Cl  Cl92  1  0.21991100  0.10641700  0.60426200  1
  Cl  Cl93  1  0.89358300  0.11349400  0.60426200  1
  Cl  Cl94  1  0.77942633  0.04341367  0.40786667  1
  Cl  Cl95  1  0.88928500  0.28090500  0.56515000  1
  Cl  Cl96  1  0.12276033  0.04537467  0.75550667  1
  Cl  Cl97  1  0.92261433  0.87723967  0.75550667  1
  Cl  Cl98  1  0.09447033  0.21339167  0.74393367  1
  Cl  Cl99  1  0.11464800  0.07118900  0.40970800  1
  Cl  Cl100  1  0.71055967  0.11534833  0.57724233  1
  Cl  Cl101  1  0.88535200  0.92881100  0.59029200  1
  Cl  Cl102  1  0.79655633  0.54899567  0.41570367  1
  Cl  Cl103  1  0.07118900  0.95654100  0.59029200  1
  Cl  Cl104  1  0.92881100  0.04345900  0.40970800  1
  Cl  Cl105  1  0.24756067  0.79655633  0.58429633  1
  Cl  Cl106  1  0.59988867  0.05828433  0.43188133  1
  Cl  Cl107  1  0.56781500  0.93372200  0.58222100  1
  Cl  Cl108  1  0.45100433  0.24756067  0.41570367  1
  Cl  Cl109  1  0.28090500  0.39162000  0.43485000  1
  Cl  Cl110  1  0.94347033  0.88022567  0.09455967  1
  Cl  Cl111  1  0.07738567  0.12276033  0.24449333  1
  Cl  Cl112  1  0.93372200  0.36590700  0.41777900  1
  Cl  Cl113  1  0.26398733  0.22057367  0.40786667  1
  Cl  Cl114  1  0.40011133  0.94171567  0.56811867  1
  Cl  Cl115  1  0.93675533  0.05652967  0.09455967  1
  Cl  Cl116  1  0.22923867  0.29304733  0.57204333  1
  Cl  Cl117  1  0.36590700  0.43218500  0.58222100  1
  Cl  Cl118  1  0.60838000  0.88928500  0.43485000  1
  Cl  Cl119  1  0.28944033  0.88465167  0.42275767  1
  Cl  Cl120  1  0.11892133  0.90552967  0.74393367  1
  Cl  Cl121  1  0.88107867  0.09447033  0.25606633  1
  Cl  Cl122  1  0.90552967  0.78660833  0.25606633  1
  Cl  Cl123  1  0.06627800  0.63409300  0.58222100  1
  Cl  Cl124  1  0.10641700  0.88650600  0.39573800  1
  Cl  Cl125  1  0.43218500  0.06627800  0.41777900  1
  Cl  Cl126  1  0.30075967  0.90114833  0.75111233  1
  Cl  Cl127  1  0.88724033  0.28991967  0.92546667  1
  Cl  Cl128  1  0.54390633  0.28795867  0.57782667  1
  Cl  Cl129  1  0.21566233  0.08577267  0.91762967  1
  Cl  Cl130  1  0.78201500  0.73812200  0.75609100  1
  Cl  Cl131  1  0.55317267  0.11342233  0.93759533  1
  Cl  Cl132  1  0.38576167  0.94171333  0.89848333  1
  Cl  Cl133  1  0.55131833  0.92854467  0.91057567  1
  Cl  Cl134  1  0.72991133  0.27680367  0.23877367  1
  Cl  Cl135  1  0.20827100  0.93322200  0.90145200  1
  Cl  Cl136  1  0.07145533  0.62277367  0.91057567  1
  Cl  Cl137  1  0.71204133  0.25594767  0.57782667  1
  Cl  Cl138  1  0.26187800  0.04389300  0.75609100  1
  Cl  Cl139  1  0.87011033  0.78433767  0.91762967  1
  Cl  Cl140  1  0.43742800  0.04028600  0.76129000  1
  Cl  Cl141  1  0.71012567  0.44798133  0.92362533  1
  Cl  Cl142  1  0.60838233  0.87493767  0.76521467  1
  Cl  Cl143  1  0.77738167  0.05242833  0.76818333  1
  Cl  Cl144  1  0.72319633  0.45310767  0.23877367  1
  Cl  Cl145  1  0.78016067  0.55324433  0.72907133  1
  Cl  Cl146  1  0.73047533  0.10409467  0.90537667  1
  Cl  Cl147  1  0.37361933  0.26952467  0.90537667  1
  Cl  Cl148  1  0.60285800  0.56257200  0.76129000  1
  Cl  Cl149  1  0.88005833  0.45225467  0.58939967  1
  Cl  Cl150  1  0.62325300  0.06934600  0.74120000  1
  Cl  Cl151  1  0.78644100  0.39657800  0.42789300  1
  Cl  Cl152  1  0.44675567  0.22691633  0.72907133  1
  Cl  Cl153  1  0.72495100  0.79172900  0.90145200  1
  Cl  Cl154  1  0.45327500  0.21441200  0.07726700  1
  Cl  Cl155  1  0.62320767  0.21868533  0.74304133  1
  Cl  Cl156  1  0.05828667  0.44404833  0.89848333  1
  Cl  Cl157  1  0.95971400  0.39714200  0.76129000  1
  Cl  Cl158  1  0.54689233  0.27008867  0.23877367  1
  Cl  Cl159  1  0.41910600  0.53677700  0.74903700  1
  Cl  Cl160  1  0.12506233  0.73344467  0.76521467  1
  Cl  Cl161  1  0.40267933  0.11275967  0.92546667  1
  Cl  Cl162  1  0.62129200  0.41071900  0.08884000  1
  Cl  Cl163  1  0.71008033  0.59732067  0.92546667  1
  Cl  Cl164  1  0.88657767  0.43975033  0.93759533  1
  Cl  Cl165  1  0.56024967  0.44682733  0.93759533  1
  Cl  Cl166  1  0.44609300  0.37674700  0.74120000  1
  Cl  Cl167  1  0.55595167  0.61423833  0.89848333  1
  Cl  Cl168  1  0.78942700  0.37870800  0.08884000  1
  Cl  Cl169  1  0.58928100  0.21057300  0.08884000  1
  Cl  Cl170  1  0.76113700  0.54672500  0.07726700  1
  Cl  Cl171  1  0.78131467  0.40452233  0.74304133  1
  Cl  Cl172  1  0.37722633  0.44868167  0.91057567  1
  Cl  Cl173  1  0.55201867  0.26214433  0.92362533  1
  Cl  Cl174  1  0.46322300  0.88232900  0.74903700  1
  Cl  Cl175  1  0.73785567  0.28987433  0.92362533  1
  Cl  Cl176  1  0.59547767  0.37679233  0.74304133  1
  Cl  Cl177  1  0.91422733  0.12988967  0.91762967  1
  Cl  Cl178  1  0.26655533  0.39161767  0.76521467  1
  Cl  Cl179  1  0.23448167  0.26705533  0.91555433  1
  Cl  Cl180  1  0.11767100  0.58089400  0.74903700  1
  Cl  Cl181  1  0.94757167  0.72495333  0.76818333  1
  Cl  Cl182  1  0.61013700  0.21355900  0.42789300  1
  Cl  Cl183  1  0.74405233  0.45609367  0.57782667  1
  Cl  Cl184  1  0.60038867  0.69924033  0.75111233  1
  Cl  Cl185  1  0.93065400  0.55390700  0.74120000  1
  Cl  Cl186  1  0.06677800  0.27504900  0.90145200  1
  Cl  Cl187  1  0.60342200  0.38986300  0.42789300  1
  Cl  Cl188  1  0.89590533  0.62638067  0.90537667  1
  Cl  Cl189  1  0.03257367  0.76551833  0.91555433  1
  Cl  Cl190  1  0.27504667  0.22261833  0.76818333  1
  Cl  Cl191  1  0.95610700  0.21798500  0.75609100  1
  Cl  Cl192  1  0.78558800  0.23886300  0.07726700  1
  Cl  Cl193  1  0.54774533  0.42780367  0.58939967  1
  Cl  Cl194  1  0.57219633  0.11994167  0.58939967  1
  Cl  Cl195  1  0.73294467  0.96742633  0.91555433  1
  Cl  Cl196  1  0.77308367  0.21983933  0.72907133  1
  Cl  Cl197  1  0.09885167  0.39961133  0.75111233  1
  Cl  Cl198  1  0.96742633  0.23448167  0.08444567  1
  Cl  Cl199  1  0.55390700  0.62325300  0.25880000  1
  Cl  Cl200  1  0.21057300  0.62129200  0.91116000  1
  Cl  Cl201  1  0.88232900  0.41910600  0.25096300  1
  Cl  Cl202  1  0.44868167  0.07145533  0.08942433  1
  Cl  Cl203  1  0.21983933  0.44675567  0.27092867  1
  Cl  Cl204  1  0.05242833  0.27504667  0.23181667  1
  Cl  Cl205  1  0.21798500  0.26187800  0.24390900  1
  Cl  Cl206  1  0.39657800  0.61013700  0.57210700  1
  Cl  Cl207  1  0.87493767  0.26655533  0.23478533  1
  Cl  Cl208  1  0.73812200  0.95610700  0.24390900  1
  Cl  Cl209  1  0.37870800  0.58928100  0.91116000  1
  Cl  Cl210  1  0.92854467  0.37722633  0.08942433  1
  Cl  Cl211  1  0.53677700  0.11767100  0.25096300  1
  Cl  Cl212  1  0.10409467  0.37361933  0.09462333  1
  Cl  Cl213  1  0.37679233  0.78131467  0.25695867  1
  Cl  Cl214  1  0.27504900  0.20827100  0.09854800  1
  Cl  Cl215  1  0.44404833  0.38576167  0.10151667  1
  Cl  Cl216  1  0.38986300  0.78644100  0.57210700  1
  Cl  Cl217  1  0.44682733  0.88657767  0.06240467  1
  Cl  Cl218  1  0.39714200  0.43742800  0.23871000  1
  Cl  Cl219  1  0.04028600  0.60285800  0.23871000  1
  Cl  Cl220  1  0.26952467  0.89590533  0.09462333  1
  Cl  Cl221  1  0.54672500  0.78558800  0.92273300  1
  Cl  Cl222  1  0.28991967  0.40267933  0.07453333  1
  Cl  Cl223  1  0.45310767  0.72991133  0.76122633  1
  Cl  Cl224  1  0.11342233  0.56024967  0.06240467  1
  Cl  Cl225  1  0.39161767  0.12506233  0.23478533  1
  Cl  Cl226  1  0.11994167  0.54774533  0.41060033  1
  Cl  Cl227  1  0.28987433  0.55201867  0.07637467  1
  Cl  Cl228  1  0.72495333  0.77738167  0.23181667  1
  Cl  Cl229  1  0.62638067  0.73047533  0.09462333  1
  Cl  Cl230  1  0.21355900  0.60342200  0.57210700  1
  Cl  Cl231  1  0.08577267  0.87011033  0.08237033  1
  Cl  Cl232  1  0.79172900  0.06677800  0.09854800  1
  Cl  Cl233  1  0.06934600  0.44609300  0.25880000  1
  Cl  Cl234  1  0.28795867  0.74405233  0.42217333  1
  Cl  Cl235  1  0.37674700  0.93065400  0.25880000  1
  Cl  Cl236  1  0.55324433  0.77308367  0.27092867  1
  Cl  Cl237  1  0.22691633  0.78016067  0.27092867  1
  Cl  Cl238  1  0.11275967  0.71008033  0.07453333  1
  Cl  Cl239  1  0.22261833  0.94757167  0.23181667  1
  Cl  Cl240  1  0.45609367  0.71204133  0.42217333  1
  Cl  Cl241  1  0.25594767  0.54390633  0.42217333  1
  Cl  Cl242  1  0.42780367  0.88005833  0.41060033  1
  Cl  Cl243  1  0.44798133  0.73785567  0.07637467  1
  Cl  Cl244  1  0.04389300  0.78201500  0.24390900  1
  Cl  Cl245  1  0.21868533  0.59547767  0.25695867  1
  Cl  Cl246  1  0.12988967  0.21566233  0.08237033  1
  Cl  Cl247  1  0.40452233  0.62320767  0.25695867  1
  Cl  Cl248  1  0.26214433  0.71012567  0.07637467  1
  Cl  Cl249  1  0.58089400  0.46322300  0.25096300  1
  Cl  Cl250  1  0.93322200  0.72495100  0.09854800  1
  Cl  Cl251  1  0.90114833  0.60038867  0.24888767  1
  Cl  Cl252  1  0.78433767  0.91422733  0.08237033  1
  Cl  Cl253  1  0.61423833  0.05828667  0.10151667  1
  Cl  Cl254  1  0.27680367  0.54689233  0.76122633  1
  Cl  Cl255  1  0.41071900  0.78942700  0.91116000  1
  Cl  Cl256  1  0.26705533  0.03257367  0.08444567  1
  Cl  Cl257  1  0.59732067  0.88724033  0.07453333  1
  Cl  Cl258  1  0.73344467  0.60838233  0.23478533  1
  Cl  Cl259  1  0.27008867  0.72319633  0.76122633  1
  Cl  Cl260  1  0.56257200  0.95971400  0.23871000  1
  Cl  Cl261  1  0.69924033  0.09885167  0.24888767  1
  Cl  Cl262  1  0.94171333  0.55595167  0.10151667  1
  Cl  Cl263  1  0.62277367  0.55131833  0.08942433  1
  Cl  Cl264  1  0.45225467  0.57219633  0.41060033  1
  Cl  Cl265  1  0.21441200  0.76113700  0.92273300  1
  Cl  Cl266  1  0.23886300  0.45327500  0.92273300  1
  Cl  Cl267  1  0.39961133  0.30075967  0.24888767  1
  Cl  Cl268  1  0.43975033  0.55317267  0.06240467  1
  Cl  Cl269  1  0.76551833  0.73294467  0.08444567  1
