# generated using pymatgen
data_K5Te3
_symmetry_space_group_name_H-M   'P 1'
_cell_length_a   13.86435800
_cell_length_b   13.86435800
_cell_length_c   6.50757800
_cell_angle_alpha   90.00000000
_cell_angle_beta   90.00000000
_cell_angle_gamma   90.00000000
_symmetry_Int_Tables_number   1
_chemical_formula_structural   K5Te3
_chemical_formula_sum   'K20 Te12'
_cell_volume   1250.88939425
_cell_formula_units_Z   4
loop_
 _symmetry_equiv_pos_site_id
 _symmetry_equiv_pos_as_xyz
  1  'x, y, z'
loop_
 _atom_site_type_symbol
 _atom_site_label
 _atom_site_symmetry_multiplicity
 _atom_site_fract_x
 _atom_site_fract_y
 _atom_site_fract_z
 _atom_site_occupancy
  K  K0  1  0.50000000  0.00000000  0.25000000  1
  K  K1  1  0.50000000  0.00000000  0.75000000  1
  K  K2  1  0.58813900  0.71874300  0.00000000  1
  K  K3  1  0.78125700  0.08813900  0.50000000  1
  K  K4  1  0.21874300  0.91186100  0.50000000  1
  K  K5  1  0.41186100  0.28125700  0.00000000  1
  K  K6  1  0.22431500  0.09144300  0.00000000  1
  K  K7  1  0.40855700  0.72431500  0.50000000  1
  K  K8  1  0.59144300  0.27568500  0.50000000  1
  K  K9  1  0.77568500  0.90855700  0.00000000  1
  K  K10  1  0.00000000  0.50000000  0.75000000  1
  K  K11  1  0.00000000  0.50000000  0.25000000  1
  K  K12  1  0.08813900  0.21874300  0.50000000  1
  K  K13  1  0.28125700  0.58813900  0.00000000  1
  K  K14  1  0.71874300  0.41186100  0.00000000  1
  K  K15  1  0.91186100  0.78125700  0.50000000  1
  K  K16  1  0.72431500  0.59144300  0.50000000  1
  K  K17  1  0.90855700  0.22431500  0.00000000  1
  K  K18  1  0.09144300  0.77568500  0.00000000  1
  K  K19  1  0.27568500  0.40855700  0.50000000  1
  Te  Te20  1  0.34388600  0.15469300  0.50000000  1
  Te  Te21  1  0.34530700  0.84388600  0.00000000  1
  Te  Te22  1  0.65469300  0.15611400  0.00000000  1
  Te  Te23  1  0.65611400  0.84530700  0.50000000  1
  Te  Te24  1  0.00000000  0.00000000  0.78117500  1
  Te  Te25  1  0.00000000  0.00000000  0.21882500  1
  Te  Te26  1  0.84388600  0.65469300  0.00000000  1
  Te  Te27  1  0.84530700  0.34388600  0.50000000  1
  Te  Te28  1  0.15469300  0.65611400  0.50000000  1
  Te  Te29  1  0.15611400  0.34530700  0.00000000  1
  Te  Te30  1  0.50000000  0.50000000  0.28117500  1
  Te  Te31  1  0.50000000  0.50000000  0.71882500  1
