# generated using pymatgen
data_KInI4
_symmetry_space_group_name_H-M   'P 1'
_cell_length_a   14.37178600
_cell_length_b   15.11871800
_cell_length_c   20.08141400
_cell_angle_alpha   90.00000000
_cell_angle_beta   90.00000000
_cell_angle_gamma   90.00000000
_symmetry_Int_Tables_number   1
_chemical_formula_structural   KInI4
_chemical_formula_sum   'K12 In12 I48'
_cell_volume   4363.34947032
_cell_formula_units_Z   12
loop_
 _symmetry_equiv_pos_site_id
 _symmetry_equiv_pos_as_xyz
  1  'x, y, z'
loop_
 _atom_site_type_symbol
 _atom_site_label
 _atom_site_symmetry_multiplicity
 _atom_site_fract_x
 _atom_site_fract_y
 _atom_site_fract_z
 _atom_site_occupancy
  K  K0  1  0.00000000  0.00000000  0.99326100  1
  K  K1  1  0.00071850  0.30167050  0.67160150  1
  K  K2  1  0.99928150  0.69832950  0.67160150  1
  K  K3  1  0.00000000  0.00000000  0.49326100  1
  K  K4  1  0.49928150  0.80167050  0.67160150  1
  K  K5  1  0.50071850  0.19832950  0.67160150  1
  K  K6  1  0.50000000  0.50000000  0.49326100  1
  K  K7  1  0.50071850  0.80167050  0.17160150  1
  K  K8  1  0.49928150  0.19832950  0.17160150  1
  K  K9  1  0.50000000  0.50000000  0.99326100  1
  K  K10  1  0.99928150  0.30167050  0.17160150  1
  K  K11  1  0.00071850  0.69832950  0.17160150  1
  In  In12  1  0.74950850  0.75201450  0.49986450  1
  In  In13  1  0.00000000  0.00000000  0.75356900  1
  In  In14  1  0.24950850  0.74798550  0.49986450  1
  In  In15  1  0.75049150  0.25201450  0.49986450  1
  In  In16  1  0.00000000  0.00000000  0.25356900  1
  In  In17  1  0.25049150  0.24798550  0.49986450  1
  In  In18  1  0.24950850  0.25201450  0.99986450  1
  In  In19  1  0.50000000  0.50000000  0.25356900  1
  In  In20  1  0.74950850  0.24798550  0.99986450  1
  In  In21  1  0.25049150  0.75201450  0.99986450  1
  In  In22  1  0.50000000  0.50000000  0.75356900  1
  In  In23  1  0.75049150  0.74798550  0.99986450  1
  I  I24  1  0.68567600  0.67323000  0.61731500  1
  I  I25  1  0.88957000  0.11243000  0.82584000  1
  I  I26  1  0.11043000  0.88757000  0.82584000  1
  I  I27  1  0.88424450  0.89896750  0.67317850  1
  I  I28  1  0.67444900  0.67170100  0.39034100  1
  I  I29  1  0.93834250  0.71220750  0.50152250  1
  I  I30  1  0.71256150  0.92986150  0.50412150  1
  I  I31  1  0.56165750  0.21220750  0.50152250  1
  I  I32  1  0.18567600  0.82677000  0.61731500  1
  I  I33  1  0.21256150  0.57013850  0.50412150  1
  I  I34  1  0.81432400  0.17323000  0.61731500  1
  I  I35  1  0.11575550  0.10103250  0.67317850  1
  I  I36  1  0.88957000  0.88757000  0.32584000  1
  I  I37  1  0.82555100  0.17170100  0.39034100  1
  I  I38  1  0.43834250  0.78779250  0.50152250  1
  I  I39  1  0.78743850  0.42986150  0.50412150  1
  I  I40  1  0.17444900  0.82829900  0.39034100  1
  I  I41  1  0.06165750  0.28779250  0.50152250  1
  I  I42  1  0.28743850  0.07013850  0.50412150  1
  I  I43  1  0.31432400  0.32677000  0.61731500  1
  I  I44  1  0.11043000  0.11243000  0.32584000  1
  I  I45  1  0.11575550  0.89896750  0.17317850  1
  I  I46  1  0.88424450  0.10103250  0.17317850  1
  I  I47  1  0.32555100  0.32829900  0.39034100  1
  I  I48  1  0.18567600  0.17323000  0.11731500  1
  I  I49  1  0.38957000  0.61243000  0.32584000  1
  I  I50  1  0.61043000  0.38757000  0.32584000  1
  I  I51  1  0.38424450  0.39896750  0.17317850  1
  I  I52  1  0.17444900  0.17170100  0.89034100  1
  I  I53  1  0.43834250  0.21220750  0.00152250  1
  I  I54  1  0.21256150  0.42986150  0.00412150  1
  I  I55  1  0.06165750  0.71220750  0.00152250  1
  I  I56  1  0.68567600  0.32677000  0.11731500  1
  I  I57  1  0.71256150  0.07013850  0.00412150  1
  I  I58  1  0.31432400  0.67323000  0.11731500  1
  I  I59  1  0.61575550  0.60103250  0.17317850  1
  I  I60  1  0.38957000  0.38757000  0.82584000  1
  I  I61  1  0.32555100  0.67170100  0.89034100  1
  I  I62  1  0.93834250  0.28779250  0.00152250  1
  I  I63  1  0.28743850  0.92986150  0.00412150  1
  I  I64  1  0.67444900  0.32829900  0.89034100  1
  I  I65  1  0.56165750  0.78779250  0.00152250  1
  I  I66  1  0.78743850  0.57013850  0.00412150  1
  I  I67  1  0.81432400  0.82677000  0.11731500  1
  I  I68  1  0.61043000  0.61243000  0.82584000  1
  I  I69  1  0.61575550  0.39896750  0.67317850  1
  I  I70  1  0.38424450  0.60103250  0.67317850  1
  I  I71  1  0.82555100  0.82829900  0.89034100  1
