# generated using pymatgen
data_Li2Ti(PO3)5
_symmetry_space_group_name_H-M   'P 1'
_cell_length_a   5.20548100
_cell_length_b   13.49089400
_cell_length_c   8.90110702
_cell_angle_alpha   90.00000000
_cell_angle_beta   102.58386502
_cell_angle_gamma   90.00000000
_symmetry_Int_Tables_number   1
_chemical_formula_structural   Li2Ti(PO3)5
_chemical_formula_sum   'Li4 Ti2 P10 O30'
_cell_volume   610.07849290
_cell_formula_units_Z   2
loop_
 _symmetry_equiv_pos_site_id
 _symmetry_equiv_pos_as_xyz
  1  'x, y, z'
loop_
 _atom_site_type_symbol
 _atom_site_label
 _atom_site_symmetry_multiplicity
 _atom_site_fract_x
 _atom_site_fract_y
 _atom_site_fract_z
 _atom_site_occupancy
  Li  Li0  1  0.93371300  0.61341900  0.89623800  1
  Li  Li1  1  0.06628700  0.11341900  0.10376200  1
  Li  Li2  1  0.06628700  0.38658100  0.10376200  1
  Li  Li3  1  0.93371300  0.88658100  0.89623800  1
  Ti  Ti4  1  0.50000000  0.00000000  0.50000000  1
  Ti  Ti5  1  0.50000000  0.50000000  0.50000000  1
  P  P6  1  0.99986100  0.35893900  0.51583800  1
  P  P7  1  0.65640200  0.92362300  0.18387400  1
  P  P8  1  0.65640200  0.57637700  0.18387400  1
  P  P9  1  0.00013900  0.85893900  0.48416200  1
  P  P10  1  0.99986100  0.14106100  0.51583800  1
  P  P11  1  0.54448300  0.25000000  0.01223700  1
  P  P12  1  0.34359800  0.42362300  0.81612600  1
  P  P13  1  0.45551700  0.75000000  0.98776300  1
  P  P14  1  0.34359800  0.07637700  0.81612600  1
  P  P15  1  0.00013900  0.64106100  0.48416200  1
  O  O16  1  0.28577300  0.25000000  0.06093000  1
  O  O17  1  0.70899000  0.12580200  0.50316000  1
  O  O18  1  0.80641400  0.96810700  0.07541800  1
  O  O19  1  0.19472300  0.75000000  0.87738400  1
  O  O20  1  0.70899000  0.37419800  0.50316000  1
  O  O21  1  0.55474100  0.34250900  0.89440200  1
  O  O22  1  0.29101000  0.87419800  0.49684000  1
  O  O23  1  0.85853100  0.64473500  0.30727700  1
  O  O24  1  0.80641400  0.53189300  0.07541800  1
  O  O25  1  0.14143600  0.42608100  0.42417900  1
  O  O26  1  0.50922600  0.99094700  0.27219700  1
  O  O27  1  0.50922600  0.50905300  0.27219700  1
  O  O28  1  0.85856400  0.92608100  0.57582100  1
  O  O29  1  0.19358600  0.03189300  0.92458200  1
  O  O30  1  0.04486900  0.25000000  0.45881100  1
  O  O31  1  0.55474100  0.15749100  0.89440200  1
  O  O32  1  0.85856400  0.57391900  0.57582100  1
  O  O33  1  0.14146900  0.14473500  0.69272300  1
  O  O34  1  0.44525900  0.84250900  0.10559800  1
  O  O35  1  0.44525900  0.65749100  0.10559800  1
  O  O36  1  0.14146900  0.35526500  0.69272300  1
  O  O37  1  0.95513100  0.75000000  0.54118900  1
  O  O38  1  0.71422700  0.75000000  0.93907000  1
  O  O39  1  0.19358600  0.46810700  0.92458200  1
  O  O40  1  0.14143600  0.07391900  0.42417900  1
  O  O41  1  0.85853100  0.85526500  0.30727700  1
  O  O42  1  0.49077400  0.49094700  0.72780300  1
  O  O43  1  0.49077400  0.00905300  0.72780300  1
  O  O44  1  0.80527700  0.25000000  0.12261600  1
  O  O45  1  0.29101000  0.62580200  0.49684000  1
