# generated using pymatgen
data_Ba5Ho8Zn4O21
_symmetry_space_group_name_H-M   'P 1'
_cell_length_a   13.85563200
_cell_length_b   13.85563200
_cell_length_c   5.73979000
_cell_angle_alpha   90.00000000
_cell_angle_beta   90.00000000
_cell_angle_gamma   90.00000000
_symmetry_Int_Tables_number   1
_chemical_formula_structural   Ba5Ho8Zn4O21
_chemical_formula_sum   'Ba10 Ho16 Zn8 O42'
_cell_volume   1101.91649331
_cell_formula_units_Z   2
loop_
 _symmetry_equiv_pos_site_id
 _symmetry_equiv_pos_as_xyz
  1  'x, y, z'
loop_
 _atom_site_type_symbol
 _atom_site_label
 _atom_site_symmetry_multiplicity
 _atom_site_fract_x
 _atom_site_fract_y
 _atom_site_fract_z
 _atom_site_occupancy
  Ba  Ba0  1  0.46464200  0.86044600  0.00000000  1
  Ba  Ba1  1  0.63955400  0.96464200  0.50000000  1
  Ba  Ba2  1  0.36044600  0.03535800  0.50000000  1
  Ba  Ba3  1  0.53535800  0.13955400  0.00000000  1
  Ba  Ba4  1  0.00000000  0.00000000  0.00000000  1
  Ba  Ba5  1  0.96464200  0.36044600  0.50000000  1
  Ba  Ba6  1  0.13955400  0.46464200  0.00000000  1
  Ba  Ba7  1  0.86044600  0.53535800  0.00000000  1
  Ba  Ba8  1  0.03535800  0.63955400  0.50000000  1
  Ba  Ba9  1  0.50000000  0.50000000  0.50000000  1
  Ho  Ho10  1  0.58868600  0.64192600  0.00000000  1
  Ho  Ho11  1  0.85807400  0.08868600  0.50000000  1
  Ho  Ho12  1  0.14192600  0.91131400  0.50000000  1
  Ho  Ho13  1  0.41131400  0.35807400  0.00000000  1
  Ho  Ho14  1  0.75259350  0.83191750  0.00000000  1
  Ho  Ho15  1  0.66808250  0.25259350  0.50000000  1
  Ho  Ho16  1  0.33191750  0.74740650  0.50000000  1
  Ho  Ho17  1  0.24740650  0.16808250  0.00000000  1
  Ho  Ho18  1  0.08868600  0.14192600  0.50000000  1
  Ho  Ho19  1  0.35807400  0.58868600  0.00000000  1
  Ho  Ho20  1  0.64192600  0.41131400  0.00000000  1
  Ho  Ho21  1  0.91131400  0.85807400  0.50000000  1
  Ho  Ho22  1  0.25259350  0.33191750  0.50000000  1
  Ho  Ho23  1  0.16808250  0.75259350  0.00000000  1
  Ho  Ho24  1  0.83191750  0.24740650  0.00000000  1
  Ho  Ho25  1  0.74740650  0.66808250  0.50000000  1
  Zn  Zn26  1  0.45948400  0.24966600  0.50000000  1
  Zn  Zn27  1  0.25033400  0.95948400  0.00000000  1
  Zn  Zn28  1  0.74966600  0.04051600  0.00000000  1
  Zn  Zn29  1  0.54051600  0.75033400  0.50000000  1
  Zn  Zn30  1  0.95948400  0.74966600  0.00000000  1
  Zn  Zn31  1  0.75033400  0.45948400  0.50000000  1
  Zn  Zn32  1  0.24966600  0.54051600  0.50000000  1
  Zn  Zn33  1  0.04051600  0.25033400  0.00000000  1
  O  O34  1  0.35149650  0.24298850  0.74850750  1
  O  O35  1  0.25701150  0.85149650  0.24850750  1
  O  O36  1  0.74298850  0.14850350  0.24850750  1
  O  O37  1  0.64850350  0.75701150  0.74850750  1
  O  O38  1  0.64850350  0.75701150  0.25149250  1
  O  O39  1  0.74298850  0.14850350  0.75149250  1
  O  O40  1  0.25701150  0.85149650  0.75149250  1
  O  O41  1  0.35149650  0.24298850  0.25149250  1
  O  O42  1  0.17762100  0.04812700  0.74951800  1
  O  O43  1  0.45187300  0.67762100  0.24951800  1
  O  O44  1  0.54812700  0.32237900  0.24951800  1
  O  O45  1  0.82237900  0.95187300  0.74951800  1
  O  O46  1  0.82237900  0.95187300  0.25048200  1
  O  O47  1  0.54812700  0.32237900  0.75048200  1
  O  O48  1  0.45187300  0.67762100  0.75048200  1
  O  O49  1  0.17762100  0.04812700  0.25048200  1
  O  O50  1  0.37151300  0.03807700  0.00000000  1
  O  O51  1  0.00000000  0.00000000  0.50000000  1
  O  O52  1  0.62848700  0.96192300  0.00000000  1
  O  O53  1  0.53807700  0.12848700  0.50000000  1
  O  O54  1  0.46192300  0.87151300  0.50000000  1
  O  O55  1  0.85149650  0.74298850  0.24850750  1
  O  O56  1  0.75701150  0.35149650  0.74850750  1
  O  O57  1  0.24298850  0.64850350  0.74850750  1
  O  O58  1  0.14850350  0.25701150  0.24850750  1
  O  O59  1  0.14850350  0.25701150  0.75149250  1
  O  O60  1  0.24298850  0.64850350  0.25149250  1
  O  O61  1  0.75701150  0.35149650  0.25149250  1
  O  O62  1  0.85149650  0.74298850  0.75149250  1
  O  O63  1  0.67762100  0.54812700  0.24951800  1
  O  O64  1  0.95187300  0.17762100  0.74951800  1
  O  O65  1  0.04812700  0.82237900  0.74951800  1
  O  O66  1  0.32237900  0.45187300  0.24951800  1
  O  O67  1  0.32237900  0.45187300  0.75048200  1
  O  O68  1  0.04812700  0.82237900  0.25048200  1
  O  O69  1  0.95187300  0.17762100  0.25048200  1
  O  O70  1  0.67762100  0.54812700  0.75048200  1
  O  O71  1  0.87151300  0.53807700  0.50000000  1
  O  O72  1  0.50000000  0.50000000  0.00000000  1
  O  O73  1  0.12848700  0.46192300  0.50000000  1
  O  O74  1  0.03807700  0.62848700  0.00000000  1
  O  O75  1  0.96192300  0.37151300  0.00000000  1
