# generated using pymatgen
data_KV(CuS2)2
_symmetry_space_group_name_H-M   'P 1'
_cell_length_a   5.40475200
_cell_length_b   18.04623400
_cell_length_c   7.43462500
_cell_angle_alpha   90.00000000
_cell_angle_beta   90.00000000
_cell_angle_gamma   90.00000000
_symmetry_Int_Tables_number   1
_chemical_formula_structural   KV(CuS2)2
_chemical_formula_sum   'K4 V4 Cu8 S16'
_cell_volume   725.13926674
_cell_formula_units_Z   4
loop_
 _symmetry_equiv_pos_site_id
 _symmetry_equiv_pos_as_xyz
  1  'x, y, z'
loop_
 _atom_site_type_symbol
 _atom_site_label
 _atom_site_symmetry_multiplicity
 _atom_site_fract_x
 _atom_site_fract_y
 _atom_site_fract_z
 _atom_site_occupancy
  K  K0  1  0.73580650  0.81784550  0.75000000  1
  K  K1  1  0.23580650  0.68215450  0.25000000  1
  K  K2  1  0.23580650  0.31784550  0.75000000  1
  K  K3  1  0.73580650  0.18215450  0.25000000  1
  V  V4  1  0.47777400  0.60930100  0.75000000  1
  V  V5  1  0.97777400  0.89069900  0.25000000  1
  V  V6  1  0.97777400  0.10930100  0.75000000  1
  V  V7  1  0.47777400  0.39069900  0.25000000  1
  Cu  Cu8  1  0.99448500  0.00000000  0.50000000  1
  Cu  Cu9  1  0.99448500  0.00000000  0.00000000  1
  Cu  Cu10  1  0.97732200  0.60768300  0.75000000  1
  Cu  Cu11  1  0.47732200  0.89231700  0.25000000  1
  Cu  Cu12  1  0.49448500  0.50000000  0.50000000  1
  Cu  Cu13  1  0.49448500  0.50000000  0.00000000  1
  Cu  Cu14  1  0.47732200  0.10768300  0.75000000  1
  Cu  Cu15  1  0.97732200  0.39231700  0.25000000  1
  S  S16  1  0.21214450  0.89098250  0.49166400  1
  S  S17  1  0.71214450  0.60901750  0.50833600  1
  S  S18  1  0.24294400  0.70660800  0.75000000  1
  S  S19  1  0.74294400  0.79339200  0.25000000  1
  S  S20  1  0.24309850  0.50743750  0.75000000  1
  S  S21  1  0.74309850  0.99256250  0.25000000  1
  S  S22  1  0.21214450  0.89098250  0.00833600  1
  S  S23  1  0.71214450  0.60901750  0.99166400  1
  S  S24  1  0.71214450  0.39098250  0.49166400  1
  S  S25  1  0.21214450  0.10901750  0.50833600  1
  S  S26  1  0.74294400  0.20660800  0.75000000  1
  S  S27  1  0.24294400  0.29339200  0.25000000  1
  S  S28  1  0.74309850  0.00743750  0.75000000  1
  S  S29  1  0.24309850  0.49256250  0.25000000  1
  S  S30  1  0.71214450  0.39098250  0.00833600  1
  S  S31  1  0.21214450  0.10901750  0.99166400  1
