# generated using pymatgen
data_K3UO2F5
_symmetry_space_group_name_H-M   'P 1'
_cell_length_a   9.30299800
_cell_length_b   9.30299800
_cell_length_c   18.45072000
_cell_angle_alpha   90.00000000
_cell_angle_beta   90.00000000
_cell_angle_gamma   90.00000000
_symmetry_Int_Tables_number   1
_chemical_formula_structural   K3UO2F5
_chemical_formula_sum   'K24 U8 O16 F40'
_cell_volume   1596.83180244
_cell_formula_units_Z   8
loop_
 _symmetry_equiv_pos_site_id
 _symmetry_equiv_pos_as_xyz
  1  'x, y, z'
loop_
 _atom_site_type_symbol
 _atom_site_label
 _atom_site_symmetry_multiplicity
 _atom_site_fract_x
 _atom_site_fract_y
 _atom_site_fract_z
 _atom_site_occupancy
  K  K0  1  0.71622100  0.23393000  0.11384800  1
  K  K1  1  0.76607000  0.21622100  0.36384800  1
  K  K2  1  0.23393000  0.78377900  0.36384800  1
  K  K3  1  0.28377900  0.76607000  0.11384800  1
  K  K4  1  0.28377900  0.26607000  0.13615200  1
  K  K5  1  0.73393000  0.78377900  0.38615200  1
  K  K6  1  0.26607000  0.21622100  0.38615200  1
  K  K7  1  0.71622100  0.73393000  0.13615200  1
  K  K8  1  0.00000000  0.00000000  0.00000000  1
  K  K9  1  0.00000000  0.50000000  0.25000000  1
  K  K10  1  0.50000000  0.50000000  0.00000000  1
  K  K11  1  0.50000000  0.00000000  0.25000000  1
  K  K12  1  0.21622100  0.73393000  0.61384800  1
  K  K13  1  0.26607000  0.71622100  0.86384800  1
  K  K14  1  0.73393000  0.28377900  0.86384800  1
  K  K15  1  0.78377900  0.26607000  0.61384800  1
  K  K16  1  0.78377900  0.76607000  0.63615200  1
  K  K17  1  0.23393000  0.28377900  0.88615200  1
  K  K18  1  0.76607000  0.71622100  0.88615200  1
  K  K19  1  0.21622100  0.23393000  0.63615200  1
  K  K20  1  0.50000000  0.50000000  0.50000000  1
  K  K21  1  0.50000000  0.00000000  0.75000000  1
  K  K22  1  0.00000000  0.00000000  0.50000000  1
  K  K23  1  0.00000000  0.50000000  0.75000000  1
  U  U24  1  0.00000000  0.50000000  0.48073200  1
  U  U25  1  0.00000000  0.00000000  0.23073200  1
  U  U26  1  0.50000000  0.50000000  0.26926800  1
  U  U27  1  0.00000000  0.50000000  0.01926800  1
  U  U28  1  0.50000000  0.00000000  0.98073200  1
  U  U29  1  0.50000000  0.50000000  0.73073200  1
  U  U30  1  0.00000000  0.00000000  0.76926800  1
  U  U31  1  0.50000000  0.00000000  0.51926800  1
  O  O32  1  0.04465800  0.80581100  0.23026700  1
  O  O33  1  0.19418900  0.54465800  0.48026700  1
  O  O34  1  0.80581100  0.45534200  0.48026700  1
  O  O35  1  0.95534200  0.19418900  0.23026700  1
  O  O36  1  0.95534200  0.69418900  0.01973300  1
  O  O37  1  0.30581100  0.45534200  0.26973300  1
  O  O38  1  0.69418900  0.54465800  0.26973300  1
  O  O39  1  0.04465800  0.30581100  0.01973300  1
  O  O40  1  0.54465800  0.30581100  0.73026700  1
  O  O41  1  0.69418900  0.04465800  0.98026700  1
  O  O42  1  0.30581100  0.95534200  0.98026700  1
  O  O43  1  0.45534200  0.69418900  0.73026700  1
  O  O44  1  0.45534200  0.19418900  0.51973300  1
  O  O45  1  0.80581100  0.95534200  0.76973300  1
  O  O46  1  0.19418900  0.04465800  0.76973300  1
  O  O47  1  0.54465800  0.80581100  0.51973300  1
  F  F48  1  0.27142400  0.94800900  0.48003200  1
  F  F49  1  0.55199100  0.27142400  0.23003200  1
  F  F50  1  0.44800900  0.72857600  0.23003200  1
  F  F51  1  0.72857600  0.05199100  0.48003200  1
  F  F52  1  0.22857600  0.05199100  0.26996800  1
  F  F53  1  0.44800900  0.22857600  0.01996800  1
  F  F54  1  0.55199100  0.77142400  0.01996800  1
  F  F55  1  0.77142400  0.94800900  0.26996800  1
  F  F56  1  0.50000000  0.00000000  0.39501100  1
  F  F57  1  0.50000000  0.50000000  0.14501100  1
  F  F58  1  0.00000000  0.00000000  0.35498900  1
  F  F59  1  0.50000000  0.00000000  0.10498900  1
  F  F60  1  0.85760850  0.98025150  0.13157850  1
  F  F61  1  0.01974850  0.35760850  0.38157850  1
  F  F62  1  0.98025150  0.64239150  0.38157850  1
  F  F63  1  0.14239150  0.01974850  0.13157850  1
  F  F64  1  0.14239150  0.51974850  0.11842150  1
  F  F65  1  0.48025150  0.64239150  0.36842150  1
  F  F66  1  0.51974850  0.35760850  0.36842150  1
  F  F67  1  0.85760850  0.48025150  0.11842150  1
  F  F68  1  0.77142400  0.44800900  0.98003200  1
  F  F69  1  0.05199100  0.77142400  0.73003200  1
  F  F70  1  0.94800900  0.22857600  0.73003200  1
  F  F71  1  0.22857600  0.55199100  0.98003200  1
  F  F72  1  0.72857600  0.55199100  0.76996800  1
  F  F73  1  0.94800900  0.72857600  0.51996800  1
  F  F74  1  0.05199100  0.27142400  0.51996800  1
  F  F75  1  0.27142400  0.44800900  0.76996800  1
  F  F76  1  0.00000000  0.50000000  0.89501100  1
  F  F77  1  0.00000000  0.00000000  0.64501100  1
  F  F78  1  0.50000000  0.50000000  0.85498900  1
  F  F79  1  0.00000000  0.50000000  0.60498900  1
  F  F80  1  0.35760850  0.48025150  0.63157850  1
  F  F81  1  0.51974850  0.85760850  0.88157850  1
  F  F82  1  0.48025150  0.14239150  0.88157850  1
  F  F83  1  0.64239150  0.51974850  0.63157850  1
  F  F84  1  0.64239150  0.01974850  0.61842150  1
  F  F85  1  0.98025150  0.14239150  0.86842150  1
  F  F86  1  0.01974850  0.85760850  0.86842150  1
  F  F87  1  0.35760850  0.98025150  0.61842150  1
