# generated using pymatgen
data_Mg4Al9Cu(SiO4)9
_symmetry_space_group_name_H-M   'P 1'
_cell_length_a   9.83220700
_cell_length_b   9.47970900
_cell_length_c   9.88382226
_cell_angle_alpha   90.00000000
_cell_angle_beta   119.61569125
_cell_angle_gamma   90.00000000
_symmetry_Int_Tables_number   1
_chemical_formula_structural   Mg4Al9Cu(SiO4)9
_chemical_formula_sum   'Mg4 Al9 Cu1 Si9 O36'
_cell_volume   800.88546558
_cell_formula_units_Z   1
loop_
 _symmetry_equiv_pos_site_id
 _symmetry_equiv_pos_as_xyz
  1  'x, y, z'
loop_
 _atom_site_type_symbol
 _atom_site_label
 _atom_site_symmetry_multiplicity
 _atom_site_fract_x
 _atom_site_fract_y
 _atom_site_fract_z
 _atom_site_occupancy
  Mg  Mg0  1  0.33795600  0.25161700  0.67564100  1
  Mg  Mg1  1  0.33912800  0.74732800  0.67826500  1
  Mg  Mg2  1  0.66204400  0.25161700  0.32435900  1
  Mg  Mg3  1  0.66087200  0.74732800  0.32173500  1
  Al  Al4  1  0.25722300  0.49924900  0.89516000  1
  Al  Al5  1  0.50000000  0.74686600  0.00000000  1
  Al  Al6  1  0.64110900  0.99753900  0.89907300  1
  Al  Al7  1  0.50000000  0.25265900  0.50000000  1
  Al  Al8  1  0.50000000  0.74578300  0.50000000  1
  Al  Al9  1  0.00000000  0.24877700  0.50000000  1
  Al  Al10  1  0.00000000  0.74827300  0.50000000  1
  Al  Al11  1  0.35889100  0.99753900  0.10092700  1
  Al  Al12  1  0.74277700  0.49924900  0.10484000  1
  Cu  Cu13  1  0.00000000  0.98576900  0.00000000  1
  Si  Si14  1  0.09988100  0.99780400  0.72698200  1
  Si  Si15  1  0.62538500  0.49900400  0.72984300  1
  Si  Si16  1  0.11476900  0.49712200  0.38354500  1
  Si  Si17  1  0.73090000  0.99927300  0.61718200  1
  Si  Si18  1  0.26910000  0.99927300  0.38281800  1
  Si  Si19  1  0.88523100  0.49712200  0.61645500  1
  Si  Si20  1  0.37461500  0.49900400  0.27015700  1
  Si  Si21  1  0.90011900  0.99780400  0.27301800  1
  Si  Si22  1  0.50000000  0.25061700  0.00000000  1
  O  O23  1  0.18190700  0.99365300  0.91644500  1
  O  O24  1  0.05913000  0.48868600  0.76043200  1
  O  O25  1  0.34494800  0.64414600  0.86042300  1
  O  O26  1  0.35246900  0.34506100  0.87323900  1
  O  O27  1  0.52902300  0.15247900  0.87885500  1
  O  O28  1  0.51557800  0.85632400  0.86248900  1
  O  O29  1  0.13847600  0.14096000  0.65692200  1
  O  O30  1  0.13738100  0.85821800  0.65250200  1
  O  O31  1  0.70577100  0.49928300  0.91412800  1
  O  O32  1  0.72727700  0.00253200  0.77942800  1
  O  O33  1  0.14536600  0.35739300  0.49698100  1
  O  O34  1  0.14092100  0.64147500  0.48820400  1
  O  O35  1  0.51348600  0.35770100  0.65319100  1
  O  O36  1  0.51408300  0.63929900  0.65187300  1
  O  O37  1  0.35151400  0.14008100  0.49044900  1
  O  O38  1  0.35002500  0.85732800  0.48681500  1
  O  O39  1  0.75110800  0.49638900  0.66714800  1
  O  O40  1  0.08747200  0.99938200  0.34082700  1
  O  O41  1  0.91252800  0.99938200  0.65917300  1
  O  O42  1  0.24889200  0.49638900  0.33285200  1
  O  O43  1  0.64848600  0.14008100  0.50955100  1
  O  O44  1  0.64997500  0.85732800  0.51318500  1
  O  O45  1  0.48651400  0.35770100  0.34680900  1
  O  O46  1  0.48591700  0.63929900  0.34812700  1
  O  O47  1  0.85463400  0.35739300  0.50301900  1
  O  O48  1  0.85907900  0.64147500  0.51179600  1
  O  O49  1  0.27272300  0.00253200  0.22057200  1
  O  O50  1  0.29422900  0.49928300  0.08587200  1
  O  O51  1  0.86261900  0.85821800  0.34749800  1
  O  O52  1  0.86152400  0.14096000  0.34307800  1
  O  O53  1  0.47097700  0.15247900  0.12114500  1
  O  O54  1  0.48442200  0.85632400  0.13751100  1
  O  O55  1  0.64753100  0.34506100  0.12676100  1
  O  O56  1  0.65505200  0.64414600  0.13957700  1
  O  O57  1  0.94087000  0.48868600  0.23956800  1
  O  O58  1  0.81809300  0.99365300  0.08355500  1
