# generated using pymatgen
data_Ho2Zr2O7
_symmetry_space_group_name_H-M   'P 1'
_cell_length_a   3.60393200
_cell_length_b   7.51531500
_cell_length_c   10.61101000
_cell_angle_alpha   90.00000000
_cell_angle_beta   90.00000000
_cell_angle_gamma   90.00000000
_symmetry_Int_Tables_number   1
_chemical_formula_structural   Ho2Zr2O7
_chemical_formula_sum   'Ho4 Zr4 O14'
_cell_volume   287.39585509
_cell_formula_units_Z   2
loop_
 _symmetry_equiv_pos_site_id
 _symmetry_equiv_pos_as_xyz
  1  'x, y, z'
loop_
 _atom_site_type_symbol
 _atom_site_label
 _atom_site_symmetry_multiplicity
 _atom_site_fract_x
 _atom_site_fract_y
 _atom_site_fract_z
 _atom_site_occupancy
  Ho  Ho0  1  0.50000000  0.50000000  0.50000000  1
  Ho  Ho1  1  0.00000000  0.25000000  0.22567900  1
  Ho  Ho2  1  0.00000000  0.75000000  0.77432100  1
  Ho  Ho3  1  0.50000000  0.00000000  0.50000000  1
  Zr  Zr4  1  0.00000000  0.25000000  0.75507900  1
  Zr  Zr5  1  0.00000000  0.75000000  0.24492100  1
  Zr  Zr6  1  0.50000000  0.50000000  0.00000000  1
  Zr  Zr7  1  0.50000000  0.00000000  0.00000000  1
  O  O8  1  0.50000000  0.25000000  0.61949500  1
  O  O9  1  0.00000000  0.45641200  0.37089100  1
  O  O10  1  0.50000000  0.25000000  0.11172500  1
  O  O11  1  0.50000000  0.75000000  0.13237800  1
  O  O12  1  0.00000000  0.48122800  0.88053000  1
  O  O13  1  0.00000000  0.01877200  0.88053000  1
  O  O14  1  0.00000000  0.51877200  0.11947000  1
  O  O15  1  0.50000000  0.75000000  0.88827500  1
  O  O16  1  0.50000000  0.25000000  0.86762200  1
  O  O17  1  0.00000000  0.54358800  0.62910900  1
  O  O18  1  0.00000000  0.04358800  0.37089100  1
  O  O19  1  0.00000000  0.95641200  0.62910900  1
  O  O20  1  0.50000000  0.75000000  0.38050500  1
  O  O21  1  0.00000000  0.98122800  0.11947000  1
