# generated using pymatgen
data_Na2Ca(SO4)2
_symmetry_space_group_name_H-M   'P 1'
_cell_length_a   10.26181400
_cell_length_b   8.35825800
_cell_length_c   8.69985974
_cell_angle_alpha   90.00000000
_cell_angle_beta   112.22186851
_cell_angle_gamma   90.00000000
_symmetry_Int_Tables_number   1
_chemical_formula_structural   Na2Ca(SO4)2
_chemical_formula_sum   'Na8 Ca4 S8 O32'
_cell_volume   690.77206494
_cell_formula_units_Z   4
loop_
 _symmetry_equiv_pos_site_id
 _symmetry_equiv_pos_as_xyz
  1  'x, y, z'
loop_
 _atom_site_type_symbol
 _atom_site_label
 _atom_site_symmetry_multiplicity
 _atom_site_fract_x
 _atom_site_fract_y
 _atom_site_fract_z
 _atom_site_occupancy
  Na  Na0  1  0.85930400  0.55463900  0.56215900  1
  Na  Na1  1  0.14069600  0.44536100  0.43784100  1
  Na  Na2  1  0.14069600  0.55463900  0.93784100  1
  Na  Na3  1  0.85930400  0.44536100  0.06215900  1
  Na  Na4  1  0.35930400  0.05463900  0.56215900  1
  Na  Na5  1  0.64069600  0.94536100  0.43784100  1
  Na  Na6  1  0.64069600  0.05463900  0.93784100  1
  Na  Na7  1  0.35930400  0.94536100  0.06215900  1
  Ca  Ca8  1  0.00000000  0.93882700  0.25000000  1
  Ca  Ca9  1  0.00000000  0.06117300  0.75000000  1
  Ca  Ca10  1  0.50000000  0.43882700  0.25000000  1
  Ca  Ca11  1  0.50000000  0.56117300  0.75000000  1
  S  S12  1  0.18396000  0.21581500  0.18602700  1
  S  S13  1  0.81604000  0.78418500  0.81397300  1
  S  S14  1  0.81604000  0.21581500  0.31397300  1
  S  S15  1  0.18396000  0.78418500  0.68602700  1
  S  S16  1  0.68396000  0.71581500  0.18602700  1
  S  S17  1  0.31604000  0.28418500  0.81397300  1
  S  S18  1  0.31604000  0.71581500  0.31397300  1
  S  S19  1  0.68396000  0.28418500  0.68602700  1
  O  O20  1  0.88975400  0.62872400  0.86874300  1
  O  O21  1  0.11024600  0.62872400  0.63125700  1
  O  O22  1  0.11024600  0.37127600  0.13125700  1
  O  O23  1  0.88975400  0.37127600  0.36874300  1
  O  O24  1  0.83705250  0.83688650  0.65990200  1
  O  O25  1  0.16294750  0.83688650  0.84009800  1
  O  O26  1  0.16294750  0.16311350  0.34009800  1
  O  O27  1  0.83705250  0.16311350  0.15990200  1
  O  O28  1  0.16268200  0.26796100  0.77672800  1
  O  O29  1  0.83731800  0.26796100  0.72327200  1
  O  O30  1  0.37587050  0.58746250  0.44075200  1
  O  O31  1  0.62412950  0.58746250  0.05924800  1
  O  O32  1  0.62412950  0.41253750  0.55924800  1
  O  O33  1  0.37587050  0.41253750  0.94075200  1
  O  O34  1  0.16268200  0.73203900  0.27672800  1
  O  O35  1  0.83731800  0.73203900  0.22327200  1
  O  O36  1  0.38975400  0.12872400  0.86874300  1
  O  O37  1  0.61024600  0.12872400  0.63125700  1
  O  O38  1  0.61024600  0.87127600  0.13125700  1
  O  O39  1  0.38975400  0.87127600  0.36874300  1
  O  O40  1  0.33705250  0.33688650  0.65990200  1
  O  O41  1  0.66294750  0.33688650  0.84009800  1
  O  O42  1  0.66294750  0.66311350  0.34009800  1
  O  O43  1  0.33705250  0.66311350  0.15990200  1
  O  O44  1  0.66268200  0.76796100  0.77672800  1
  O  O45  1  0.33731800  0.76796100  0.72327200  1
  O  O46  1  0.87587050  0.08746250  0.44075200  1
  O  O47  1  0.12412950  0.08746250  0.05924800  1
  O  O48  1  0.12412950  0.91253750  0.55924800  1
  O  O49  1  0.87587050  0.91253750  0.94075200  1
  O  O50  1  0.66268200  0.23203900  0.27672800  1
  O  O51  1  0.33731800  0.23203900  0.22327200  1
