# generated using pymatgen
data_TaTi9Al3Zn23O48
_symmetry_space_group_name_H-M   'P 1'
_cell_length_a   5.98667200
_cell_length_b   6.05445960
_cell_length_c   29.68655908
_cell_angle_alpha   90.79056677
_cell_angle_beta   90.04529381
_cell_angle_gamma   119.54506185
_symmetry_Int_Tables_number   1
_chemical_formula_structural   TaTi9Al3Zn23O48
_chemical_formula_sum   'Ta1 Ti9 Al3 Zn23 O48'
_cell_volume   935.97914191
_cell_formula_units_Z   1
loop_
 _symmetry_equiv_pos_site_id
 _symmetry_equiv_pos_as_xyz
  1  'x, y, z'
loop_
 _atom_site_type_symbol
 _atom_site_label
 _atom_site_symmetry_multiplicity
 _atom_site_fract_x
 _atom_site_fract_y
 _atom_site_fract_z
 _atom_site_occupancy
  Ta  Ta0  1  0.50097700  0.00163000  0.43846800  1
  Ti  Ti1  1  0.65966400  0.31649400  0.01681600  1
  Ti  Ti2  1  0.82719500  0.65496200  0.09916200  1
  Ti  Ti3  1  0.99159600  0.98298600  0.18371100  1
  Ti  Ti4  1  0.16101100  0.32195000  0.26636500  1
  Ti  Ti5  1  0.32553700  0.65125600  0.35086200  1
  Ti  Ti6  1  0.67518700  0.35271900  0.52581900  1
  Ti  Ti7  1  0.16556600  0.83065700  0.77146500  1
  Ti  Ti8  1  0.99757500  0.00714200  0.68628300  1
  Ti  Ti9  1  0.33804700  0.66119500  0.85640000  1
  Al  Al10  1  0.83635800  0.66904400  0.60701200  1
  Al  Al11  1  0.16775200  0.33355400  0.77081400  1
  Al  Al12  1  0.49744700  0.99934100  0.93580900  1
  Zn  Zn13  1  0.99372400  0.98773300  0.00165700  1
  Zn  Zn14  1  0.32465700  0.64875800  0.16875400  1
  Zn  Zn15  1  0.34504400  0.68998700  0.03597700  1
  Zn  Zn16  1  0.33474800  0.16882600  0.10408500  1
  Zn  Zn17  1  0.83390900  0.16871100  0.10415400  1
  Zn  Zn18  1  0.65824400  0.31588800  0.33356800  1
  Zn  Zn19  1  0.67717500  0.35492500  0.20536900  1
  Zn  Zn20  1  0.66842700  0.83553600  0.27078000  1
  Zn  Zn21  1  0.16702400  0.83544900  0.27078100  1
  Zn  Zn22  1  0.98756200  0.97532000  0.50621800  1
  Zn  Zn23  1  0.00983500  0.02021500  0.37237800  1
  Zn  Zn24  1  0.00005400  0.50035100  0.43766200  1
  Zn  Zn25  1  0.50036600  0.50038900  0.43760200  1
  Zn  Zn26  1  0.32511800  0.66044300  0.66908500  1
  Zn  Zn27  1  0.33958400  0.67898400  0.54244800  1
  Zn  Zn28  1  0.33380500  0.16084000  0.60545400  1
  Zn  Zn29  1  0.83079800  0.16400700  0.60471500  1
  Zn  Zn30  1  0.67782900  0.34147900  0.70545400  1
  Zn  Zn31  1  0.66629100  0.83256500  0.77091600  1
  Zn  Zn32  1  0.00851100  0.00593300  0.87297000  1
  Zn  Zn33  1  0.99871600  0.50427200  0.93723300  1
  Zn  Zn34  1  0.65322600  0.32557100  0.83676000  1
  Zn  Zn35  1  0.50202000  0.50085300  0.93813000  1
  O  O36  1  0.52186000  0.04393300  0.06096200  1
  O  O37  1  0.67939400  0.35889400  0.13946600  1
  O  O38  1  0.52777000  0.50804000  0.06178800  1
  O  O39  1  0.97998900  0.50738400  0.06171600  1
  O  O40  1  0.68956100  0.82900600  0.14702000  1
  O  O41  1  0.85568000  0.71164300  0.22806900  1
  O  O42  1  0.01242200  0.02515200  0.30645500  1
  O  O43  1  0.13921100  0.82866900  0.14707800  1
  O  O44  1  0.86225300  0.17565300  0.22892700  1
  O  O45  1  0.98966400  0.97930800  0.06931300  1
  O  O46  1  0.14647100  0.29267600  0.14823300  1
  O  O47  1  0.31330900  0.17522500  0.22896400  1
  O  O48  1  0.02390800  0.49589900  0.31365400  1
  O  O49  1  0.18923100  0.37880600  0.39505500  1
  O  O50  1  0.34298900  0.68596800  0.47488800  1
  O  O51  1  0.32303200  0.64582000  0.23606300  1
  O  O52  1  0.19476700  0.84031600  0.39598800  1
  O  O53  1  0.47160500  0.49542700  0.31370800  1
  O  O54  1  0.64542500  0.83999800  0.39602200  1
  O  O55  1  0.47926200  0.95828400  0.31471900  1
  O  O56  1  0.52024700  0.04128700  0.55864900  1
  O  O57  1  0.35151100  0.16048200  0.47972700  1
  O  O58  1  0.68076500  0.35725800  0.63865500  1
  O  O59  1  0.65642700  0.31289200  0.40070400  1
  O  O60  1  0.53601800  0.51165000  0.56375400  1
  O  O61  1  0.80870800  0.16000700  0.47965900  1
  O  O62  1  0.97582600  0.51096000  0.56346100  1
  O  O63  1  0.81060900  0.62109300  0.48040500  1
  O  O64  1  0.86880000  0.70008800  0.73021900  1
  O  O65  1  0.69322200  0.82595900  0.64839200  1
  O  O66  1  0.02318800  0.02142600  0.80484300  1
  O  O67  1  0.98543800  0.97407300  0.57235300  1
  O  O68  1  0.13374900  0.82849400  0.64676600  1
  O  O69  1  0.86945000  0.16580300  0.73094900  1
  O  O70  1  0.15219500  0.29816500  0.65081400  1
  O  O71  1  0.30760900  0.15153700  0.73240800  1
  O  O72  1  0.02449200  0.51624700  0.80899400  1
  O  O73  1  0.18121900  0.36815400  0.89075800  1
  O  O74  1  0.34796700  0.69307200  0.96944000  1
  O  O75  1  0.31030000  0.64515900  0.73675500  1
  O  O76  1  0.46338800  0.50149200  0.81066200  1
  O  O77  1  0.20082500  0.83869000  0.89481600  1
  O  O78  1  0.46537600  0.96816400  0.81118500  1
  O  O79  1  0.64112300  0.84102600  0.89333400  1
  O  O80  1  0.35737300  0.15722900  0.97857300  1
  O  O81  1  0.79879200  0.15666100  0.97830200  1
  O  O82  1  0.65270800  0.30915700  0.90324100  1
  O  O83  1  0.81429200  0.62771100  0.98295600  1
