# generated using pymatgen
data_Ca2GaFeO5
_symmetry_space_group_name_H-M   'P 1'
_cell_length_a   5.48166900
_cell_length_b   5.68694200
_cell_length_c   14.73629300
_cell_angle_alpha   90.00000000
_cell_angle_beta   90.00000000
_cell_angle_gamma   90.00000000
_symmetry_Int_Tables_number   1
_chemical_formula_structural   Ca2GaFeO5
_chemical_formula_sum   'Ca8 Ga4 Fe4 O20'
_cell_volume   459.38822047
_cell_formula_units_Z   4
loop_
 _symmetry_equiv_pos_site_id
 _symmetry_equiv_pos_as_xyz
  1  'x, y, z'
loop_
 _atom_site_type_symbol
 _atom_site_label
 _atom_site_symmetry_multiplicity
 _atom_site_fract_x
 _atom_site_fract_y
 _atom_site_fract_z
 _atom_site_occupancy
  Ca  Ca0  1  0.97925000  0.02848700  0.89158300  1
  Ca  Ca1  1  0.52075000  0.52848700  0.39158300  1
  Ca  Ca2  1  0.52075000  0.52848700  0.10841700  1
  Ca  Ca3  1  0.47925000  0.47151300  0.89158300  1
  Ca  Ca4  1  0.47925000  0.47151300  0.60841700  1
  Ca  Ca5  1  0.02075000  0.97151300  0.39158300  1
  Ca  Ca6  1  0.02075000  0.97151300  0.10841700  1
  Ca  Ca7  1  0.97925000  0.02848700  0.60841700  1
  Ga  Ga8  1  0.45177600  0.92921200  0.75000000  1
  Ga  Ga9  1  0.04822400  0.42921200  0.25000000  1
  Ga  Ga10  1  0.95177600  0.57078800  0.75000000  1
  Ga  Ga11  1  0.54822400  0.07078800  0.25000000  1
  Fe  Fe12  1  0.50000000  0.00000000  0.00000000  1
  Fe  Fe13  1  0.50000000  0.00000000  0.50000000  1
  Fe  Fe14  1  0.00000000  0.50000000  0.50000000  1
  Fe  Fe15  1  0.00000000  0.50000000  0.00000000  1
  O  O16  1  0.39459100  0.37291700  0.25000000  1
  O  O17  1  0.26273600  0.26396700  0.48480200  1
  O  O18  1  0.23726400  0.76396700  0.98480200  1
  O  O19  1  0.53271000  0.07460400  0.85721400  1
  O  O20  1  0.73726400  0.73603300  0.98480200  1
  O  O21  1  0.76273600  0.23603300  0.01519800  1
  O  O22  1  0.76273600  0.23603300  0.48480200  1
  O  O23  1  0.96729000  0.57460400  0.14278600  1
  O  O24  1  0.89459100  0.12708300  0.25000000  1
  O  O25  1  0.10540900  0.87291700  0.75000000  1
  O  O26  1  0.73726400  0.73603300  0.51519800  1
  O  O27  1  0.46729000  0.92539600  0.14278600  1
  O  O28  1  0.53271000  0.07460400  0.64278600  1
  O  O29  1  0.60540900  0.62708300  0.75000000  1
  O  O30  1  0.23726400  0.76396700  0.51519800  1
  O  O31  1  0.96729000  0.57460400  0.35721400  1
  O  O32  1  0.03271000  0.42539600  0.85721400  1
  O  O33  1  0.26273600  0.26396700  0.01519800  1
  O  O34  1  0.46729000  0.92539600  0.35721400  1
  O  O35  1  0.03271000  0.42539600  0.64278600  1
