# generated using pymatgen
data_Pr2PbSe4
_symmetry_space_group_name_H-M   'P 1'
_cell_length_a   9.10184400
_cell_length_b   9.10184400
_cell_length_c   9.10242800
_cell_angle_alpha   90.00000000
_cell_angle_beta   90.00000000
_cell_angle_gamma   90.00000000
_symmetry_Int_Tables_number   1
_chemical_formula_structural   Pr2PbSe4
_chemical_formula_sum   'Pr8 Pb4 Se16'
_cell_volume   754.07757840
_cell_formula_units_Z   4
loop_
 _symmetry_equiv_pos_site_id
 _symmetry_equiv_pos_as_xyz
  1  'x, y, z'
loop_
 _atom_site_type_symbol
 _atom_site_label
 _atom_site_symmetry_multiplicity
 _atom_site_fract_x
 _atom_site_fract_y
 _atom_site_fract_z
 _atom_site_occupancy
  Pr  Pr0  1  0.75000000  0.36792700  0.37500000  1
  Pr  Pr1  1  0.13207300  0.25000000  0.12500000  1
  Pr  Pr2  1  0.75000000  0.13207300  0.87500000  1
  Pr  Pr3  1  0.36792700  0.25000000  0.62500000  1
  Pr  Pr4  1  0.25000000  0.86792700  0.87500000  1
  Pr  Pr5  1  0.63207300  0.75000000  0.62500000  1
  Pr  Pr6  1  0.25000000  0.63207300  0.37500000  1
  Pr  Pr7  1  0.86792700  0.75000000  0.12500000  1
  Pb  Pb8  1  0.00000000  0.00000000  0.50000000  1
  Pb  Pb9  1  0.50000000  0.00000000  0.25000000  1
  Pb  Pb10  1  0.50000000  0.50000000  0.00000000  1
  Pb  Pb11  1  0.00000000  0.50000000  0.75000000  1
  Se  Se12  1  0.32670100  0.57501900  0.69284700  1
  Se  Se13  1  0.07501900  0.32670100  0.44284700  1
  Se  Se14  1  0.07501900  0.17329900  0.80715300  1
  Se  Se15  1  0.42498100  0.32670100  0.30715300  1
  Se  Se16  1  0.42498100  0.17329900  0.94284700  1
  Se  Se17  1  0.17329900  0.57501900  0.05715300  1
  Se  Se18  1  0.32670100  0.92498100  0.55715300  1
  Se  Se19  1  0.17329900  0.92498100  0.19284700  1
  Se  Se20  1  0.82670100  0.07501900  0.19284700  1
  Se  Se21  1  0.57501900  0.82670100  0.94284700  1
  Se  Se22  1  0.57501900  0.67329900  0.30715300  1
  Se  Se23  1  0.92498100  0.82670100  0.80715300  1
  Se  Se24  1  0.92498100  0.67329900  0.44284700  1
  Se  Se25  1  0.67329900  0.07501900  0.55715300  1
  Se  Se26  1  0.82670100  0.42498100  0.05715300  1
  Se  Se27  1  0.67329900  0.42498100  0.69284700  1
