# generated using pymatgen
data_K6U4O15
_symmetry_space_group_name_H-M   'P 1'
_cell_length_a   8.90980200
_cell_length_b   12.50190000
_cell_length_c   25.00253000
_cell_angle_alpha   90.00000000
_cell_angle_beta   90.00000000
_cell_angle_gamma   90.00000000
_symmetry_Int_Tables_number   1
_chemical_formula_structural   K6U4O15
_chemical_formula_sum   'K36 U24 O90'
_cell_volume   2785.01815591
_cell_formula_units_Z   6
loop_
 _symmetry_equiv_pos_site_id
 _symmetry_equiv_pos_as_xyz
  1  'x, y, z'
loop_
 _atom_site_type_symbol
 _atom_site_label
 _atom_site_symmetry_multiplicity
 _atom_site_fract_x
 _atom_site_fract_y
 _atom_site_fract_z
 _atom_site_occupancy
  K  K0  1  0.50000000  0.74987200  0.00000000  1
  K  K1  1  0.00000000  0.00000000  0.88022300  1
  K  K2  1  0.25000000  0.25000000  0.87493000  1
  K  K3  1  0.50000000  0.25012800  0.00000000  1
  K  K4  1  0.50882700  0.25888200  0.74693900  1
  K  K5  1  0.50000000  0.00000000  0.62061900  1
  K  K6  1  0.49117300  0.74111800  0.74693900  1
  K  K7  1  0.50000000  0.00000000  0.88431900  1
  K  K8  1  0.50000000  0.75879900  0.50000000  1
  K  K9  1  0.00000000  0.00000000  0.37064800  1
  K  K10  1  0.50000000  0.24120100  0.50000000  1
  K  K11  1  0.00000000  0.00000000  0.62935200  1
  K  K12  1  0.50000000  0.00000000  0.11568100  1
  K  K13  1  0.49117300  0.25888200  0.25306100  1
  K  K14  1  0.25000000  0.75000000  0.12507000  1
  K  K15  1  0.50000000  0.00000000  0.37938100  1
  K  K16  1  0.50882700  0.74111800  0.25306100  1
  K  K17  1  0.00000000  0.00000000  0.11977700  1
  K  K18  1  0.00000000  0.24987200  0.00000000  1
  K  K19  1  0.50000000  0.50000000  0.88022300  1
  K  K20  1  0.75000000  0.75000000  0.87493000  1
  K  K21  1  0.00000000  0.75012800  0.00000000  1
  K  K22  1  0.00882700  0.75888200  0.74693900  1
  K  K23  1  0.00000000  0.50000000  0.62061900  1
  K  K24  1  0.99117300  0.24111800  0.74693900  1
  K  K25  1  0.00000000  0.50000000  0.88431900  1
  K  K26  1  0.00000000  0.25879900  0.50000000  1
  K  K27  1  0.50000000  0.50000000  0.37064800  1
  K  K28  1  0.00000000  0.74120100  0.50000000  1
  K  K29  1  0.50000000  0.50000000  0.62935200  1
  K  K30  1  0.00000000  0.50000000  0.11568100  1
  K  K31  1  0.99117300  0.75888200  0.25306100  1
  K  K32  1  0.75000000  0.25000000  0.12507000  1
  K  K33  1  0.00000000  0.50000000  0.37938100  1
  K  K34  1  0.00882700  0.24111800  0.25306100  1
  K  K35  1  0.50000000  0.50000000  0.11977700  1
  U  U36  1  0.24275750  0.99904550  0.74930200  1
  U  U37  1  0.24949700  0.00000000  0.00000000  1
  U  U38  1  0.25000000  0.75000000  0.87510200  1
  U  U39  1  0.74315800  0.00000000  0.50000000  1
  U  U40  1  0.75724250  0.00095450  0.74930200  1
  U  U41  1  0.75050300  0.00000000  0.00000000  1
  U  U42  1  0.25000000  0.25000000  0.62492100  1
  U  U43  1  0.25684200  0.00000000  0.50000000  1
  U  U44  1  0.25000000  0.75000000  0.37507900  1
  U  U45  1  0.75724250  0.99904550  0.25069800  1
  U  U46  1  0.25000000  0.25000000  0.12489800  1
  U  U47  1  0.24275750  0.00095450  0.25069800  1
  U  U48  1  0.74275750  0.49904550  0.74930200  1
  U  U49  1  0.74949700  0.50000000  0.00000000  1
  U  U50  1  0.75000000  0.25000000  0.87510200  1
  U  U51  1  0.24315800  0.50000000  0.50000000  1
  U  U52  1  0.25724250  0.50095450  0.74930200  1
  U  U53  1  0.25050300  0.50000000  0.00000000  1
  U  U54  1  0.75000000  0.75000000  0.62492100  1
  U  U55  1  0.75684200  0.50000000  0.50000000  1
  U  U56  1  0.75000000  0.25000000  0.37507900  1
  U  U57  1  0.25724250  0.49904550  0.25069800  1
  U  U58  1  0.75000000  0.75000000  0.12489800  1
  U  U59  1  0.74275750  0.50095450  0.25069800  1
  O  O60  1  0.74983450  0.89363850  0.94581600  1
  O  O61  1  0.74963950  0.87464550  0.06402600  1
  O  O62  1  0.00000000  0.00000000  0.00000000  1
  O  O63  1  0.26120200  0.10569400  0.80183000  1
  O  O64  1  0.25016550  0.89363850  0.05418400  1
  O  O65  1  0.26006600  0.89362600  0.69634400  1
  O  O66  1  0.25036050  0.87464550  0.93597400  1
  O  O67  1  0.26131850  0.87879650  0.80869300  1
  O  O68  1  0.25036050  0.12535450  0.06402600  1
  O  O69  1  0.25016550  0.10636150  0.94581600  1
  O  O70  1  0.76047650  0.10516750  0.55256000  1
  O  O71  1  0.53737250  0.25169450  0.87235900  1
  O  O72  1  0.46262750  0.74830550  0.87235900  1
  O  O73  1  0.76047650  0.89483250  0.44744000  1
  O  O74  1  0.50000000  0.00000000  0.00000000  1
  O  O75  1  0.74963950  0.12535450  0.93597400  1
  O  O76  1  0.76043100  0.87843100  0.56079500  1
  O  O77  1  0.73956950  0.87883350  0.68871400  1
  O  O78  1  0.73868150  0.12120350  0.80869300  1
  O  O79  1  0.73993400  0.10637400  0.69634400  1
  O  O80  1  0.74983450  0.10636150  0.05418400  1
  O  O81  1  0.54038750  0.75001350  0.62520100  1
  O  O82  1  0.26120200  0.89430600  0.19817000  1
  O  O83  1  0.45961250  0.24998650  0.62520100  1
  O  O84  1  0.73879800  0.89430600  0.80183000  1
  O  O85  1  0.23956900  0.87843100  0.43920500  1
  O  O86  1  0.00000000  0.00000000  0.74877300  1
  O  O87  1  0.26043050  0.12116650  0.68871400  1
  O  O88  1  0.26043050  0.87883350  0.31128600  1
  O  O89  1  0.23956900  0.12156900  0.56079500  1
  O  O90  1  0.23952350  0.10516750  0.44744000  1
  O  O91  1  0.54038750  0.24998650  0.37479900  1
  O  O92  1  0.45961250  0.75001350  0.37479900  1
  O  O93  1  0.73993400  0.89362600  0.30365600  1
  O  O94  1  0.23952350  0.89483250  0.55256000  1
  O  O95  1  0.76043100  0.12156900  0.43920500  1
  O  O96  1  0.73868150  0.87879650  0.19130700  1
  O  O97  1  0.50000000  0.00000000  0.50000000  1
  O  O98  1  0.73956950  0.12116650  0.31128600  1
  O  O99  1  0.73879800  0.10569400  0.19817000  1
  O  O100  1  0.53737250  0.74830550  0.12764100  1
  O  O101  1  0.46262750  0.25169450  0.12764100  1
  O  O102  1  0.26131850  0.12120350  0.19130700  1
  O  O103  1  0.00000000  0.00000000  0.25122700  1
  O  O104  1  0.26006600  0.10637400  0.30365600  1
  O  O105  1  0.24983450  0.39363850  0.94581600  1
  O  O106  1  0.24963950  0.37464550  0.06402600  1
  O  O107  1  0.50000000  0.50000000  0.00000000  1
  O  O108  1  0.76120200  0.60569400  0.80183000  1
  O  O109  1  0.75016550  0.39363850  0.05418400  1
  O  O110  1  0.76006600  0.39362600  0.69634400  1
  O  O111  1  0.75036050  0.37464550  0.93597400  1
  O  O112  1  0.76131850  0.37879650  0.80869300  1
  O  O113  1  0.75036050  0.62535450  0.06402600  1
  O  O114  1  0.75016550  0.60636150  0.94581600  1
  O  O115  1  0.26047650  0.60516750  0.55256000  1
  O  O116  1  0.03737250  0.75169450  0.87235900  1
  O  O117  1  0.96262750  0.24830550  0.87235900  1
  O  O118  1  0.26047650  0.39483250  0.44744000  1
  O  O119  1  0.00000000  0.50000000  0.00000000  1
  O  O120  1  0.24963950  0.62535450  0.93597400  1
  O  O121  1  0.26043100  0.37843100  0.56079500  1
  O  O122  1  0.23956950  0.37883350  0.68871400  1
  O  O123  1  0.23868150  0.62120350  0.80869300  1
  O  O124  1  0.23993400  0.60637400  0.69634400  1
  O  O125  1  0.24983450  0.60636150  0.05418400  1
  O  O126  1  0.04038750  0.25001350  0.62520100  1
  O  O127  1  0.76120200  0.39430600  0.19817000  1
  O  O128  1  0.95961250  0.74998650  0.62520100  1
  O  O129  1  0.23879800  0.39430600  0.80183000  1
  O  O130  1  0.73956900  0.37843100  0.43920500  1
  O  O131  1  0.50000000  0.50000000  0.74877300  1
  O  O132  1  0.76043050  0.62116650  0.68871400  1
  O  O133  1  0.76043050  0.37883350  0.31128600  1
  O  O134  1  0.73956900  0.62156900  0.56079500  1
  O  O135  1  0.73952350  0.60516750  0.44744000  1
  O  O136  1  0.04038750  0.74998650  0.37479900  1
  O  O137  1  0.95961250  0.25001350  0.37479900  1
  O  O138  1  0.23993400  0.39362600  0.30365600  1
  O  O139  1  0.73952350  0.39483250  0.55256000  1
  O  O140  1  0.26043100  0.62156900  0.43920500  1
  O  O141  1  0.23868150  0.37879650  0.19130700  1
  O  O142  1  0.00000000  0.50000000  0.50000000  1
  O  O143  1  0.23956950  0.62116650  0.31128600  1
  O  O144  1  0.23879800  0.60569400  0.19817000  1
  O  O145  1  0.03737250  0.24830550  0.12764100  1
  O  O146  1  0.96262750  0.75169450  0.12764100  1
  O  O147  1  0.76131850  0.62120350  0.19130700  1
  O  O148  1  0.50000000  0.50000000  0.25122700  1
  O  O149  1  0.76006600  0.60637400  0.30365600  1
