# generated using pymatgen
data_LiHO
_symmetry_space_group_name_H-M   'P 1'
_cell_length_a   5.02699400
_cell_length_b   5.04561600
_cell_length_c   4.55612900
_cell_angle_alpha   90.00000000
_cell_angle_beta   90.00000000
_cell_angle_gamma   90.00000000
_symmetry_Int_Tables_number   1
_chemical_formula_structural   LiHO
_chemical_formula_sum   'Li4 H4 O4'
_cell_volume   115.56293786
_cell_formula_units_Z   4
loop_
 _symmetry_equiv_pos_site_id
 _symmetry_equiv_pos_as_xyz
  1  'x, y, z'
loop_
 _atom_site_type_symbol
 _atom_site_label
 _atom_site_symmetry_multiplicity
 _atom_site_fract_x
 _atom_site_fract_y
 _atom_site_fract_z
 _atom_site_occupancy
  Li  Li0  1  0.46007300  0.00000000  0.50000000  1
  Li  Li1  1  0.96007300  0.00000000  0.50000000  1
  Li  Li2  1  0.96007300  0.50000000  0.50000000  1
  Li  Li3  1  0.46007300  0.50000000  0.50000000  1
  H  H4  1  0.67044200  0.75000000  0.10306100  1
  H  H5  1  0.67044200  0.25000000  0.89693900  1
  H  H6  1  0.17044200  0.25000000  0.10306100  1
  H  H7  1  0.17044200  0.75000000  0.89693900  1
  O  O8  1  0.70834200  0.75000000  0.31016100  1
  O  O9  1  0.70834200  0.25000000  0.68983900  1
  O  O10  1  0.20834200  0.25000000  0.31016100  1
  O  O11  1  0.20834200  0.75000000  0.68983900  1
