# generated using pymatgen
data_Ba(H8O5)2
_symmetry_space_group_name_H-M   'P 1'
_cell_length_a   6.44083900
_cell_length_b   6.46244501
_cell_length_c   11.93314636
_cell_angle_alpha   91.61648362
_cell_angle_beta   90.60817084
_cell_angle_gamma   91.62689177
_symmetry_Int_Tables_number   1
_chemical_formula_structural   Ba(H8O5)2
_chemical_formula_sum   'Ba2 H32 O20'
_cell_volume   496.26993185
_cell_formula_units_Z   2
loop_
 _symmetry_equiv_pos_site_id
 _symmetry_equiv_pos_as_xyz
  1  'x, y, z'
loop_
 _atom_site_type_symbol
 _atom_site_label
 _atom_site_symmetry_multiplicity
 _atom_site_fract_x
 _atom_site_fract_y
 _atom_site_fract_z
 _atom_site_occupancy
  Ba  Ba0  1  0.99797500  0.01213800  0.49220100  1
  Ba  Ba1  1  0.01221600  0.99249900  0.99395500  1
  H  H2  1  0.59756200  0.27721000  0.39526900  1
  H  H3  1  0.53848500  0.04131600  0.36587400  1
  H  H4  1  0.27329800  0.78192200  0.29404200  1
  H  H5  1  0.39900700  0.71246100  0.40198900  1
  H  H6  1  0.71164700  0.60776800  0.40180100  1
  H  H7  1  0.80644300  0.71284500  0.29185000  1
  H  H8  1  0.26834300  0.40349000  0.39777800  1
  H  H9  1  0.03709500  0.46708200  0.37115300  1
  H  H10  1  0.71318600  0.80620000  0.79130000  1
  H  H11  1  0.60759000  0.70841100  0.90048400  1
  H  H12  1  0.40280000  0.26663000  0.89465900  1
  H  H13  1  0.46550100  0.03517100  0.87010200  1
  H  H14  1  0.80516400  0.26602500  0.79855500  1
  H  H15  1  0.72425300  0.39350800  0.90450500  1
  H  H16  1  0.28551200  0.59665700  0.89492700  1
  H  H17  1  0.05077500  0.53431600  0.86738300  1
  H  H18  1  0.40194200  0.72911100  0.60818800  1
  H  H19  1  0.31549800  0.88144200  0.70502800  1
  H  H20  1  0.61005500  0.29185000  0.60590400  1
  H  H21  1  0.56558200  0.05736100  0.63192500  1
  H  H22  1  0.07250500  0.38600800  0.68342500  1
  H  H23  1  0.28411600  0.40142300  0.61257400  1
  H  H24  1  0.95204200  0.64408200  0.66356300  1
  H  H25  1  0.71397500  0.62319100  0.61429900  1
  H  H26  1  0.37783100  0.07746200  0.18383600  1
  H  H27  1  0.40226400  0.28260300  0.10991100  1
  H  H28  1  0.63644500  0.94853300  0.16624300  1
  H  H29  1  0.62214300  0.71338100  0.11200800  1
  H  H30  1  0.06029800  0.56700900  0.13535100  1
  H  H31  1  0.29604200  0.60901400  0.10715400  1
  H  H32  1  0.72968000  0.40415100  0.10856800  1
  H  H33  1  0.87285300  0.31956200  0.20728900  1
  O  O34  1  0.50448000  0.51081800  0.44552900  1
  O  O35  1  0.51909000  0.49770500  0.94389800  1
  O  O36  1  0.50578600  0.51478500  0.57088900  1
  O  O37  1  0.51651400  0.50332000  0.06919000  1
  O  O38  1  0.65408500  0.14497000  0.36238200  1
  O  O39  1  0.33258000  0.83823800  0.36536700  1
  O  O40  1  0.84627300  0.66773300  0.36738300  1
  O  O41  1  0.12822000  0.34637000  0.37275200  1
  O  O42  1  0.66552800  0.84406800  0.86736200  1
  O  O43  1  0.34490700  0.12657700  0.86960400  1
  O  O44  1  0.85555600  0.32773200  0.87100900  1
  O  O45  1  0.15262500  0.65155000  0.86373800  1
  O  O46  1  0.34044000  0.87145400  0.62492300  1
  O  O47  1  0.68024200  0.16309600  0.63142500  1
  O  O48  1  0.15406900  0.31545800  0.62730100  1
  O  O49  1  0.82837500  0.72273800  0.64798800  1
  O  O50  1  0.31468700  0.15399800  0.12462800  1
  O  O51  1  0.71937500  0.82857100  0.14639800  1
  O  O52  1  0.16786400  0.68024900  0.13549000  1
  O  O53  1  0.87194400  0.34539900  0.12756400  1
