# generated using pymatgen
data_CuH36C8(N5O4)2
_symmetry_space_group_name_H-M   'P 1'
_cell_length_a   23.94945600
_cell_length_b   7.04145000
_cell_length_c   13.45240854
_cell_angle_alpha   90.00000000
_cell_angle_beta   105.71461035
_cell_angle_gamma   90.00000000
_symmetry_Int_Tables_number   1
_chemical_formula_structural   CuH36C8(N5O4)2
_chemical_formula_sum   'Cu4 H144 C32 N40 O32'
_cell_volume   2183.80524813
_cell_formula_units_Z   4
loop_
 _symmetry_equiv_pos_site_id
 _symmetry_equiv_pos_as_xyz
  1  'x, y, z'
loop_
 _atom_site_type_symbol
 _atom_site_label
 _atom_site_symmetry_multiplicity
 _atom_site_fract_x
 _atom_site_fract_y
 _atom_site_fract_z
 _atom_site_occupancy
  Cu  Cu0  1  0.00000000  0.69796700  0.75000000  1
  Cu  Cu1  1  0.00000000  0.30203300  0.25000000  1
  Cu  Cu2  1  0.50000000  0.19796700  0.75000000  1
  Cu  Cu3  1  0.50000000  0.80203300  0.25000000  1
  H  H4  1  0.92445600  0.69039800  0.15148600  1
  H  H5  1  0.57554400  0.19039800  0.34851400  1
  H  H6  1  0.57554400  0.80960200  0.84851400  1
  H  H7  1  0.92445600  0.30960200  0.65148600  1
  H  H8  1  0.91929950  0.93968050  0.12362000  1
  H  H9  1  0.58070050  0.43968050  0.37638000  1
  H  H10  1  0.58070050  0.56031950  0.87638000  1
  H  H11  1  0.91929950  0.06031950  0.62362000  1
  H  H12  1  0.55059050  0.37318750  0.06666200  1
  H  H13  1  0.94940950  0.87318750  0.43333800  1
  H  H14  1  0.94940950  0.12681250  0.93333800  1
  H  H15  1  0.55059050  0.62681250  0.56666200  1
  H  H16  1  0.52132200  0.37113000  0.17321000  1
  H  H17  1  0.97867800  0.87113000  0.32679000  1
  H  H18  1  0.97867800  0.12887000  0.82679000  1
  H  H19  1  0.52132200  0.62887000  0.67321000  1
  H  H20  1  0.54130000  0.15185400  0.12685800  1
  H  H21  1  0.95870000  0.65185400  0.37314200  1
  H  H22  1  0.95870000  0.34814600  0.87314200  1
  H  H23  1  0.54130000  0.84814600  0.62685800  1
  H  H24  1  0.84949450  0.29008350  0.94855700  1
  H  H25  1  0.65050550  0.79008350  0.55144300  1
  H  H26  1  0.65050550  0.20991650  0.05144300  1
  H  H27  1  0.84949450  0.70991650  0.44855700  1
  H  H28  1  0.86436200  0.51164300  0.94696800  1
  H  H29  1  0.63563800  0.01164300  0.55303200  1
  H  H30  1  0.63563800  0.98835700  0.05303200  1
  H  H31  1  0.86436200  0.48835700  0.44696800  1
  H  H32  1  0.85234900  0.95044100  0.88848300  1
  H  H33  1  0.64765100  0.45044100  0.61151700  1
  H  H34  1  0.64765100  0.54955900  0.11151700  1
  H  H35  1  0.85234900  0.04955900  0.38848300  1
  H  H36  1  0.80284600  0.04018700  0.93395300  1
  H  H37  1  0.69715400  0.54018700  0.56604700  1
  H  H38  1  0.69715400  0.45981300  0.06604700  1
  H  H39  1  0.80284600  0.95981300  0.43395300  1
  H  H40  1  0.80570200  0.16984600  0.76002500  1
  H  H41  1  0.69429800  0.66984600  0.73997500  1
  H  H42  1  0.69429800  0.33015400  0.23997500  1
  H  H43  1  0.80570200  0.83015400  0.26002500  1
  H  H44  1  0.80107550  0.36990550  0.70386000  1
  H  H45  1  0.69892450  0.86990550  0.79614000  1
  H  H46  1  0.69892450  0.13009450  0.29614000  1
  H  H47  1  0.80107550  0.63009450  0.20386000  1
  H  H48  1  0.72738150  0.95130650  0.52177500  1
  H  H49  1  0.77261850  0.45130650  0.97822500  1
  H  H50  1  0.77261850  0.54869350  0.47822500  1
  H  H51  1  0.72738150  0.04869350  0.02177500  1
  H  H52  1  0.78081050  0.07104850  0.58473900  1
  H  H53  1  0.71918950  0.57104850  0.91526100  1
  H  H54  1  0.71918950  0.42895150  0.41526100  1
  H  H55  1  0.78081050  0.92895150  0.08473900  1
  H  H56  1  0.53695450  0.20441450  0.94806500  1
  H  H57  1  0.96304550  0.70441450  0.55193500  1
  H  H58  1  0.96304550  0.29558550  0.05193500  1
  H  H59  1  0.53695450  0.79558550  0.44806500  1
  H  H60  1  0.89415850  0.65748550  0.63942400  1
  H  H61  1  0.60584150  0.15748550  0.86057600  1
  H  H62  1  0.60584150  0.84251450  0.36057600  1
  H  H63  1  0.89415850  0.34251450  0.13942400  1
  H  H64  1  0.79625150  0.69981150  0.77812900  1
  H  H65  1  0.70374850  0.19981150  0.72187100  1
  H  H66  1  0.70374850  0.80018850  0.22187100  1
  H  H67  1  0.79625150  0.30018850  0.27812900  1
  H  H68  1  0.80682150  0.71712750  0.65938300  1
  H  H69  1  0.69317850  0.21712750  0.84061700  1
  H  H70  1  0.69317850  0.78287250  0.34061700  1
  H  H71  1  0.80682150  0.28287250  0.15938300  1
  H  H72  1  0.87566800  0.77405700  0.03574300  1
  H  H73  1  0.62433200  0.27405700  0.46425700  1
  H  H74  1  0.62433200  0.72594300  0.96425700  1
  H  H75  1  0.87566800  0.22594300  0.53574300  1
  H  H76  1  0.42445600  0.19039800  0.15148600  1
  H  H77  1  0.07554400  0.69039800  0.34851400  1
  H  H78  1  0.07554400  0.30960200  0.84851400  1
  H  H79  1  0.42445600  0.80960200  0.65148600  1
  H  H80  1  0.41929950  0.43968050  0.12362000  1
  H  H81  1  0.08070050  0.93968050  0.37638000  1
  H  H82  1  0.08070050  0.06031950  0.87638000  1
  H  H83  1  0.41929950  0.56031950  0.62362000  1
  H  H84  1  0.05059050  0.87318750  0.06666200  1
  H  H85  1  0.44940950  0.37318750  0.43333800  1
  H  H86  1  0.44940950  0.62681250  0.93333800  1
  H  H87  1  0.05059050  0.12681250  0.56666200  1
  H  H88  1  0.02132200  0.87113000  0.17321000  1
  H  H89  1  0.47867800  0.37113000  0.32679000  1
  H  H90  1  0.47867800  0.62887000  0.82679000  1
  H  H91  1  0.02132200  0.12887000  0.67321000  1
  H  H92  1  0.04130000  0.65185400  0.12685800  1
  H  H93  1  0.45870000  0.15185400  0.37314200  1
  H  H94  1  0.45870000  0.84814600  0.87314200  1
  H  H95  1  0.04130000  0.34814600  0.62685800  1
  H  H96  1  0.34949450  0.79008350  0.94855700  1
  H  H97  1  0.15050550  0.29008350  0.55144300  1
  H  H98  1  0.15050550  0.70991650  0.05144300  1
  H  H99  1  0.34949450  0.20991650  0.44855700  1
  H  H100  1  0.36436200  0.01164300  0.94696800  1
  H  H101  1  0.13563800  0.51164300  0.55303200  1
  H  H102  1  0.13563800  0.48835700  0.05303200  1
  H  H103  1  0.36436200  0.98835700  0.44696800  1
  H  H104  1  0.35234900  0.45044100  0.88848300  1
  H  H105  1  0.14765100  0.95044100  0.61151700  1
  H  H106  1  0.14765100  0.04955900  0.11151700  1
  H  H107  1  0.35234900  0.54955900  0.38848300  1
  H  H108  1  0.30284600  0.54018700  0.93395300  1
  H  H109  1  0.19715400  0.04018700  0.56604700  1
  H  H110  1  0.19715400  0.95981300  0.06604700  1
  H  H111  1  0.30284600  0.45981300  0.43395300  1
  H  H112  1  0.30570200  0.66984600  0.76002500  1
  H  H113  1  0.19429800  0.16984600  0.73997500  1
  H  H114  1  0.19429800  0.83015400  0.23997500  1
  H  H115  1  0.30570200  0.33015400  0.26002500  1
  H  H116  1  0.30107550  0.86990550  0.70386000  1
  H  H117  1  0.19892450  0.36990550  0.79614000  1
  H  H118  1  0.19892450  0.63009450  0.29614000  1
  H  H119  1  0.30107550  0.13009450  0.20386000  1
  H  H120  1  0.22738150  0.45130650  0.52177500  1
  H  H121  1  0.27261850  0.95130650  0.97822500  1
  H  H122  1  0.27261850  0.04869350  0.47822500  1
  H  H123  1  0.22738150  0.54869350  0.02177500  1
  H  H124  1  0.28081050  0.57104850  0.58473900  1
  H  H125  1  0.21918950  0.07104850  0.91526100  1
  H  H126  1  0.21918950  0.92895150  0.41526100  1
  H  H127  1  0.28081050  0.42895150  0.08473900  1
  H  H128  1  0.03695450  0.70441450  0.94806500  1
  H  H129  1  0.46304550  0.20441450  0.55193500  1
  H  H130  1  0.46304550  0.79558550  0.05193500  1
  H  H131  1  0.03695450  0.29558550  0.44806500  1
  H  H132  1  0.39415850  0.15748550  0.63942400  1
  H  H133  1  0.10584150  0.65748550  0.86057600  1
  H  H134  1  0.10584150  0.34251450  0.36057600  1
  H  H135  1  0.39415850  0.84251450  0.13942400  1
  H  H136  1  0.29625150  0.19981150  0.77812900  1
  H  H137  1  0.20374850  0.69981150  0.72187100  1
  H  H138  1  0.20374850  0.30018850  0.22187100  1
  H  H139  1  0.29625150  0.80018850  0.27812900  1
  H  H140  1  0.30682150  0.21712750  0.65938300  1
  H  H141  1  0.19317850  0.71712750  0.84061700  1
  H  H142  1  0.19317850  0.28287250  0.34061700  1
  H  H143  1  0.30682150  0.78287250  0.15938300  1
  H  H144  1  0.37566800  0.27405700  0.03574300  1
  H  H145  1  0.12433200  0.77405700  0.46425700  1
  H  H146  1  0.12433200  0.22594300  0.96425700  1
  H  H147  1  0.37566800  0.72594300  0.53574300  1
  C  C148  1  0.95341800  0.73378400  0.93452900  1
  C  C149  1  0.54658200  0.23378400  0.56547100  1
  C  C150  1  0.54658200  0.76621600  0.06547100  1
  C  C151  1  0.95341800  0.26621600  0.43452900  1
  C  C152  1  0.88120900  0.69258600  0.77572800  1
  C  C153  1  0.61879100  0.19258600  0.72427200  1
  C  C154  1  0.61879100  0.80741400  0.22427200  1
  C  C155  1  0.88120900  0.30741400  0.27572800  1
  C  C156  1  0.91812000  0.79701600  0.08967700  1
  C  C157  1  0.58188000  0.29701600  0.41032300  1
  C  C158  1  0.58188000  0.70298400  0.91032300  1
  C  C159  1  0.91812000  0.20298400  0.58967700  1
  C  C160  1  0.52232750  0.29284050  0.10342300  1
  C  C161  1  0.97767250  0.79284050  0.39657700  1
  C  C162  1  0.97767250  0.20715950  0.89657700  1
  C  C163  1  0.52232750  0.70715950  0.60342300  1
  C  C164  1  0.45341800  0.23378400  0.93452900  1
  C  C165  1  0.04658200  0.73378400  0.56547100  1
  C  C166  1  0.04658200  0.26621600  0.06547100  1
  C  C167  1  0.45341800  0.76621600  0.43452900  1
  C  C168  1  0.38120900  0.19258600  0.77572800  1
  C  C169  1  0.11879100  0.69258600  0.72427200  1
  C  C170  1  0.11879100  0.30741400  0.22427200  1
  C  C171  1  0.38120900  0.80741400  0.27572800  1
  C  C172  1  0.41812000  0.29701600  0.08967700  1
  C  C173  1  0.08188000  0.79701600  0.41032300  1
  C  C174  1  0.08188000  0.20298400  0.91032300  1
  C  C175  1  0.41812000  0.70298400  0.58967700  1
  C  C176  1  0.02232750  0.79284050  0.10342300  1
  C  C177  1  0.47767250  0.29284050  0.39657700  1
  C  C178  1  0.47767250  0.70715950  0.89657700  1
  C  C179  1  0.02232750  0.20715950  0.60342300  1
  N  N180  1  0.99774700  0.70255100  0.89474300  1
  N  N181  1  0.50225300  0.20255100  0.60525700  1
  N  N182  1  0.50225300  0.79744900  0.10525700  1
  N  N183  1  0.99774700  0.29744900  0.39474300  1
  N  N184  1  0.91593750  0.68835450  0.71425300  1
  N  N185  1  0.58406250  0.18835450  0.78574700  1
  N  N186  1  0.58406250  0.81164550  0.28574700  1
  N  N187  1  0.91593750  0.31164550  0.21425300  1
  N  N188  1  0.82197900  0.66074400  0.73192700  1
  N  N189  1  0.67802100  0.16074400  0.76807300  1
  N  N190  1  0.67802100  0.83925600  0.26807300  1
  N  N191  1  0.82197900  0.33925600  0.23192700  1
  N  N192  1  0.89619750  0.72343750  0.87920900  1
  N  N193  1  0.60380250  0.22343750  0.62079100  1
  N  N194  1  0.60380250  0.77656250  0.12079100  1
  N  N195  1  0.89619750  0.27656250  0.37920900  1
  N  N196  1  0.96350300  0.78016000  0.03697100  1
  N  N197  1  0.53649700  0.28016000  0.46302900  1
  N  N198  1  0.53649700  0.71984000  0.96302900  1
  N  N199  1  0.96350300  0.21984000  0.53697100  1
  N  N200  1  0.49774700  0.20255100  0.89474300  1
  N  N201  1  0.00225300  0.70255100  0.60525700  1
  N  N202  1  0.00225300  0.29744900  0.10525700  1
  N  N203  1  0.49774700  0.79744900  0.39474300  1
  N  N204  1  0.41593750  0.18835450  0.71425300  1
  N  N205  1  0.08406250  0.68835450  0.78574700  1
  N  N206  1  0.08406250  0.31164550  0.28574700  1
  N  N207  1  0.41593750  0.81164550  0.21425300  1
  N  N208  1  0.32197900  0.16074400  0.73192700  1
  N  N209  1  0.17802100  0.66074400  0.76807300  1
  N  N210  1  0.17802100  0.33925600  0.26807300  1
  N  N211  1  0.32197900  0.83925600  0.23192700  1
  N  N212  1  0.39619750  0.22343750  0.87920900  1
  N  N213  1  0.10380250  0.72343750  0.62079100  1
  N  N214  1  0.10380250  0.27656250  0.12079100  1
  N  N215  1  0.39619750  0.77656250  0.37920900  1
  N  N216  1  0.46350300  0.28016000  0.03697100  1
  N  N217  1  0.03649700  0.78016000  0.46302900  1
  N  N218  1  0.03649700  0.21984000  0.96302900  1
  N  N219  1  0.46350300  0.71984000  0.53697100  1
  O  O220  1  0.85211850  0.41059350  0.98789800  1
  O  O221  1  0.64788150  0.91059350  0.51210200  1
  O  O222  1  0.64788150  0.08940650  0.01210200  1
  O  O223  1  0.85211850  0.58940650  0.48789800  1
  O  O224  1  0.82819550  0.06592550  0.88713000  1
  O  O225  1  0.67180450  0.56592550  0.61287000  1
  O  O226  1  0.67180450  0.43407450  0.11287000  1
  O  O227  1  0.82819550  0.93407450  0.38713000  1
  O  O228  1  0.79032750  0.23491750  0.69265200  1
  O  O229  1  0.70967250  0.73491750  0.80734800  1
  O  O230  1  0.70967250  0.26508250  0.30734800  1
  O  O231  1  0.79032750  0.76508250  0.19265200  1
  O  O232  1  0.77015200  0.96290700  0.53619800  1
  O  O233  1  0.72984800  0.46290700  0.96380200  1
  O  O234  1  0.72984800  0.53709300  0.46380200  1
  O  O235  1  0.77015200  0.03709300  0.03619800  1
  O  O236  1  0.35211850  0.91059350  0.98789800  1
  O  O237  1  0.14788150  0.41059350  0.51210200  1
  O  O238  1  0.14788150  0.58940650  0.01210200  1
  O  O239  1  0.35211850  0.08940650  0.48789800  1
  O  O240  1  0.32819550  0.56592550  0.88713000  1
  O  O241  1  0.17180450  0.06592550  0.61287000  1
  O  O242  1  0.17180450  0.93407450  0.11287000  1
  O  O243  1  0.32819550  0.43407450  0.38713000  1
  O  O244  1  0.29032750  0.73491750  0.69265200  1
  O  O245  1  0.20967250  0.23491750  0.80734800  1
  O  O246  1  0.20967250  0.76508250  0.30734800  1
  O  O247  1  0.29032750  0.26508250  0.19265200  1
  O  O248  1  0.27015200  0.46290700  0.53619800  1
  O  O249  1  0.22984800  0.96290700  0.96380200  1
  O  O250  1  0.22984800  0.03709300  0.46380200  1
  O  O251  1  0.27015200  0.53709300  0.03619800  1
