# generated using pymatgen
data_Ca4Si2H2CO11
_symmetry_space_group_name_H-M   'P 1'
_cell_length_a   7.64299900
_cell_length_b   23.63018500
_cell_length_c   11.65566864
_cell_angle_alpha   90.00000000
_cell_angle_beta   108.94063586
_cell_angle_gamma   90.00000000
_symmetry_Int_Tables_number   1
_chemical_formula_structural   Ca4Si2H2CO11
_chemical_formula_sum   'Ca32 Si16 H16 C8 O88'
_cell_volume   1991.09902446
_cell_formula_units_Z   8
loop_
 _symmetry_equiv_pos_site_id
 _symmetry_equiv_pos_as_xyz
  1  'x, y, z'
loop_
 _atom_site_type_symbol
 _atom_site_label
 _atom_site_symmetry_multiplicity
 _atom_site_fract_x
 _atom_site_fract_y
 _atom_site_fract_z
 _atom_site_occupancy
  Ca  Ca0  1  0.59704500  0.30639900  0.94034900  1
  Ca  Ca1  1  0.90500400  0.80760500  0.55642500  1
  Ca  Ca2  1  0.06154200  0.45584400  0.37724100  1
  Ca  Ca3  1  0.59704500  0.19360100  0.44034900  1
  Ca  Ca4  1  0.43379800  0.54332900  0.62545100  1
  Ca  Ca5  1  0.81124500  0.04540500  0.37453800  1
  Ca  Ca6  1  0.22347900  0.80852400  0.19341500  1
  Ca  Ca7  1  0.68955600  0.54558200  0.12764300  1
  Ca  Ca8  1  0.77652100  0.19147600  0.80658500  1
  Ca  Ca9  1  0.93845800  0.54415600  0.62275900  1
  Ca  Ca10  1  0.31044400  0.45441800  0.87235700  1
  Ca  Ca11  1  0.72200400  0.80994700  0.19586000  1
  Ca  Ca12  1  0.43379800  0.95667100  0.12545100  1
  Ca  Ca13  1  0.18875500  0.54540500  0.12546200  1
  Ca  Ca14  1  0.06154200  0.04415600  0.87724100  1
  Ca  Ca15  1  0.27799600  0.19005300  0.80414000  1
  Ca  Ca16  1  0.31044400  0.04558200  0.37235700  1
  Ca  Ca17  1  0.90500400  0.69239500  0.05642500  1
  Ca  Ca18  1  0.56620200  0.45667100  0.37454900  1
  Ca  Ca19  1  0.40295500  0.80639900  0.55965100  1
  Ca  Ca20  1  0.93845800  0.95584400  0.12275900  1
  Ca  Ca21  1  0.72200400  0.69005300  0.69586000  1
  Ca  Ca22  1  0.68955600  0.95441800  0.62764300  1
  Ca  Ca23  1  0.18875500  0.95459500  0.62546200  1
  Ca  Ca24  1  0.09499600  0.30760500  0.94357500  1
  Ca  Ca25  1  0.77652100  0.30852400  0.30658500  1
  Ca  Ca26  1  0.81124500  0.45459500  0.87453800  1
  Ca  Ca27  1  0.56620200  0.04332900  0.87454900  1
  Ca  Ca28  1  0.27799600  0.30994700  0.30414000  1
  Ca  Ca29  1  0.40295500  0.69360100  0.05965100  1
  Ca  Ca30  1  0.09499600  0.19239500  0.44357500  1
  Ca  Ca31  1  0.22347900  0.69147600  0.69341500  1
  Si  Si32  1  0.89813900  0.08632300  0.12579900  1
  Si  Si33  1  0.47576300  0.41389800  0.62371000  1
  Si  Si34  1  0.10186100  0.91367700  0.87420100  1
  Si  Si35  1  0.60689500  0.78234400  0.87843900  1
  Si  Si36  1  0.01842900  0.78212600  0.87207500  1
  Si  Si37  1  0.39310500  0.21765600  0.12156100  1
  Si  Si38  1  0.01842900  0.71787400  0.37207500  1
  Si  Si39  1  0.98157100  0.21787400  0.12792500  1
  Si  Si40  1  0.52423700  0.58610200  0.37629000  1
  Si  Si41  1  0.89813900  0.41367700  0.62579900  1
  Si  Si42  1  0.39310500  0.28234400  0.62156100  1
  Si  Si43  1  0.98157100  0.28212600  0.62792500  1
  Si  Si44  1  0.60689500  0.71765600  0.37843900  1
  Si  Si45  1  0.47576300  0.08610200  0.12371000  1
  Si  Si46  1  0.10186100  0.58632300  0.37420100  1
  Si  Si47  1  0.52423700  0.91389800  0.87629000  1
  H  H48  1  0.11009900  0.14651800  0.96308300  1
  H  H49  1  0.59981900  0.34767300  0.45374500  1
  H  H50  1  0.11009900  0.35348200  0.46308300  1
  H  H51  1  0.40018100  0.84767300  0.04625500  1
  H  H52  1  0.59981900  0.15232700  0.95374500  1
  H  H53  1  0.26461600  0.35243600  0.78647000  1
  H  H54  1  0.73538400  0.85243600  0.71353000  1
  H  H55  1  0.40018100  0.65232700  0.54625500  1
  H  H56  1  0.73538400  0.64756400  0.21353000  1
  H  H57  1  0.88990100  0.64651800  0.53691700  1
  H  H58  1  0.77426800  0.34742900  0.79414600  1
  H  H59  1  0.22573200  0.84742900  0.70585400  1
  H  H60  1  0.26461600  0.14756400  0.28647000  1
  H  H61  1  0.88990100  0.85348200  0.03691700  1
  H  H62  1  0.22573200  0.65257100  0.20585400  1
  H  H63  1  0.77426800  0.15257100  0.29414600  1
  C  C64  1  0.31361300  0.91900400  0.37669600  1
  C  C65  1  0.18710800  0.42111400  0.12376400  1
  C  C66  1  0.81289200  0.57888600  0.87623600  1
  C  C67  1  0.68638700  0.41900400  0.12330400  1
  C  C68  1  0.18710800  0.07888600  0.62376400  1
  C  C69  1  0.68638700  0.08099600  0.62330400  1
  C  C70  1  0.81289200  0.92111400  0.37623600  1
  C  C71  1  0.31361300  0.58099600  0.87669600  1
  O  O72  1  0.76084300  0.94911300  0.27424200  1
  O  O73  1  0.69004900  0.64407000  0.12514500  1
  O  O74  1  0.81540900  0.86681700  0.37836400  1
  O  O75  1  0.23915700  0.05088700  0.72575800  1
  O  O76  1  0.62414200  0.64774300  0.37593500  1
  O  O77  1  0.53600300  0.24166900  0.24667800  1
  O  O78  1  0.97381500  0.24234100  0.25611300  1
  O  O79  1  0.83922300  0.24040200  0.00108100  1
  O  O80  1  0.00033700  0.35202600  0.63095400  1
  O  O81  1  0.93574500  0.85670400  0.12529700  1
  O  O82  1  0.62503800  0.95113700  0.99646100  1
  O  O83  1  0.53600300  0.25833100  0.74667800  1
  O  O84  1  0.31181800  0.60346800  0.37253900  1
  O  O85  1  0.62503800  0.54886300  0.49646100  1
  O  O86  1  0.16077700  0.75959800  0.99891900  1
  O  O87  1  0.31430200  0.63531500  0.87907700  1
  O  O88  1  0.69004900  0.85593000  0.62514500  1
  O  O89  1  0.81823300  0.35740100  0.88020000  1
  O  O90  1  0.97381500  0.25765900  0.75611300  1
  O  O91  1  0.00033700  0.14797400  0.13095400  1
  O  O92  1  0.06425500  0.14329600  0.87470300  1
  O  O93  1  0.39960200  0.24041900  0.99175700  1
  O  O94  1  0.68818200  0.10346800  0.12746100  1
  O  O95  1  0.49215900  0.45208200  0.74340200  1
  O  O96  1  0.81540900  0.63318300  0.87836400  1
  O  O97  1  0.02618500  0.75765900  0.74388700  1
  O  O98  1  0.63530400  0.05093700  0.52284200  1
  O  O99  1  0.99883800  0.04703100  0.24375400  1
  O  O100  1  0.11976100  0.55039800  0.49590700  1
  O  O101  1  0.88023900  0.44960200  0.50409300  1
  O  O102  1  0.18739400  0.25819800  0.62458500  1
  O  O103  1  0.73808400  0.44697800  0.22556100  1
  O  O104  1  0.00116200  0.95296900  0.75624600  1
  O  O105  1  0.76084300  0.55088700  0.77424200  1
  O  O106  1  0.18176700  0.64259900  0.11980000  1
  O  O107  1  0.50784100  0.95208200  0.75659800  1
  O  O108  1  0.13693500  0.04921500  0.52278900  1
  O  O109  1  0.81823300  0.14259900  0.38020000  1
  O  O110  1  0.49215900  0.04791800  0.24340200  1
  O  O111  1  0.39960200  0.25958100  0.49175700  1
  O  O112  1  0.36469600  0.55093700  0.97715800  1
  O  O113  1  0.93574500  0.64329600  0.62529700  1
  O  O114  1  0.55631000  0.14148300  0.86821300  1
  O  O115  1  0.26191600  0.55302200  0.77443900  1
  O  O116  1  0.88023900  0.05039800  0.00409300  1
  O  O117  1  0.06425500  0.35670400  0.37470300  1
  O  O118  1  0.23915700  0.44911300  0.22575800  1
  O  O119  1  0.46399700  0.75833100  0.75332200  1
  O  O120  1  0.36469600  0.94906300  0.47715800  1
  O  O121  1  0.86306500  0.54921500  0.97721100  1
  O  O122  1  0.86306500  0.95078500  0.47721100  1
  O  O123  1  0.37585800  0.14774300  0.12406500  1
  O  O124  1  0.30995100  0.14407000  0.37485500  1
  O  O125  1  0.83922300  0.25959800  0.50108100  1
  O  O126  1  0.99883800  0.45296900  0.74375400  1
  O  O127  1  0.55631000  0.35851700  0.36821300  1
  O  O128  1  0.68818200  0.39653200  0.62746100  1
  O  O129  1  0.18459100  0.13318300  0.62163600  1
  O  O130  1  0.81260600  0.74180200  0.37541500  1
  O  O131  1  0.99966300  0.85202600  0.86904600  1
  O  O132  1  0.16077700  0.74040200  0.49891900  1
  O  O133  1  0.81260600  0.75819800  0.87541500  1
  O  O134  1  0.18176700  0.85740100  0.61980000  1
  O  O135  1  0.13693500  0.45078500  0.02278900  1
  O  O136  1  0.50784100  0.54791800  0.25659800  1
  O  O137  1  0.37585800  0.35225700  0.62406500  1
  O  O138  1  0.60039800  0.74041900  0.50824300  1
  O  O139  1  0.46399700  0.74166900  0.25332200  1
  O  O140  1  0.37496200  0.45113700  0.50353900  1
  O  O141  1  0.44369000  0.85851700  0.13178700  1
  O  O142  1  0.73808400  0.05302200  0.72556100  1
  O  O143  1  0.00116200  0.54703100  0.25624600  1
  O  O144  1  0.11976100  0.94960200  0.99590700  1
  O  O145  1  0.60039800  0.75958100  0.00824300  1
  O  O146  1  0.31181800  0.89653200  0.87253900  1
  O  O147  1  0.26191600  0.94697800  0.27443900  1
  O  O148  1  0.18739400  0.24180200  0.12458500  1
  O  O149  1  0.30995100  0.35593000  0.87485500  1
  O  O150  1  0.99966300  0.64797400  0.36904600  1
  O  O151  1  0.31430200  0.86468500  0.37907700  1
  O  O152  1  0.62414200  0.85225700  0.87593500  1
  O  O153  1  0.68569800  0.36468500  0.12092300  1
  O  O154  1  0.44369000  0.64148300  0.63178700  1
  O  O155  1  0.37496200  0.04886300  0.00353900  1
  O  O156  1  0.18459100  0.36681700  0.12163600  1
  O  O157  1  0.63530400  0.44906300  0.02284200  1
  O  O158  1  0.02618500  0.74234100  0.24388700  1
  O  O159  1  0.68569800  0.13531500  0.62092300  1
