# generated using pymatgen
data_Sn2H2SO5F2
_symmetry_space_group_name_H-M   'P 1'
_cell_length_a   7.11259800
_cell_length_b   13.03686700
_cell_length_c   7.32496599
_cell_angle_alpha   90.00000000
_cell_angle_beta   90.96967528
_cell_angle_gamma   90.00000000
_symmetry_Int_Tables_number   1
_chemical_formula_structural   Sn2H2SO5F2
_chemical_formula_sum   'Sn8 H8 S4 O20 F8'
_cell_volume   679.11748490
_cell_formula_units_Z   4
loop_
 _symmetry_equiv_pos_site_id
 _symmetry_equiv_pos_as_xyz
  1  'x, y, z'
loop_
 _atom_site_type_symbol
 _atom_site_label
 _atom_site_symmetry_multiplicity
 _atom_site_fract_x
 _atom_site_fract_y
 _atom_site_fract_z
 _atom_site_occupancy
  Sn  Sn0  1  0.67874900  0.31902900  0.15448700  1
  Sn  Sn1  1  0.32125100  0.81902900  0.34551300  1
  Sn  Sn2  1  0.32125100  0.68097100  0.84551300  1
  Sn  Sn3  1  0.67874900  0.18097100  0.65448700  1
  Sn  Sn4  1  0.76067000  0.47965800  0.67043200  1
  Sn  Sn5  1  0.23933000  0.97965800  0.82956800  1
  Sn  Sn6  1  0.23933000  0.52034200  0.32956800  1
  Sn  Sn7  1  0.76067000  0.02034200  0.17043200  1
  H  H8  1  0.06209200  0.31867800  0.04966800  1
  H  H9  1  0.93790800  0.81867800  0.45033200  1
  H  H10  1  0.93790800  0.68132200  0.95033200  1
  H  H11  1  0.06209200  0.18132200  0.54966800  1
  H  H12  1  0.05484100  0.26303100  0.24588000  1
  H  H13  1  0.94515900  0.76303100  0.25412000  1
  H  H14  1  0.94515900  0.73696900  0.75412000  1
  H  H15  1  0.05484100  0.23696900  0.74588000  1
  S  S16  1  0.75827500  0.58127100  0.22518300  1
  S  S17  1  0.24172500  0.08127100  0.27481700  1
  S  S18  1  0.24172500  0.41872900  0.77481700  1
  S  S19  1  0.75827500  0.91872900  0.72518300  1
  O  O20  1  0.78908700  0.67995800  0.12747200  1
  O  O21  1  0.21091300  0.17995800  0.37252800  1
  O  O22  1  0.21091300  0.32004200  0.87252800  1
  O  O23  1  0.78908700  0.82004200  0.62747200  1
  O  O24  1  0.92062600  0.56298100  0.35701100  1
  O  O25  1  0.07937400  0.06298100  0.14298900  1
  O  O26  1  0.07937400  0.43701900  0.64298900  1
  O  O27  1  0.92062600  0.93701900  0.85701100  1
  O  O28  1  0.74799000  0.49612500  0.08800000  1
  O  O29  1  0.25201000  0.99612500  0.41200000  1
  O  O30  1  0.25201000  0.50387500  0.91200000  1
  O  O31  1  0.74799000  0.00387500  0.58800000  1
  O  O32  1  0.58592400  0.58405200  0.33614000  1
  O  O33  1  0.41407600  0.08405200  0.16386000  1
  O  O34  1  0.41407600  0.41594800  0.66386000  1
  O  O35  1  0.58592400  0.91594800  0.83614000  1
  O  O36  1  0.99238400  0.31605700  0.16786700  1
  O  O37  1  0.00761600  0.81605700  0.33213300  1
  O  O38  1  0.00761600  0.68394300  0.83213300  1
  O  O39  1  0.99238400  0.18394300  0.66786700  1
  F  F40  1  0.73816300  0.13822700  0.96323600  1
  F  F41  1  0.26183700  0.63822700  0.53676400  1
  F  F42  1  0.26183700  0.86177300  0.03676400  1
  F  F43  1  0.73816300  0.36177300  0.46323600  1
  F  F44  1  0.76357100  0.16282400  0.34087300  1
  F  F45  1  0.23642900  0.66282400  0.15912700  1
  F  F46  1  0.23642900  0.83717600  0.65912700  1
  F  F47  1  0.76357100  0.33717600  0.84087300  1
