# generated using pymatgen
data_Y2Si3N4O3
_symmetry_space_group_name_H-M   'P 1'
_cell_length_a   7.64863400
_cell_length_b   7.64863400
_cell_length_c   4.95004700
_cell_angle_alpha   90.00000000
_cell_angle_beta   90.00000000
_cell_angle_gamma   90.00000000
_symmetry_Int_Tables_number   1
_chemical_formula_structural   Y2Si3N4O3
_chemical_formula_sum   'Y4 Si6 N8 O6'
_cell_volume   289.58567980
_cell_formula_units_Z   2
loop_
 _symmetry_equiv_pos_site_id
 _symmetry_equiv_pos_as_xyz
  1  'x, y, z'
loop_
 _atom_site_type_symbol
 _atom_site_label
 _atom_site_symmetry_multiplicity
 _atom_site_fract_x
 _atom_site_fract_y
 _atom_site_fract_z
 _atom_site_occupancy
  Y  Y0  1  0.17040500  0.67040500  0.50407300  1
  Y  Y1  1  0.67040500  0.82959500  0.49592700  1
  Y  Y2  1  0.32959500  0.17040500  0.49592700  1
  Y  Y3  1  0.82959500  0.32959500  0.50407300  1
  Si  Si4  1  0.35465700  0.85465700  0.94534000  1
  Si  Si5  1  0.85465700  0.64534300  0.05466000  1
  Si  Si6  1  0.14534300  0.35465700  0.05466000  1
  Si  Si7  1  0.64534300  0.14534300  0.94534000  1
  Si  Si8  1  0.50000000  0.50000000  0.00000000  1
  Si  Si9  1  0.00000000  0.00000000  0.00000000  1
  N  N10  1  0.42290100  0.66738600  0.79289800  1
  N  N11  1  0.57709900  0.33261400  0.79289800  1
  N  N12  1  0.33261400  0.42290100  0.20710200  1
  N  N13  1  0.66738600  0.57709900  0.20710200  1
  N  N14  1  0.16738600  0.92290100  0.79289800  1
  N  N15  1  0.92290100  0.83261400  0.20710200  1
  N  N16  1  0.07709900  0.16738600  0.20710200  1
  N  N17  1  0.83261400  0.07709900  0.79289800  1
  O  O18  1  0.36853000  0.86853000  0.27860400  1
  O  O19  1  0.86853000  0.63147000  0.72139600  1
  O  O20  1  0.00000000  0.50000000  0.18414800  1
  O  O21  1  0.50000000  0.00000000  0.81585200  1
  O  O22  1  0.63147000  0.13147000  0.27860400  1
  O  O23  1  0.13147000  0.36853000  0.72139600  1
