# generated using pymatgen
data_Ni(HO)2
_symmetry_space_group_name_H-M   'P 1'
_cell_length_a   5.48285600
_cell_length_b   3.15138000
_cell_length_c   7.63428201
_cell_angle_alpha   90.00000000
_cell_angle_beta   93.75543833
_cell_angle_gamma   90.00000000
_symmetry_Int_Tables_number   1
_chemical_formula_structural   Ni(HO)2
_chemical_formula_sum   'Ni2 H4 O4'
_cell_volume   131.62617304
_cell_formula_units_Z   2
loop_
 _symmetry_equiv_pos_site_id
 _symmetry_equiv_pos_as_xyz
  1  'x, y, z'
loop_
 _atom_site_type_symbol
 _atom_site_label
 _atom_site_symmetry_multiplicity
 _atom_site_fract_x
 _atom_site_fract_y
 _atom_site_fract_z
 _atom_site_occupancy
  Ni  Ni0  1  0.00000000  0.10232100  0.00000000  1
  Ni  Ni1  1  0.50000000  0.60232100  0.00000000  1
  H  H2  1  0.86051050  0.62665250  0.26010600  1
  H  H3  1  0.63948950  0.12665250  0.73989400  1
  H  H4  1  0.36051050  0.12665250  0.26010600  1
  H  H5  1  0.13948950  0.62665250  0.73989400  1
  O  O6  1  0.84458000  0.60394800  0.13357600  1
  O  O7  1  0.65542000  0.10394800  0.86642400  1
  O  O8  1  0.34458000  0.10394800  0.13357600  1
  O  O9  1  0.15542000  0.60394800  0.86642400  1
