# generated using pymatgen
data_Nd(HO)3
_symmetry_space_group_name_H-M   'P 1'
_cell_length_a   6.44201958
_cell_length_b   6.44201958
_cell_length_c   3.75639900
_cell_angle_alpha   90.00000000
_cell_angle_beta   90.00000000
_cell_angle_gamma   120.00000000
_symmetry_Int_Tables_number   1
_chemical_formula_structural   Nd(HO)3
_chemical_formula_sum   'Nd2 H6 O6'
_cell_volume   135.00393551
_cell_formula_units_Z   2
loop_
 _symmetry_equiv_pos_site_id
 _symmetry_equiv_pos_as_xyz
  1  'x, y, z'
loop_
 _atom_site_type_symbol
 _atom_site_label
 _atom_site_symmetry_multiplicity
 _atom_site_fract_x
 _atom_site_fract_y
 _atom_site_fract_z
 _atom_site_occupancy
  Nd  Nd0  1  0.66666667  0.33333333  0.75000000  1
  Nd  Nd1  1  0.33333333  0.66666667  0.25000000  1
  H  H2  1  0.72494200  0.86294900  0.75000000  1
  H  H3  1  0.13800700  0.27505800  0.75000000  1
  H  H4  1  0.13705100  0.86199300  0.75000000  1
  H  H5  1  0.27505800  0.13705100  0.25000000  1
  H  H6  1  0.86199300  0.72494200  0.25000000  1
  H  H7  1  0.86294900  0.13800700  0.25000000  1
  O  O8  1  0.60941800  0.69179900  0.75000000  1
  O  O9  1  0.08238100  0.39058200  0.75000000  1
  O  O10  1  0.30820100  0.91761900  0.75000000  1
  O  O11  1  0.39058200  0.30820100  0.25000000  1
  O  O12  1  0.91761900  0.60941800  0.25000000  1
  O  O13  1  0.69179900  0.08238100  0.25000000  1
