# generated using pymatgen
data_SiO2
_symmetry_space_group_name_H-M   'P 1'
_cell_length_a   5.27690800
_cell_length_b   14.08421300
_cell_length_c   22.67950500
_cell_angle_alpha   90.00000000
_cell_angle_beta   90.00000000
_cell_angle_gamma   90.00000000
_symmetry_Int_Tables_number   1
_chemical_formula_structural   SiO2
_chemical_formula_sum   'Si28 O56'
_cell_volume   1685.56567408
_cell_formula_units_Z   28
loop_
 _symmetry_equiv_pos_site_id
 _symmetry_equiv_pos_as_xyz
  1  'x, y, z'
loop_
 _atom_site_type_symbol
 _atom_site_label
 _atom_site_symmetry_multiplicity
 _atom_site_fract_x
 _atom_site_fract_y
 _atom_site_fract_z
 _atom_site_occupancy
  Si  Si0  1  0.50000000  0.85621700  0.50000000  1
  Si  Si1  1  0.00000000  0.14378300  0.00000000  1
  Si  Si2  1  0.00000000  0.98940100  0.50000000  1
  Si  Si3  1  0.50000000  0.01059900  0.00000000  1
  Si  Si4  1  0.50000000  0.77270000  0.37204800  1
  Si  Si5  1  0.00000000  0.22730000  0.12795200  1
  Si  Si6  1  0.00000000  0.22730000  0.87204800  1
  Si  Si7  1  0.50000000  0.77270000  0.62795200  1
  Si  Si8  1  0.50000000  0.59454200  0.30019800  1
  Si  Si9  1  0.00000000  0.40545800  0.19980200  1
  Si  Si10  1  0.00000000  0.40545800  0.80019800  1
  Si  Si11  1  0.50000000  0.59454200  0.69980200  1
  Si  Si12  1  0.50000000  0.92074900  0.12801800  1
  Si  Si13  1  0.00000000  0.07925100  0.37198200  1
  Si  Si14  1  0.00000000  0.07925100  0.62801800  1
  Si  Si15  1  0.50000000  0.92074900  0.87198200  1
  Si  Si16  1  0.00000000  0.61590900  0.22010500  1
  Si  Si17  1  0.50000000  0.38409100  0.27989500  1
  Si  Si18  1  0.50000000  0.38409100  0.72010500  1
  Si  Si19  1  0.00000000  0.61590900  0.77989500  1
  Si  Si20  1  0.00000000  0.82205900  0.17743500  1
  Si  Si21  1  0.50000000  0.17794100  0.32256500  1
  Si  Si22  1  0.50000000  0.17794100  0.67743500  1
  Si  Si23  1  0.00000000  0.82205900  0.82256500  1
  Si  Si24  1  0.00000000  0.87081400  0.31605400  1
  Si  Si25  1  0.50000000  0.12918600  0.18394600  1
  Si  Si26  1  0.50000000  0.12918600  0.81605400  1
  Si  Si27  1  0.00000000  0.87081400  0.68394600  1
  O  O28  1  0.50000000  0.78752700  0.55729000  1
  O  O29  1  0.00000000  0.21247300  0.94271000  1
  O  O30  1  0.00000000  0.21247300  0.05729000  1
  O  O31  1  0.50000000  0.78752700  0.44271000  1
  O  O32  1  0.75003800  0.92261000  0.50000000  1
  O  O33  1  0.25003800  0.07739000  0.00000000  1
  O  O34  1  0.74996200  0.07739000  0.00000000  1
  O  O35  1  0.24996200  0.92261000  0.50000000  1
  O  O36  1  0.00000000  0.05645800  0.44205600  1
  O  O37  1  0.50000000  0.94354200  0.05794400  1
  O  O38  1  0.50000000  0.94354200  0.94205600  1
  O  O39  1  0.00000000  0.05645800  0.55794400  1
  O  O40  1  0.50000000  0.65851400  0.35986400  1
  O  O41  1  0.00000000  0.34148600  0.14013600  1
  O  O42  1  0.00000000  0.34148600  0.85986400  1
  O  O43  1  0.50000000  0.65851400  0.64013600  1
  O  O44  1  0.74938000  0.82070400  0.34296600  1
  O  O45  1  0.24938000  0.17929600  0.15703400  1
  O  O46  1  0.75062000  0.17929600  0.84296600  1
  O  O47  1  0.25062000  0.82070400  0.65703400  1
  O  O48  1  0.75062000  0.17929600  0.15703400  1
  O  O49  1  0.25062000  0.82070400  0.34296600  1
  O  O50  1  0.74938000  0.82070400  0.65703400  1
  O  O51  1  0.24938000  0.17929600  0.84296600  1
  O  O52  1  0.50000000  0.48233100  0.31821700  1
  O  O53  1  0.00000000  0.51766900  0.18178300  1
  O  O54  1  0.00000000  0.51766900  0.81821700  1
  O  O55  1  0.50000000  0.48233100  0.68178300  1
  O  O56  1  0.74972600  0.62026700  0.26159800  1
  O  O57  1  0.24972600  0.37973300  0.23840200  1
  O  O58  1  0.75027400  0.37973300  0.76159800  1
  O  O59  1  0.25027400  0.62026700  0.73840200  1
  O  O60  1  0.75027400  0.37973300  0.23840200  1
  O  O61  1  0.25027400  0.62026700  0.26159800  1
  O  O62  1  0.74972600  0.62026700  0.73840200  1
  O  O63  1  0.24972600  0.37973300  0.76159800  1
  O  O64  1  0.50000000  0.01740600  0.16713100  1
  O  O65  1  0.00000000  0.98259400  0.33286900  1
  O  O66  1  0.00000000  0.98259400  0.66713100  1
  O  O67  1  0.50000000  0.01740600  0.83286900  1
  O  O68  1  0.24965800  0.85921200  0.14321300  1
  O  O69  1  0.74965800  0.14078800  0.35678700  1
  O  O70  1  0.25034200  0.14078800  0.64321300  1
  O  O71  1  0.75034200  0.85921200  0.85678700  1
  O  O72  1  0.25034200  0.14078800  0.35678700  1
  O  O73  1  0.75034200  0.85921200  0.14321300  1
  O  O74  1  0.24965800  0.85921200  0.85678700  1
  O  O75  1  0.74965800  0.14078800  0.64321300  1
  O  O76  1  0.00000000  0.70625300  0.17584500  1
  O  O77  1  0.50000000  0.29374700  0.32415500  1
  O  O78  1  0.50000000  0.29374700  0.67584500  1
  O  O79  1  0.00000000  0.70625300  0.82415500  1
  O  O80  1  0.00000000  0.86151900  0.24483100  1
  O  O81  1  0.50000000  0.13848100  0.25516900  1
  O  O82  1  0.50000000  0.13848100  0.74483100  1
  O  O83  1  0.00000000  0.86151900  0.75516900  1
