# generated using pymatgen
data_H22RuN7(ClO2)4
_symmetry_space_group_name_H-M   'P 1'
_cell_length_a   13.24910400
_cell_length_b   7.26601600
_cell_length_c   10.76549349
_cell_angle_alpha   90.00000000
_cell_angle_beta   114.11478137
_cell_angle_gamma   90.00000000
_symmetry_Int_Tables_number   1
_chemical_formula_structural   H22RuN7(ClO2)4
_chemical_formula_sum   'H44 Ru2 N14 Cl8 O16'
_cell_volume   945.92903897
_cell_formula_units_Z   2
loop_
 _symmetry_equiv_pos_site_id
 _symmetry_equiv_pos_as_xyz
  1  'x, y, z'
loop_
 _atom_site_type_symbol
 _atom_site_label
 _atom_site_symmetry_multiplicity
 _atom_site_fract_x
 _atom_site_fract_y
 _atom_site_fract_z
 _atom_site_occupancy
  H  H0  1  0.94807100  0.59066700  0.44987700  1
  H  H1  1  0.94807100  0.40933300  0.44987700  1
  H  H2  1  0.05993450  0.60204250  0.52605200  1
  H  H3  1  0.05993450  0.39795750  0.52605200  1
  H  H4  1  0.88911450  0.69662750  0.75085300  1
  H  H5  1  0.09896500  0.88488800  0.84193000  1
  H  H6  1  0.88911450  0.30337250  0.75085300  1
  H  H7  1  0.32163750  0.78947250  0.85241900  1
  H  H8  1  0.32163750  0.21052750  0.85241900  1
  H  H9  1  0.09896500  0.11511200  0.84193000  1
  H  H10  1  0.64144500  0.14366500  0.07063600  1
  H  H11  1  0.05327100  0.75450600  0.11976700  1
  H  H12  1  0.66817800  0.35868900  0.12145200  1
  H  H13  1  0.67915800  0.19963200  0.24241800  1
  H  H14  1  0.78996700  0.00000000  0.07549300  1
  H  H15  1  0.64144500  0.85633500  0.07063600  1
  H  H16  1  0.05327100  0.24549400  0.11976700  1
  H  H17  1  0.90877450  0.11638550  0.13011600  1
  H  H18  1  0.90877450  0.88361450  0.13011600  1
  H  H19  1  0.66817800  0.64131100  0.12145200  1
  H  H20  1  0.67915800  0.80036800  0.24241800  1
  H  H21  1  0.88201300  0.00000000  0.24932500  1
  H  H22  1  0.44807100  0.09066700  0.44987700  1
  H  H23  1  0.44807100  0.90933300  0.44987700  1
  H  H24  1  0.55993450  0.10204250  0.52605200  1
  H  H25  1  0.55993450  0.89795750  0.52605200  1
  H  H26  1  0.38911450  0.19662750  0.75085300  1
  H  H27  1  0.59896500  0.38488800  0.84193000  1
  H  H28  1  0.38911450  0.80337250  0.75085300  1
  H  H29  1  0.82163750  0.28947250  0.85241900  1
  H  H30  1  0.82163750  0.71052750  0.85241900  1
  H  H31  1  0.59896500  0.61511200  0.84193000  1
  H  H32  1  0.14144500  0.64366500  0.07063600  1
  H  H33  1  0.55327100  0.25450600  0.11976700  1
  H  H34  1  0.16817800  0.85868900  0.12145200  1
  H  H35  1  0.17915800  0.69963200  0.24241800  1
  H  H36  1  0.28996700  0.50000000  0.07549300  1
  H  H37  1  0.14144500  0.35633500  0.07063600  1
  H  H38  1  0.55327100  0.74549400  0.11976700  1
  H  H39  1  0.40877450  0.61638550  0.13011600  1
  H  H40  1  0.40877450  0.38361450  0.13011600  1
  H  H41  1  0.16817800  0.14131100  0.12145200  1
  H  H42  1  0.17915800  0.30036800  0.24241800  1
  H  H43  1  0.38201300  0.50000000  0.24932500  1
  Ru  Ru44  1  0.43761700  0.50000000  0.89154900  1
  Ru  Ru45  1  0.93761700  0.00000000  0.89154900  1
  N  N46  1  0.38791050  0.25899750  0.83577000  1
  N  N47  1  0.08152900  0.00000000  0.88482600  1
  N  N48  1  0.38791050  0.74100250  0.83577000  1
  N  N49  1  0.00168200  0.50000000  0.53024600  1
  N  N50  1  0.63629400  0.23887800  0.14208500  1
  N  N51  1  0.63629400  0.76112200  0.14208500  1
  N  N52  1  0.87337300  0.00000000  0.14961300  1
  N  N53  1  0.88791050  0.75899750  0.83577000  1
  N  N54  1  0.58152900  0.50000000  0.88482600  1
  N  N55  1  0.88791050  0.24100250  0.83577000  1
  N  N56  1  0.50168200  0.00000000  0.53024600  1
  N  N57  1  0.13629400  0.73887800  0.14208500  1
  N  N58  1  0.13629400  0.26112200  0.14208500  1
  N  N59  1  0.37337300  0.50000000  0.14961300  1
  Cl  Cl60  1  0.16465300  0.00000000  0.53159000  1
  Cl  Cl61  1  0.88787700  0.50000000  0.18248100  1
  Cl  Cl62  1  0.15406700  0.50000000  0.91200600  1
  Cl  Cl63  1  0.82577300  0.00000000  0.44616100  1
  Cl  Cl64  1  0.66465300  0.50000000  0.53159000  1
  Cl  Cl65  1  0.38787700  0.00000000  0.18248100  1
  Cl  Cl66  1  0.65406700  0.00000000  0.91200600  1
  Cl  Cl67  1  0.32577300  0.50000000  0.44616100  1
  O  O68  1  0.11541300  0.00000000  0.38240900  1
  O  O69  1  0.85869900  0.83571400  0.38955200  1
  O  O70  1  0.70335800  0.00000000  0.39092200  1
  O  O71  1  0.85869900  0.16428600  0.38955200  1
  O  O72  1  0.28483800  0.00000000  0.58168400  1
  O  O73  1  0.12856200  0.83587200  0.58248800  1
  O  O74  1  0.12856200  0.16412800  0.58248800  1
  O  O75  1  0.87461000  0.00000000  0.59126900  1
  O  O76  1  0.61541300  0.50000000  0.38240900  1
  O  O77  1  0.35869900  0.33571400  0.38955200  1
  O  O78  1  0.20335800  0.50000000  0.39092200  1
  O  O79  1  0.35869900  0.66428600  0.38955200  1
  O  O80  1  0.78483800  0.50000000  0.58168400  1
  O  O81  1  0.62856200  0.33587200  0.58248800  1
  O  O82  1  0.62856200  0.66412800  0.58248800  1
  O  O83  1  0.37461000  0.50000000  0.59126900  1
