# generated using pymatgen
data_CsTiNb(O2F)2
_symmetry_space_group_name_H-M   'P 1'
_cell_length_a   10.40471800
_cell_length_b   10.49706200
_cell_length_c   7.46333702
_cell_angle_alpha   90.00000000
_cell_angle_beta   133.43453250
_cell_angle_gamma   90.00000000
_symmetry_Int_Tables_number   1
_chemical_formula_structural   CsTiNb(O2F)2
_chemical_formula_sum   'Cs4 Ti4 Nb4 O16 F8'
_cell_volume   591.92094510
_cell_formula_units_Z   4
loop_
 _symmetry_equiv_pos_site_id
 _symmetry_equiv_pos_as_xyz
  1  'x, y, z'
loop_
 _atom_site_type_symbol
 _atom_site_label
 _atom_site_symmetry_multiplicity
 _atom_site_fract_x
 _atom_site_fract_y
 _atom_site_fract_z
 _atom_site_occupancy
  Cs  Cs0  1  0.50000000  0.62886400  0.50000000  1
  Cs  Cs1  1  0.50000000  0.37208100  0.00000000  1
  Cs  Cs2  1  0.00000000  0.12886400  0.50000000  1
  Cs  Cs3  1  0.00000000  0.87208100  0.00000000  1
  Ti  Ti4  1  0.74812700  0.24295600  0.73837400  1
  Ti  Ti5  1  0.25187300  0.24295600  0.26162600  1
  Ti  Ti6  1  0.24812700  0.74295600  0.73837400  1
  Ti  Ti7  1  0.75187300  0.74295600  0.26162600  1
  Nb  Nb8  1  0.48730250  0.00806750  0.73414000  1
  Nb  Nb9  1  0.51269750  0.00806750  0.26586000  1
  Nb  Nb10  1  0.98730250  0.50806750  0.73414000  1
  Nb  Nb11  1  0.01269750  0.50806750  0.26586000  1
  O  O12  1  0.69647600  0.12756600  0.50850400  1
  O  O13  1  0.68262200  0.12778700  0.85844600  1
  O  O14  1  0.31737800  0.12778700  0.14155400  1
  O  O15  1  0.50000000  0.06302700  0.00000000  1
  O  O16  1  0.50000000  0.93438400  0.50000000  1
  O  O17  1  0.30352400  0.12756600  0.49149600  1
  O  O18  1  0.67805350  0.87188250  0.34853100  1
  O  O19  1  0.32194650  0.87188250  0.65146900  1
  O  O20  1  0.19647600  0.62756600  0.50850400  1
  O  O21  1  0.18262200  0.62778700  0.85844600  1
  O  O22  1  0.81737800  0.62778700  0.14155400  1
  O  O23  1  0.00000000  0.56302700  0.00000000  1
  O  O24  1  0.00000000  0.43438400  0.50000000  1
  O  O25  1  0.80352400  0.62756600  0.49149600  1
  O  O26  1  0.17805350  0.37188250  0.34853100  1
  O  O27  1  0.82194650  0.37188250  0.65146900  1
  F  F28  1  0.50000000  0.31658400  0.50000000  1
  F  F29  1  0.69888550  0.87265850  0.00579100  1
  F  F30  1  0.30111450  0.87265850  0.99420900  1
  F  F31  1  0.50000000  0.68322400  0.00000000  1
  F  F32  1  0.00000000  0.81658400  0.50000000  1
  F  F33  1  0.19888550  0.37265850  0.00579100  1
  F  F34  1  0.80111450  0.37265850  0.99420900  1
  F  F35  1  0.00000000  0.18322400  0.00000000  1
