# generated using pymatgen
data_Cs3Sc2Cl9
_symmetry_space_group_name_H-M   'P 1'
_cell_length_a   13.05556025
_cell_length_b   13.05556025
_cell_length_c   18.49308796
_cell_angle_alpha   90.00000000
_cell_angle_beta   90.00000000
_cell_angle_gamma   120.00000000
_symmetry_Int_Tables_number   1
_chemical_formula_structural   Cs3Sc2Cl9
_chemical_formula_sum   'Cs18 Sc12 Cl54'
_cell_volume   2729.80166115
_cell_formula_units_Z   6
loop_
 _symmetry_equiv_pos_site_id
 _symmetry_equiv_pos_as_xyz
  1  'x, y, z'
loop_
 _atom_site_type_symbol
 _atom_site_label
 _atom_site_symmetry_multiplicity
 _atom_site_fract_x
 _atom_site_fract_y
 _atom_site_fract_z
 _atom_site_occupancy
  Cs  Cs0  1  0.66408200  0.00000000  0.25000000  1
  Cs  Cs1  1  0.33074867  0.99741533  0.08333333  1
  Cs  Cs2  1  0.33591800  0.33591800  0.25000000  1
  Cs  Cs3  1  0.66666667  0.66925133  0.08333333  1
  Cs  Cs4  1  0.00000000  0.66408200  0.25000000  1
  Cs  Cs5  1  0.00258467  0.33333333  0.08333333  1
  Cs  Cs6  1  0.33074867  0.33333333  0.58333333  1
  Cs  Cs7  1  0.99741533  0.33074867  0.41666667  1
  Cs  Cs8  1  0.00258467  0.66925133  0.58333333  1
  Cs  Cs9  1  0.33333333  0.00258467  0.41666667  1
  Cs  Cs10  1  0.66666667  0.99741533  0.58333333  1
  Cs  Cs11  1  0.66925133  0.66666667  0.41666667  1
  Cs  Cs12  1  0.99741533  0.66666667  0.91666667  1
  Cs  Cs13  1  0.66408200  0.66408200  0.75000000  1
  Cs  Cs14  1  0.66925133  0.00258467  0.91666667  1
  Cs  Cs15  1  0.00000000  0.33591800  0.75000000  1
  Cs  Cs16  1  0.33333333  0.33074867  0.91666667  1
  Cs  Cs17  1  0.33591800  0.00000000  0.75000000  1
  Sc  Sc18  1  0.33333333  0.66666667  0.81962367  1
  Sc  Sc19  1  0.33333333  0.66666667  0.31962367  1
  Sc  Sc20  1  0.33333333  0.66666667  0.01370967  1
  Sc  Sc21  1  0.33333333  0.66666667  0.51370967  1
  Sc  Sc22  1  0.00000000  0.00000000  0.15295700  1
  Sc  Sc23  1  0.00000000  0.00000000  0.65295700  1
  Sc  Sc24  1  1.00000000  0.00000000  0.34704300  1
  Sc  Sc25  1  0.00000000  0.00000000  0.84704300  1
  Sc  Sc26  1  0.66666667  0.33333333  0.48629033  1
  Sc  Sc27  1  0.66666667  0.33333333  0.98629033  1
  Sc  Sc28  1  0.66666667  0.33333333  0.68037633  1
  Sc  Sc29  1  0.66666667  0.33333333  0.18037633  1
  Cl  Cl30  1  0.18577533  0.51910867  0.91666667  1
  Cl  Cl31  1  0.48089133  0.66666667  0.91666667  1
  Cl  Cl32  1  0.49603800  0.83014400  0.07571000  1
  Cl  Cl33  1  0.16347733  0.16270467  0.09095667  1
  Cl  Cl34  1  0.82937133  0.33256067  0.24237667  1
  Cl  Cl35  1  0.33410600  0.50396200  0.07571000  1
  Cl  Cl36  1  0.33333333  0.81422467  0.91666667  1
  Cl  Cl37  1  0.33256067  0.82937133  0.25762333  1
  Cl  Cl38  1  0.16985600  0.66589400  0.07571000  1
  Cl  Cl39  1  0.33333333  0.51910867  0.41666667  1
  Cl  Cl40  1  0.48089133  0.81422467  0.41666667  1
  Cl  Cl41  1  0.17062867  0.50318933  0.25762333  1
  Cl  Cl42  1  0.18577533  0.66666667  0.41666667  1
  Cl  Cl43  1  0.50318933  0.17062867  0.24237667  1
  Cl  Cl44  1  0.49681067  0.66743933  0.25762333  1
  Cl  Cl45  1  0.99922733  0.83652267  0.09095667  1
  Cl  Cl46  1  0.83729533  0.00077267  0.09095667  1
  Cl  Cl47  1  0.66743933  0.49681067  0.24237667  1
  Cl  Cl48  1  0.85244200  0.85244200  0.25000000  1
  Cl  Cl49  1  0.14755800  0.00000000  0.25000000  1
  Cl  Cl50  1  0.16270467  0.16347733  0.40904333  1
  Cl  Cl51  1  0.83014400  0.49603800  0.42429000  1
  Cl  Cl52  1  0.49603800  0.66589400  0.57571000  1
  Cl  Cl53  1  0.00077267  0.83729533  0.40904333  1
  Cl  Cl54  1  0.00000000  0.14755800  0.25000000  1
  Cl  Cl55  1  0.99922733  0.16270467  0.59095667  1
  Cl  Cl56  1  0.83652267  0.99922733  0.40904333  1
  Cl  Cl57  1  0.00000000  0.85244200  0.75000000  1
  Cl  Cl58  1  0.14755800  0.14755800  0.75000000  1
  Cl  Cl59  1  0.83729533  0.83652267  0.59095667  1
  Cl  Cl60  1  0.85244200  0.00000000  0.75000000  1
  Cl  Cl61  1  0.16985600  0.50396200  0.57571000  1
  Cl  Cl62  1  0.16347733  0.00077267  0.59095667  1
  Cl  Cl63  1  0.66589400  0.16985600  0.42429000  1
  Cl  Cl64  1  0.50396200  0.33410600  0.42429000  1
  Cl  Cl65  1  0.33410600  0.83014400  0.57571000  1
  Cl  Cl66  1  0.51910867  0.18577533  0.58333333  1
  Cl  Cl67  1  0.81422467  0.33333333  0.58333333  1
  Cl  Cl68  1  0.82937133  0.49681067  0.74237667  1
  Cl  Cl69  1  0.49681067  0.82937133  0.75762333  1
  Cl  Cl70  1  0.16270467  0.99922733  0.90904333  1
  Cl  Cl71  1  0.66743933  0.17062867  0.74237667  1
  Cl  Cl72  1  0.66666667  0.48089133  0.58333333  1
  Cl  Cl73  1  0.66589400  0.49603800  0.92429000  1
  Cl  Cl74  1  0.50318933  0.33256067  0.74237667  1
  Cl  Cl75  1  0.66666667  0.18577533  0.08333333  1
  Cl  Cl76  1  0.81422467  0.48089133  0.08333333  1
  Cl  Cl77  1  0.50396200  0.16985600  0.92429000  1
  Cl  Cl78  1  0.51910867  0.33333333  0.08333333  1
  Cl  Cl79  1  0.83652267  0.83729533  0.90904333  1
  Cl  Cl80  1  0.83014400  0.33410600  0.92429000  1
  Cl  Cl81  1  0.33256067  0.50318933  0.75762333  1
  Cl  Cl82  1  0.17062867  0.66743933  0.75762333  1
  Cl  Cl83  1  0.00077267  0.16347733  0.90904333  1
