# generated using pymatgen
data_AgPb2Br5
_symmetry_space_group_name_H-M   'P 1'
_cell_length_a   16.86681800
_cell_length_b   7.18467000
_cell_length_c   8.09200719
_cell_angle_alpha   90.00000000
_cell_angle_beta   95.88754358
_cell_angle_gamma   90.00000000
_symmetry_Int_Tables_number   1
_chemical_formula_structural   AgPb2Br5
_chemical_formula_sum   'Ag4 Pb8 Br20'
_cell_volume   975.43725574
_cell_formula_units_Z   4
loop_
 _symmetry_equiv_pos_site_id
 _symmetry_equiv_pos_as_xyz
  1  'x, y, z'
loop_
 _atom_site_type_symbol
 _atom_site_label
 _atom_site_symmetry_multiplicity
 _atom_site_fract_x
 _atom_site_fract_y
 _atom_site_fract_z
 _atom_site_occupancy
  Ag  Ag0  1  0.75000000  0.25000000  0.00000000  1
  Ag  Ag1  1  0.75000000  0.75000000  0.50000000  1
  Ag  Ag2  1  0.25000000  0.75000000  0.00000000  1
  Ag  Ag3  1  0.25000000  0.25000000  0.50000000  1
  Pb  Pb4  1  0.89632800  0.76749400  0.93625800  1
  Pb  Pb5  1  0.60367200  0.73250600  0.06374200  1
  Pb  Pb6  1  0.89632800  0.23250600  0.43625800  1
  Pb  Pb7  1  0.60367200  0.26749400  0.56374200  1
  Pb  Pb8  1  0.39632800  0.26749400  0.93625800  1
  Pb  Pb9  1  0.10367200  0.23250600  0.06374200  1
  Pb  Pb10  1  0.39632800  0.73250600  0.43625800  1
  Pb  Pb11  1  0.10367200  0.76749400  0.56374200  1
  Br  Br12  1  0.77925050  0.91505550  0.18025100  1
  Br  Br13  1  0.00000000  0.92596400  0.25000000  1
  Br  Br14  1  0.72074950  0.58494450  0.81974900  1
  Br  Br15  1  0.58771900  0.88367700  0.42057500  1
  Br  Br16  1  0.58771900  0.11632300  0.92057500  1
  Br  Br17  1  0.91228100  0.61632300  0.57942500  1
  Br  Br18  1  0.91228100  0.38367700  0.07942500  1
  Br  Br19  1  0.72074950  0.41505550  0.31974900  1
  Br  Br20  1  0.77925050  0.08494450  0.68025100  1
  Br  Br21  1  0.00000000  0.07403600  0.75000000  1
  Br  Br22  1  0.27925050  0.41505550  0.18025100  1
  Br  Br23  1  0.50000000  0.42596400  0.25000000  1
  Br  Br24  1  0.22074950  0.08494450  0.81974900  1
  Br  Br25  1  0.08771900  0.38367700  0.42057500  1
  Br  Br26  1  0.08771900  0.61632300  0.92057500  1
  Br  Br27  1  0.41228100  0.11632300  0.57942500  1
  Br  Br28  1  0.41228100  0.88367700  0.07942500  1
  Br  Br29  1  0.22074950  0.91505550  0.31974900  1
  Br  Br30  1  0.27925050  0.58494450  0.68025100  1
  Br  Br31  1  0.50000000  0.57403600  0.75000000  1
