# generated using pymatgen
data_NaTbO2
_symmetry_space_group_name_H-M   'P 1'
_cell_length_a   4.64321000
_cell_length_b   4.64321000
_cell_length_c   10.51345200
_cell_angle_alpha   90.00000000
_cell_angle_beta   90.00000000
_cell_angle_gamma   90.00000000
_symmetry_Int_Tables_number   1
_chemical_formula_structural   NaTbO2
_chemical_formula_sum   'Na4 Tb4 O8'
_cell_volume   226.66370763
_cell_formula_units_Z   4
loop_
 _symmetry_equiv_pos_site_id
 _symmetry_equiv_pos_as_xyz
  1  'x, y, z'
loop_
 _atom_site_type_symbol
 _atom_site_label
 _atom_site_symmetry_multiplicity
 _atom_site_fract_x
 _atom_site_fract_y
 _atom_site_fract_z
 _atom_site_occupancy
  Na  Na0  1  0.00000000  0.00000000  0.00000000  1
  Na  Na1  1  0.00000000  0.50000000  0.25000000  1
  Na  Na2  1  0.50000000  0.50000000  0.50000000  1
  Na  Na3  1  0.50000000  0.00000000  0.75000000  1
  Tb  Tb4  1  0.50000000  0.00000000  0.25000000  1
  Tb  Tb5  1  0.50000000  0.50000000  0.00000000  1
  Tb  Tb6  1  0.00000000  0.50000000  0.75000000  1
  Tb  Tb7  1  0.00000000  0.00000000  0.50000000  1
  O  O8  1  0.00000000  0.00000000  0.27990100  1
  O  O9  1  0.50000000  0.00000000  0.02990100  1
  O  O10  1  0.50000000  0.50000000  0.22009900  1
  O  O11  1  0.50000000  0.00000000  0.47009900  1
  O  O12  1  0.50000000  0.50000000  0.77990100  1
  O  O13  1  0.00000000  0.50000000  0.52990100  1
  O  O14  1  0.00000000  0.00000000  0.72009900  1
  O  O15  1  0.00000000  0.50000000  0.97009900  1
