# generated using pymatgen
data_MgH12(ClO3)2
_symmetry_space_group_name_H-M   'P 1'
_cell_length_a   9.93590600
_cell_length_b   7.14105200
_cell_length_c   6.10979757
_cell_angle_alpha   90.00000000
_cell_angle_beta   93.89972124
_cell_angle_gamma   90.00000000
_symmetry_Int_Tables_number   1
_chemical_formula_structural   MgH12(ClO3)2
_chemical_formula_sum   'Mg2 H24 Cl4 O12'
_cell_volume   432.50363680
_cell_formula_units_Z   2
loop_
 _symmetry_equiv_pos_site_id
 _symmetry_equiv_pos_as_xyz
  1  'x, y, z'
loop_
 _atom_site_type_symbol
 _atom_site_label
 _atom_site_symmetry_multiplicity
 _atom_site_fract_x
 _atom_site_fract_y
 _atom_site_fract_z
 _atom_site_occupancy
  Mg  Mg0  1  0.00000000  0.00000000  0.00000000  1
  Mg  Mg1  1  0.50000000  0.50000000  0.00000000  1
  H  H2  1  0.76125700  0.00000000  0.73893900  1
  H  H3  1  0.23874300  0.00000000  0.26106100  1
  H  H4  1  0.72856800  0.00000000  0.99328200  1
  H  H5  1  0.27143200  0.00000000  0.00671800  1
  H  H6  1  0.47784100  0.80143000  0.72034300  1
  H  H7  1  0.47784100  0.19857000  0.72034300  1
  H  H8  1  0.52215900  0.19857000  0.27965700  1
  H  H9  1  0.52215900  0.80143000  0.27965700  1
  H  H10  1  0.61768950  0.69824050  0.68272100  1
  H  H11  1  0.61768950  0.30175950  0.68272100  1
  H  H12  1  0.38231050  0.30175950  0.31727900  1
  H  H13  1  0.38231050  0.69824050  0.31727900  1
  H  H14  1  0.26125700  0.50000000  0.73893900  1
  H  H15  1  0.73874300  0.50000000  0.26106100  1
  H  H16  1  0.22856800  0.50000000  0.99328200  1
  H  H17  1  0.77143200  0.50000000  0.00671800  1
  H  H18  1  0.97784100  0.30143000  0.72034300  1
  H  H19  1  0.97784100  0.69857000  0.72034300  1
  H  H20  1  0.02215900  0.69857000  0.27965700  1
  H  H21  1  0.02215900  0.30143000  0.27965700  1
  H  H22  1  0.11768950  0.19824050  0.68272100  1
  H  H23  1  0.11768950  0.80175950  0.68272100  1
  H  H24  1  0.88231050  0.80175950  0.31727900  1
  H  H25  1  0.88231050  0.19824050  0.31727900  1
  Cl  Cl26  1  0.68239100  0.00000000  0.38759600  1
  Cl  Cl27  1  0.31760900  0.00000000  0.61240400  1
  Cl  Cl28  1  0.18239100  0.50000000  0.38759600  1
  Cl  Cl29  1  0.81760900  0.50000000  0.61240400  1
  O  O30  1  0.80047500  0.00000000  0.89076100  1
  O  O31  1  0.19952500  0.00000000  0.10923900  1
  O  O32  1  0.54253500  0.70653400  0.77865700  1
  O  O33  1  0.54253500  0.29346600  0.77865700  1
  O  O34  1  0.45746500  0.29346600  0.22134300  1
  O  O35  1  0.45746500  0.70653400  0.22134300  1
  O  O36  1  0.30047500  0.50000000  0.89076100  1
  O  O37  1  0.69952500  0.50000000  0.10923900  1
  O  O38  1  0.04253500  0.20653400  0.77865700  1
  O  O39  1  0.04253500  0.79346600  0.77865700  1
  O  O40  1  0.95746500  0.79346600  0.22134300  1
  O  O41  1  0.95746500  0.20653400  0.22134300  1
