# generated using pymatgen
data_Y2Th8O19
_symmetry_space_group_name_H-M   'P 1'
_cell_length_a   5.59578075
_cell_length_b   5.59579206
_cell_length_c   27.94028462
_cell_angle_alpha   90.00000000
_cell_angle_beta   90.05831193
_cell_angle_gamma   90.00000000
_symmetry_Int_Tables_number   1
_chemical_formula_structural   Y2Th8O19
_chemical_formula_sum   'Y4 Th16 O38'
_cell_volume   874.88880292
_cell_formula_units_Z   2
loop_
 _symmetry_equiv_pos_site_id
 _symmetry_equiv_pos_as_xyz
  1  'x, y, z'
loop_
 _atom_site_type_symbol
 _atom_site_label
 _atom_site_symmetry_multiplicity
 _atom_site_fract_x
 _atom_site_fract_y
 _atom_site_fract_z
 _atom_site_occupancy
  Y  Y0  1  0.74610500  0.25349100  0.05577950  1
  Y  Y1  1  0.25389500  0.25349100  0.94422050  1
  Y  Y2  1  0.24610500  0.75349100  0.05577950  1
  Y  Y3  1  0.75389500  0.75349100  0.94422050  1
  Th  Th4  1  0.25008250  0.75110150  0.85204350  1
  Th  Th5  1  0.24856250  0.24985950  0.75086250  1
  Th  Th6  1  0.74917750  0.24858150  0.65042750  1
  Th  Th7  1  0.24922400  0.24794600  0.55020750  1
  Th  Th8  1  0.25077600  0.74794600  0.44979250  1
  Th  Th9  1  0.25082250  0.24858150  0.34957250  1
  Th  Th10  1  0.25143750  0.74985950  0.24913750  1
  Th  Th11  1  0.24991750  0.25110150  0.14795650  1
  Th  Th12  1  0.75008250  0.25110150  0.85204350  1
  Th  Th13  1  0.74856250  0.74985950  0.75086250  1
  Th  Th14  1  0.24917750  0.74858150  0.65042750  1
  Th  Th15  1  0.74922400  0.74794600  0.55020750  1
  Th  Th16  1  0.75077600  0.24794600  0.44979250  1
  Th  Th17  1  0.75082250  0.74858150  0.34957250  1
  Th  Th18  1  0.75143750  0.24985950  0.24913750  1
  Th  Th19  1  0.74991750  0.75110150  0.14795650  1
  O  O20  1  0.49909150  0.00073750  0.80350250  1
  O  O21  1  0.49899600  0.49913600  0.70013450  1
  O  O22  1  0.49975150  0.99818450  0.60029150  1
  O  O23  1  0.50000000  0.49775300  0.50000000  1
  O  O24  1  0.00024850  0.49818450  0.39970850  1
  O  O25  1  0.50100400  0.49913600  0.29986550  1
  O  O26  1  0.50090850  0.00073750  0.19649750  1
  O  O27  1  0.99835650  0.00168550  0.10284050  1
  O  O28  1  0.00137800  0.99940500  0.20095150  1
  O  O29  1  0.49805600  0.00175700  0.09105950  1
  O  O30  1  0.50000000  0.49585400  0.00000000  1
  O  O31  1  0.00164350  0.00168550  0.89715950  1
  O  O32  1  0.50194400  0.00175700  0.90894050  1
  O  O33  1  0.49862200  0.49940500  0.79904850  1
  O  O34  1  0.49870300  0.99947900  0.70128650  1
  O  O35  1  0.49940050  0.49825150  0.60026550  1
  O  O36  1  0.50000000  0.99778850  0.50000000  1
  O  O37  1  0.50059950  0.49825150  0.39973450  1
  O  O38  1  0.00129700  0.49947900  0.29871350  1
  O  O39  1  0.99909150  0.50073750  0.80350250  1
  O  O40  1  0.99899600  0.99913600  0.70013450  1
  O  O41  1  0.99975150  0.49818450  0.60029150  1
  O  O42  1  0.00000000  0.99775300  0.50000000  1
  O  O43  1  0.50024850  0.99818450  0.39970850  1
  O  O44  1  0.00100400  0.99913600  0.29986550  1
  O  O45  1  0.00090850  0.50073750  0.19649750  1
  O  O46  1  0.49835650  0.50168550  0.10284050  1
  O  O47  1  0.50137800  0.49940500  0.20095150  1
  O  O48  1  0.99805600  0.50175700  0.09105950  1
  O  O49  1  0.00000000  0.99585400  0.00000000  1
  O  O50  1  0.50164350  0.50168550  0.89715950  1
  O  O51  1  0.00194400  0.50175700  0.90894050  1
  O  O52  1  0.99862200  0.99940500  0.79904850  1
  O  O53  1  0.99870300  0.49947900  0.70128650  1
  O  O54  1  0.99940050  0.99825150  0.60026550  1
  O  O55  1  0.00000000  0.49778850  0.50000000  1
  O  O56  1  0.00059950  0.99825150  0.39973450  1
  O  O57  1  0.50129700  0.99947900  0.29871350  1
