# generated using pymatgen
data_Na2Cd3Si3O10
_symmetry_space_group_name_H-M   'P 1'
_cell_length_a   16.80694800
_cell_length_b   5.18772000
_cell_length_c   11.15158499
_cell_angle_alpha   90.00000000
_cell_angle_beta   94.39487392
_cell_angle_gamma   90.00000000
_symmetry_Int_Tables_number   1
_chemical_formula_structural   Na2Cd3Si3O10
_chemical_formula_sum   'Na8 Cd12 Si12 O40'
_cell_volume   969.44484826
_cell_formula_units_Z   4
loop_
 _symmetry_equiv_pos_site_id
 _symmetry_equiv_pos_as_xyz
  1  'x, y, z'
loop_
 _atom_site_type_symbol
 _atom_site_label
 _atom_site_symmetry_multiplicity
 _atom_site_fract_x
 _atom_site_fract_y
 _atom_site_fract_z
 _atom_site_occupancy
  Na  Na0  1  0.95207150  0.76331950  0.53218100  1
  Na  Na1  1  0.54792850  0.26331950  0.96781900  1
  Na  Na2  1  0.54792850  0.73668050  0.46781900  1
  Na  Na3  1  0.95207150  0.23668050  0.03218100  1
  Na  Na4  1  0.45207150  0.26331950  0.53218100  1
  Na  Na5  1  0.04792850  0.76331950  0.96781900  1
  Na  Na6  1  0.04792850  0.23668050  0.46781900  1
  Na  Na7  1  0.45207150  0.73668050  0.03218100  1
  Cd  Cd8  1  0.65848700  0.28791900  0.70511500  1
  Cd  Cd9  1  0.84151300  0.78791900  0.79488500  1
  Cd  Cd10  1  0.84151300  0.21208100  0.29488500  1
  Cd  Cd11  1  0.65848700  0.71208100  0.20511500  1
  Cd  Cd12  1  0.75000000  0.75000000  0.50000000  1
  Cd  Cd13  1  0.75000000  0.25000000  0.00000000  1
  Cd  Cd14  1  0.15848700  0.78791900  0.70511500  1
  Cd  Cd15  1  0.34151300  0.28791900  0.79488500  1
  Cd  Cd16  1  0.34151300  0.71208100  0.29488500  1
  Cd  Cd17  1  0.15848700  0.21208100  0.20511500  1
  Cd  Cd18  1  0.25000000  0.25000000  0.50000000  1
  Cd  Cd19  1  0.25000000  0.75000000  0.00000000  1
  Si  Si20  1  0.84944900  0.30789300  0.60155800  1
  Si  Si21  1  0.65055100  0.80789300  0.89844200  1
  Si  Si22  1  0.65055100  0.19210700  0.39844200  1
  Si  Si23  1  0.84944900  0.69210700  0.10155800  1
  Si  Si24  1  0.00000000  0.18056500  0.75000000  1
  Si  Si25  1  0.00000000  0.81943500  0.25000000  1
  Si  Si26  1  0.34944900  0.80789300  0.60155800  1
  Si  Si27  1  0.15055100  0.30789300  0.89844200  1
  Si  Si28  1  0.15055100  0.69210700  0.39844200  1
  Si  Si29  1  0.34944900  0.19210700  0.10155800  1
  Si  Si30  1  0.50000000  0.68056500  0.75000000  1
  Si  Si31  1  0.50000000  0.31943500  0.25000000  1
  O  O32  1  0.84238850  0.99409550  0.60404800  1
  O  O33  1  0.65761150  0.49409550  0.89595200  1
  O  O34  1  0.65761150  0.50590450  0.39595200  1
  O  O35  1  0.84238850  0.00590450  0.10404800  1
  O  O36  1  0.78072550  0.46587050  0.67123400  1
  O  O37  1  0.71927450  0.96587050  0.82876600  1
  O  O38  1  0.71927450  0.03412950  0.32876600  1
  O  O39  1  0.78072550  0.53412950  0.17123400  1
  O  O40  1  0.93790550  0.38661050  0.67331100  1
  O  O41  1  0.56209450  0.88661050  0.82668900  1
  O  O42  1  0.56209450  0.11338950  0.32668900  1
  O  O43  1  0.93790550  0.61338950  0.17331100  1
  O  O44  1  0.54563100  0.51392700  0.65226500  1
  O  O45  1  0.95436900  0.01392700  0.84773500  1
  O  O46  1  0.95436900  0.98607300  0.34773500  1
  O  O47  1  0.54563100  0.48607300  0.15226500  1
  O  O48  1  0.64818700  0.93930700  0.03215000  1
  O  O49  1  0.85181300  0.43930700  0.46785000  1
  O  O50  1  0.85181300  0.56069300  0.96785000  1
  O  O51  1  0.64818700  0.06069300  0.53215000  1
  O  O52  1  0.34238850  0.49409550  0.60404800  1
  O  O53  1  0.15761150  0.99409550  0.89595200  1
  O  O54  1  0.15761150  0.00590450  0.39595200  1
  O  O55  1  0.34238850  0.50590450  0.10404800  1
  O  O56  1  0.28072550  0.96587050  0.67123400  1
  O  O57  1  0.21927450  0.46587050  0.82876600  1
  O  O58  1  0.21927450  0.53412950  0.32876600  1
  O  O59  1  0.28072550  0.03412950  0.17123400  1
  O  O60  1  0.43790550  0.88661050  0.67331100  1
  O  O61  1  0.06209450  0.38661050  0.82668900  1
  O  O62  1  0.06209450  0.61338950  0.32668900  1
  O  O63  1  0.43790550  0.11338950  0.17331100  1
  O  O64  1  0.04563100  0.01392700  0.65226500  1
  O  O65  1  0.45436900  0.51392700  0.84773500  1
  O  O66  1  0.45436900  0.48607300  0.34773500  1
  O  O67  1  0.04563100  0.98607300  0.15226500  1
  O  O68  1  0.14818700  0.43930700  0.03215000  1
  O  O69  1  0.35181300  0.93930700  0.46785000  1
  O  O70  1  0.35181300  0.06069300  0.96785000  1
  O  O71  1  0.14818700  0.56069300  0.53215000  1
