# generated using pymatgen
data_Li11TiSb5
_symmetry_space_group_name_H-M   'P 1'
_cell_length_a   15.23566200
_cell_length_b   4.56549000
_cell_length_c   11.34702247
_cell_angle_alpha   90.00000000
_cell_angle_beta   117.89485728
_cell_angle_gamma   90.00000000
_symmetry_Int_Tables_number   1
_chemical_formula_structural   Li11TiSb5
_chemical_formula_sum   'Li22 Ti2 Sb10'
_cell_volume   697.57094798
_cell_formula_units_Z   2
loop_
 _symmetry_equiv_pos_site_id
 _symmetry_equiv_pos_as_xyz
  1  'x, y, z'
loop_
 _atom_site_type_symbol
 _atom_site_label
 _atom_site_symmetry_multiplicity
 _atom_site_fract_x
 _atom_site_fract_y
 _atom_site_fract_z
 _atom_site_occupancy
  Li  Li0  1  0.30222700  0.50000000  0.92997300  1
  Li  Li1  1  0.89205700  0.50000000  0.34842300  1
  Li  Li2  1  0.89701700  0.50000000  0.09837800  1
  Li  Li3  1  0.39620100  0.00000000  0.84772900  1
  Li  Li4  1  0.98510500  0.00000000  0.74244600  1
  Li  Li5  1  0.01009600  0.00000000  0.25632400  1
  Li  Li6  1  0.10347800  0.50000000  0.91382100  1
  Li  Li7  1  0.61450000  0.00000000  0.16376900  1
  Li  Li8  1  0.08749700  0.50000000  0.64375400  1
  Li  Li9  1  0.70257000  0.50000000  0.06851200  1
  Li  Li10  1  0.80395100  0.00000000  0.43621300  1
  Li  Li11  1  0.80222700  0.00000000  0.92997300  1
  Li  Li12  1  0.39205700  0.00000000  0.34842300  1
  Li  Li13  1  0.39701700  0.00000000  0.09837800  1
  Li  Li14  1  0.89620100  0.50000000  0.84772900  1
  Li  Li15  1  0.48510500  0.50000000  0.74244600  1
  Li  Li16  1  0.51009600  0.50000000  0.25632400  1
  Li  Li17  1  0.60347800  0.00000000  0.91382100  1
  Li  Li18  1  0.11450000  0.50000000  0.16376900  1
  Li  Li19  1  0.58749700  0.00000000  0.64375400  1
  Li  Li20  1  0.20257000  0.00000000  0.06851200  1
  Li  Li21  1  0.30395100  0.50000000  0.43621300  1
  Ti  Ti22  1  0.20299300  0.00000000  0.55860100  1
  Ti  Ti23  1  0.70299300  0.50000000  0.55860100  1
  Sb  Sb24  1  0.50403700  0.50000000  0.00295100  1
  Sb  Sb25  1  0.10974700  0.50000000  0.41599500  1
  Sb  Sb26  1  0.19203100  0.00000000  0.78953200  1
  Sb  Sb27  1  0.88800400  0.50000000  0.59810100  1
  Sb  Sb28  1  0.80848900  0.00000000  0.18547700  1
  Sb  Sb29  1  0.00403700  0.00000000  0.00295100  1
  Sb  Sb30  1  0.60974700  0.00000000  0.41599500  1
  Sb  Sb31  1  0.69203100  0.50000000  0.78953200  1
  Sb  Sb32  1  0.38800400  0.00000000  0.59810100  1
  Sb  Sb33  1  0.30848900  0.50000000  0.18547700  1
