# generated using pymatgen
data_BaSn2(HO2)2
_symmetry_space_group_name_H-M   'P 1'
_cell_length_a   7.30907700
_cell_length_b   5.89411700
_cell_length_c   7.66501825
_cell_angle_alpha   90.00000000
_cell_angle_beta   108.12881254
_cell_angle_gamma   90.00000000
_symmetry_Int_Tables_number   1
_chemical_formula_structural   BaSn2(HO2)2
_chemical_formula_sum   'Ba2 Sn4 H4 O8'
_cell_volume   313.82125067
_cell_formula_units_Z   2
loop_
 _symmetry_equiv_pos_site_id
 _symmetry_equiv_pos_as_xyz
  1  'x, y, z'
loop_
 _atom_site_type_symbol
 _atom_site_label
 _atom_site_symmetry_multiplicity
 _atom_site_fract_x
 _atom_site_fract_y
 _atom_site_fract_z
 _atom_site_occupancy
  Ba  Ba0  1  0.81065100  0.50578900  0.56823000  1
  Ba  Ba1  1  0.18934900  0.00578900  0.43177000  1
  Sn  Sn2  1  0.34790200  0.49595500  0.85391400  1
  Sn  Sn3  1  0.65209800  0.99595500  0.14608600  1
  Sn  Sn4  1  0.91187600  0.49655400  0.11129800  1
  Sn  Sn5  1  0.08812400  0.99655400  0.88870200  1
  H  H6  1  0.36735000  0.49402800  0.52017300  1
  H  H7  1  0.63265000  0.99402800  0.47982700  1
  H  H8  1  0.29089700  0.49780200  0.21287400  1
  H  H9  1  0.70910300  0.99780200  0.78712600  1
  O  O10  1  0.85917400  0.74992300  0.27717400  1
  O  O11  1  0.14082600  0.24992300  0.72282600  1
  O  O12  1  0.14970200  0.74897000  0.72127300  1
  O  O13  1  0.85029800  0.24897000  0.27872700  1
  O  O14  1  0.47023900  0.47999400  0.64011000  1
  O  O15  1  0.52976100  0.97999400  0.35989000  1
  O  O16  1  0.20681700  0.49098500  0.29089300  1
  O  O17  1  0.79318300  0.99098500  0.70910700  1
