# generated using pymatgen
data_SbSNF6
_symmetry_space_group_name_H-M   'P 1'
_cell_length_a   8.49527600
_cell_length_b   10.58858500
_cell_length_c   14.15977700
_cell_angle_alpha   90.00000000
_cell_angle_beta   90.00000000
_cell_angle_gamma   90.00000000
_symmetry_Int_Tables_number   1
_chemical_formula_structural   SbSNF6
_chemical_formula_sum   'Sb8 S8 N8 F48'
_cell_volume   1273.71374116
_cell_formula_units_Z   8
loop_
 _symmetry_equiv_pos_site_id
 _symmetry_equiv_pos_as_xyz
  1  'x, y, z'
loop_
 _atom_site_type_symbol
 _atom_site_label
 _atom_site_symmetry_multiplicity
 _atom_site_fract_x
 _atom_site_fract_y
 _atom_site_fract_z
 _atom_site_occupancy
  Sb  Sb0  1  0.77274600  0.01462300  0.12344300  1
  Sb  Sb1  1  0.72725400  0.98537700  0.62344300  1
  Sb  Sb2  1  0.77274600  0.48537700  0.62344300  1
  Sb  Sb3  1  0.22725400  0.98537700  0.87655700  1
  Sb  Sb4  1  0.22725400  0.51462300  0.37655700  1
  Sb  Sb5  1  0.27274600  0.01462300  0.37655700  1
  Sb  Sb6  1  0.72725400  0.51462300  0.12344300  1
  Sb  Sb7  1  0.27274600  0.48537700  0.87655700  1
  S  S8  1  0.68590500  0.74623600  0.87996100  1
  S  S9  1  0.68590500  0.75376400  0.37996100  1
  S  S10  1  0.18590500  0.74623600  0.62003900  1
  S  S11  1  0.18590500  0.75376400  0.12003900  1
  S  S12  1  0.31409500  0.24623600  0.62003900  1
  S  S13  1  0.31409500  0.25376400  0.12003900  1
  S  S14  1  0.81409500  0.24623600  0.87996100  1
  S  S15  1  0.81409500  0.25376400  0.37996100  1
  N  N16  1  0.65757100  0.19603400  0.87685800  1
  N  N17  1  0.84242900  0.69603400  0.87685800  1
  N  N18  1  0.34242900  0.80396600  0.12314200  1
  N  N19  1  0.15757100  0.19603400  0.62314200  1
  N  N20  1  0.34242900  0.69603400  0.62314200  1
  N  N21  1  0.84242900  0.80396600  0.37685800  1
  N  N22  1  0.65757100  0.30396600  0.37685800  1
  N  N23  1  0.15757100  0.30396600  0.12314200  1
  F  F24  1  0.96335400  0.58410200  0.63349000  1
  F  F25  1  0.08794000  0.38263800  0.88778100  1
  F  F26  1  0.22408700  0.56584100  0.99497900  1
  F  F27  1  0.33934300  0.38809900  0.30840900  1
  F  F28  1  0.72408700  0.56584100  0.50502100  1
  F  F29  1  0.38841600  0.35802700  0.94423400  1
  F  F30  1  0.11158400  0.64197300  0.44423400  1
  F  F31  1  0.96335400  0.91589800  0.13349000  1
  F  F32  1  0.32414700  0.09503000  0.25801900  1
  F  F33  1  0.17585300  0.90497000  0.75801900  1
  F  F34  1  0.83934300  0.38809900  0.19159100  1
  F  F35  1  0.66065700  0.88809900  0.19159100  1
  F  F36  1  0.61158400  0.85802700  0.55576600  1
  F  F37  1  0.16065700  0.61190100  0.80840900  1
  F  F38  1  0.41206000  0.88263800  0.88778100  1
  F  F39  1  0.16065700  0.88809900  0.30840900  1
  F  F40  1  0.53664600  0.08410200  0.63349000  1
  F  F41  1  0.58794000  0.11736200  0.11221900  1
  F  F42  1  0.27591300  0.43415900  0.49497900  1
  F  F43  1  0.91206000  0.88263800  0.61221900  1
  F  F44  1  0.88841600  0.35802700  0.55576600  1
  F  F45  1  0.88841600  0.14197300  0.05576600  1
  F  F46  1  0.77591300  0.43415900  0.00502100  1
  F  F47  1  0.33934300  0.11190100  0.80840900  1
  F  F48  1  0.41206000  0.61736200  0.38778100  1
  F  F49  1  0.58794000  0.38263800  0.61221900  1
  F  F50  1  0.32414700  0.40497000  0.75801900  1
  F  F51  1  0.17585300  0.59503000  0.25801900  1
  F  F52  1  0.66065700  0.61190100  0.69159100  1
  F  F53  1  0.11158400  0.85802700  0.94423400  1
  F  F54  1  0.82414700  0.09503000  0.24198100  1
  F  F55  1  0.22408700  0.93415900  0.49497900  1
  F  F56  1  0.03664600  0.41589800  0.36651000  1
  F  F57  1  0.38841600  0.14197300  0.44423400  1
  F  F58  1  0.91206000  0.61736200  0.11221900  1
  F  F59  1  0.27591300  0.06584100  0.99497900  1
  F  F60  1  0.53664600  0.41589800  0.13349000  1
  F  F61  1  0.46335400  0.91589800  0.36651000  1
  F  F62  1  0.46335400  0.58410200  0.86651000  1
  F  F63  1  0.67585300  0.90497000  0.74198100  1
  F  F64  1  0.72408700  0.93415900  0.00502100  1
  F  F65  1  0.08794000  0.11736200  0.38778100  1
  F  F66  1  0.82414700  0.40497000  0.74198100  1
  F  F67  1  0.03664600  0.08410200  0.86651000  1
  F  F68  1  0.77591300  0.06584100  0.50502100  1
  F  F69  1  0.67585300  0.59503000  0.24198100  1
  F  F70  1  0.61158400  0.64197300  0.05576600  1
  F  F71  1  0.83934300  0.11190100  0.69159100  1
