# generated using pymatgen
data_Fe2CuH4(OF4)2
_symmetry_space_group_name_H-M   'P 1'
_cell_length_a   7.63599483
_cell_length_b   7.64167600
_cell_length_c   13.19835777
_cell_angle_alpha   90.00000000
_cell_angle_beta   90.61794504
_cell_angle_gamma   90.00000000
_symmetry_Int_Tables_number   1
_chemical_formula_structural   Fe2CuH4(OF4)2
_chemical_formula_sum   'Fe8 Cu4 H16 O8 F32'
_cell_volume   770.10312059
_cell_formula_units_Z   4
loop_
 _symmetry_equiv_pos_site_id
 _symmetry_equiv_pos_as_xyz
  1  'x, y, z'
loop_
 _atom_site_type_symbol
 _atom_site_label
 _atom_site_symmetry_multiplicity
 _atom_site_fract_x
 _atom_site_fract_y
 _atom_site_fract_z
 _atom_site_occupancy
  Fe  Fe0  1  0.25023500  0.54422700  0.24721100  1
  Fe  Fe1  1  0.74976500  0.54422700  0.25278900  1
  Fe  Fe2  1  0.74976500  0.45577300  0.75278900  1
  Fe  Fe3  1  0.25023500  0.45577300  0.74721100  1
  Fe  Fe4  1  0.75023500  0.04422700  0.24721100  1
  Fe  Fe5  1  0.24976500  0.04422700  0.25278900  1
  Fe  Fe6  1  0.24976500  0.95577300  0.75278900  1
  Fe  Fe7  1  0.75023500  0.95577300  0.74721100  1
  Cu  Cu8  1  0.25000000  0.75000000  0.50000000  1
  Cu  Cu9  1  0.75000000  0.75000000  0.00000000  1
  Cu  Cu10  1  0.75000000  0.25000000  0.50000000  1
  Cu  Cu11  1  0.25000000  0.25000000  0.00000000  1
  H  H12  1  0.08062050  0.67099450  0.03802500  1
  H  H13  1  0.91937950  0.67099450  0.46197500  1
  H  H14  1  0.91937950  0.32900550  0.96197500  1
  H  H15  1  0.08062050  0.32900550  0.53802500  1
  H  H16  1  0.92363100  0.16687500  0.04084000  1
  H  H17  1  0.07636900  0.16687500  0.45916000  1
  H  H18  1  0.07636900  0.83312500  0.95916000  1
  H  H19  1  0.92363100  0.83312500  0.54084000  1
  H  H20  1  0.58062050  0.17099450  0.03802500  1
  H  H21  1  0.41937950  0.17099450  0.46197500  1
  H  H22  1  0.41937950  0.82900550  0.96197500  1
  H  H23  1  0.58062050  0.82900550  0.53802500  1
  H  H24  1  0.42363100  0.66687500  0.04084000  1
  H  H25  1  0.57636900  0.66687500  0.45916000  1
  H  H26  1  0.57636900  0.33312500  0.95916000  1
  H  H27  1  0.42363100  0.33312500  0.54084000  1
  O  O28  1  0.00474800  0.74988200  0.99822600  1
  O  O29  1  0.99525200  0.74988200  0.50177400  1
  O  O30  1  0.99525200  0.25011800  0.00177400  1
  O  O31  1  0.00474800  0.25011800  0.49822600  1
  O  O32  1  0.50474800  0.24988200  0.99822600  1
  O  O33  1  0.49525200  0.24988200  0.50177400  1
  O  O34  1  0.49525200  0.75011800  0.00177400  1
  O  O35  1  0.50474800  0.75011800  0.49822600  1
  F  F36  1  0.19560050  0.79700450  0.23185400  1
  F  F37  1  0.80439950  0.79700450  0.26814600  1
  F  F38  1  0.80439950  0.20299550  0.76814600  1
  F  F39  1  0.19560050  0.20299550  0.73185400  1
  F  F40  1  0.24657700  0.57722700  0.39377900  1
  F  F41  1  0.75342300  0.57722700  0.10622100  1
  F  F42  1  0.75342300  0.42277300  0.60622100  1
  F  F43  1  0.24657700  0.42277300  0.89377900  1
  F  F44  1  0.25298250  0.53266550  0.10080300  1
  F  F45  1  0.74701750  0.53266550  0.39919700  1
  F  F46  1  0.74701750  0.46733450  0.89919700  1
  F  F47  1  0.25298250  0.46733450  0.60080300  1
  F  F48  1  0.00000000  0.10144900  0.25000000  1
  F  F49  1  0.00000000  0.89855100  0.75000000  1
  F  F50  1  0.00000000  0.49156700  0.25000000  1
  F  F51  1  0.00000000  0.50843300  0.75000000  1
  F  F52  1  0.69560050  0.29700450  0.23185400  1
  F  F53  1  0.30439950  0.29700450  0.26814600  1
  F  F54  1  0.30439950  0.70299550  0.76814600  1
  F  F55  1  0.69560050  0.70299550  0.73185400  1
  F  F56  1  0.74657700  0.07722700  0.39377900  1
  F  F57  1  0.25342300  0.07722700  0.10622100  1
  F  F58  1  0.25342300  0.92277300  0.60622100  1
  F  F59  1  0.74657700  0.92277300  0.89377900  1
  F  F60  1  0.75298250  0.03266550  0.10080300  1
  F  F61  1  0.24701750  0.03266550  0.39919700  1
  F  F62  1  0.24701750  0.96733450  0.89919700  1
  F  F63  1  0.75298250  0.96733450  0.60080300  1
  F  F64  1  0.50000000  0.60144900  0.25000000  1
  F  F65  1  0.50000000  0.39855100  0.75000000  1
  F  F66  1  0.50000000  0.99156700  0.25000000  1
  F  F67  1  0.50000000  0.00843300  0.75000000  1
