# generated using pymatgen
data_Na2CdH4(SO5)2
_symmetry_space_group_name_H-M   'P 1'
_cell_length_a   5.64887100
_cell_length_b   13.20658600
_cell_length_c   5.97151904
_cell_angle_alpha   90.00000000
_cell_angle_beta   106.00276772
_cell_angle_gamma   90.00000000
_symmetry_Int_Tables_number   1
_chemical_formula_structural   Na2CdH4(SO5)2
_chemical_formula_sum   'Na4 Cd2 H8 S4 O20'
_cell_volume   428.22563587
_cell_formula_units_Z   2
loop_
 _symmetry_equiv_pos_site_id
 _symmetry_equiv_pos_as_xyz
  1  'x, y, z'
loop_
 _atom_site_type_symbol
 _atom_site_label
 _atom_site_symmetry_multiplicity
 _atom_site_fract_x
 _atom_site_fract_y
 _atom_site_fract_z
 _atom_site_occupancy
  Na  Na0  1  0.76378400  0.61747100  0.57900600  1
  Na  Na1  1  0.73621600  0.11747100  0.42099400  1
  Na  Na2  1  0.23621600  0.38252900  0.42099400  1
  Na  Na3  1  0.26378400  0.88252900  0.57900600  1
  Cd  Cd4  1  0.50000000  0.50000000  0.00000000  1
  Cd  Cd5  1  0.00000000  0.00000000  0.00000000  1
  H  H6  1  0.51765900  0.70988500  0.90528800  1
  H  H7  1  0.98234100  0.20988500  0.09471200  1
  H  H8  1  0.48234100  0.29011500  0.09471200  1
  H  H9  1  0.01765900  0.79011500  0.90528800  1
  H  H10  1  0.32454200  0.65958700  0.68587400  1
  H  H11  1  0.17545800  0.15958700  0.31412600  1
  H  H12  1  0.67545800  0.34041300  0.31412600  1
  H  H13  1  0.82454200  0.84041300  0.68587400  1
  S  S14  1  0.08125100  0.61839000  0.23813000  1
  S  S15  1  0.41874900  0.11839000  0.76187000  1
  S  S16  1  0.91874900  0.38161000  0.76187000  1
  S  S17  1  0.58125100  0.88161000  0.23813000  1
  O  O18  1  0.02544900  0.66721000  0.00645900  1
  O  O19  1  0.47455100  0.16721000  0.99354100  1
  O  O20  1  0.97455100  0.33279000  0.99354100  1
  O  O21  1  0.52544900  0.83279000  0.00645900  1
  O  O22  1  0.32184400  0.56131400  0.28731000  1
  O  O23  1  0.17815600  0.06131400  0.71269000  1
  O  O24  1  0.67815600  0.43868600  0.71269000  1
  O  O25  1  0.82184400  0.93868600  0.28731000  1
  O  O26  1  0.88345900  0.54265100  0.24644600  1
  O  O27  1  0.61654100  0.04265100  0.75355400  1
  O  O28  1  0.11654100  0.45734900  0.75355400  1
  O  O29  1  0.38345900  0.95734900  0.24644600  1
  O  O30  1  0.09594600  0.69265700  0.42864100  1
  O  O31  1  0.40405400  0.19265700  0.57135900  1
  O  O32  1  0.90405400  0.30734300  0.57135900  1
  O  O33  1  0.59594600  0.80734300  0.42864100  1
  O  O34  1  0.48614800  0.64867000  0.80281500  1
  O  O35  1  0.01385200  0.14867000  0.19718500  1
  O  O36  1  0.51385200  0.35133000  0.19718500  1
  O  O37  1  0.98614800  0.85133000  0.80281500  1
