# generated using pymatgen
data_Zn2GaP3H8(NO6)2
_symmetry_space_group_name_H-M   'P 1'
_cell_length_a   11.72595300
_cell_length_b   11.95559864
_cell_length_c   12.10696317
_cell_angle_alpha   109.49123496
_cell_angle_beta   107.76871010
_cell_angle_gamma   107.90659063
_symmetry_Int_Tables_number   1
_chemical_formula_structural   Zn2GaP3H8(NO6)2
_chemical_formula_sum   'Zn8 Ga4 P12 H32 N8 O48'
_cell_volume   1356.11460635
_cell_formula_units_Z   4
loop_
 _symmetry_equiv_pos_site_id
 _symmetry_equiv_pos_as_xyz
  1  'x, y, z'
loop_
 _atom_site_type_symbol
 _atom_site_label
 _atom_site_symmetry_multiplicity
 _atom_site_fract_x
 _atom_site_fract_y
 _atom_site_fract_z
 _atom_site_occupancy
  Zn  Zn0  1  0.29898800  0.02313400  0.41943900  1
  Zn  Zn1  1  0.63237600  0.72439600  0.18241500  1
  Zn  Zn2  1  0.74291400  0.43166200  0.48134500  1
  Zn  Zn3  1  0.03239200  0.44740600  0.25724400  1
  Zn  Zn4  1  0.78755800  0.04410100  0.08500400  1
  Zn  Zn5  1  0.79264000  0.25253200  0.72109700  1
  Zn  Zn6  1  0.40695400  0.49968300  0.71374000  1
  Zn  Zn7  1  0.23507400  0.68340200  0.77270400  1
  Ga  Ga8  1  0.02353800  0.05134700  0.81871500  1
  Ga  Ga9  1  0.54519700  0.75952000  0.34543700  1
  Ga  Ga10  1  0.14788100  0.90653000  0.18421700  1
  Ga  Ga11  1  0.32645500  0.21523400  0.93433900  1
  P  P12  1  0.92432000  0.23001600  0.97053400  1
  P  P13  1  0.37732600  0.25914800  0.70100300  1
  P  P14  1  0.54898100  0.30247400  0.57083000  1
  P  P15  1  0.97428900  0.53767400  0.76949800  1
  P  P16  1  0.73208300  0.27530500  0.22274600  1
  P  P17  1  0.63449900  0.47565600  0.24920800  1
  P  P18  1  0.53492400  0.78335500  0.94896300  1
  P  P19  1  0.29068000  0.55998200  0.51946100  1
  P  P20  1  0.90423000  0.89453700  0.18590300  1
  P  P21  1  0.77241400  0.98229600  0.58266300  1
  P  P22  1  0.28008800  0.73076900  0.39825900  1
  P  P23  1  0.08567200  0.82391100  0.87901700  1
  H  H24  1  0.59878000  0.07393700  0.79778700  1
  H  H25  1  0.43331500  0.04383600  0.73916600  1
  H  H26  1  0.96777800  0.16343000  0.40156200  1
  H  H27  1  0.94416400  0.19950700  0.53766000  1
  H  H28  1  0.56364400  0.10262500  0.26412000  1
  H  H29  1  0.68908300  0.46457400  0.91023400  1
  H  H30  1  0.16236700  0.39741700  0.98505200  1
  H  H31  1  0.32286700  0.24224800  0.32244900  1
  H  H32  1  0.10323500  0.26453100  0.55474800  1
  H  H33  1  0.19798300  0.19161800  0.17176900  1
  H  H34  1  0.35615700  0.31988000  0.23367900  1
  H  H35  1  0.18874700  0.52781100  0.94933100  1
  H  H36  1  0.24892200  0.33989100  0.29953900  1
  H  H37  1  0.99476200  0.32046600  0.49478300  1
  H  H38  1  0.79454300  0.71238600  0.77265900  1
  H  H39  1  0.72254200  0.46967300  0.05642300  1
  H  H40  1  0.84278000  0.48770600  0.00251700  1
  H  H41  1  0.63551800  0.65781800  0.66230800  1
  H  H42  1  0.90330100  0.68426200  0.45972000  1
  H  H43  1  0.69999200  0.78396000  0.81811300  1
  H  H44  1  0.79386600  0.61016600  0.05249800  1
  H  H45  1  0.75705800  0.81097200  0.71131300  1
  H  H46  1  0.31726100  0.49478400  0.01399400  1
  H  H47  1  0.25230400  0.55681600  0.11062900  1
  H  H48  1  0.47262200  0.92424600  0.67487900  1
  H  H49  1  0.48954700  0.97116400  0.82830800  1
  H  H50  1  0.04791000  0.72939900  0.44379100  1
  H  H51  1  0.05713200  0.77985700  0.59714200  1
  H  H52  1  0.52549400  0.93554500  0.17710100  1
  H  H53  1  0.00046800  0.84603000  0.50458200  1
  H  H54  1  0.49446900  0.99187300  0.31030800  1
  H  H55  1  0.39965200  0.97972700  0.16776300  1
  N  N56  1  0.23008100  0.49485900  0.01519600  1
  N  N57  1  0.27972700  0.27153000  0.25472300  1
  N  N58  1  0.00308800  0.23790700  0.49719100  1
  N  N59  1  0.72118400  0.73998400  0.74010300  1
  N  N60  1  0.76375900  0.50741900  0.00452700  1
  N  N61  1  0.49954600  0.00459500  0.76147500  1
  N  N62  1  0.00250700  0.75978000  0.50153300  1
  N  N63  1  0.49546200  0.00288600  0.23009400  1
  O  O64  1  0.79071700  0.19348700  0.85521000  1
  O  O65  1  0.88454300  0.02022800  0.23992300  1
  O  O66  1  0.84437200  0.12736100  0.60970900  1
  O  O67  1  0.01979900  0.91639700  0.87081300  1
  O  O68  1  0.42224600  0.81090500  0.87394900  1
  O  O69  1  0.01469400  0.90027300  0.31258300  1
  O  O70  1  0.32798100  0.11531300  0.60457200  1
  O  O71  1  0.23979100  0.03289100  0.78508700  1
  O  O72  1  0.03403100  0.78389900  0.23622400  1
  O  O73  1  0.90804100  0.13603800  0.03091500  1
  O  O74  1  0.61922200  0.21932200  0.59823000  1
  O  O75  1  0.43596100  0.29469200  0.84566100  1
  O  O76  1  0.41620200  0.21269500  0.44400600  1
  O  O77  1  0.03333100  0.21872200  0.91935800  1
  O  O78  1  0.68807200  0.25895400  0.32735700  1
  O  O79  1  0.51192300  0.35715200  0.69408500  1
  O  O80  1  0.28031900  0.31899800  0.66253800  1
  O  O81  1  0.88516400  0.36148400  0.28918300  1
  O  O82  1  0.91929100  0.48362700  0.62102600  1
  O  O83  1  0.65586100  0.34818000  0.16057300  1
  O  O84  1  0.96125600  0.67777000  0.83045700  1
  O  O85  1  0.89757100  0.44951800  0.81512900  1
  O  O86  1  0.42003500  0.54814000  0.57936600  1
  O  O87  1  0.72034300  0.75890600  0.45864000  1
  O  O88  1  0.49430900  0.63109300  0.89004600  1
  O  O89  1  0.49819200  0.42209600  0.24449200  1
  O  O90  1  0.75326500  0.53848900  0.38862200  1
  O  O91  1  0.12561100  0.57308600  0.83220300  1
  O  O92  1  0.19801000  0.44919900  0.37707700  1
  O  O93  1  0.66243200  0.86012900  0.93934300  1
  O  O94  1  0.21598600  0.55980500  0.60418500  1
  O  O95  1  0.65410400  0.55944900  0.17834700  1
  O  O96  1  0.63552100  0.43221400  0.57776900  1
  O  O97  1  0.34419700  0.70445000  0.52421000  1
  O  O98  1  0.67929200  0.13892400  0.10665500  1
  O  O99  1  0.12633800  0.06232600  0.72839800  1
  O  O100  1  0.77750500  0.76305300  0.12368200  1
  O  O101  1  0.83396200  0.96658400  0.70694700  1
  O  O102  1  0.34375200  0.68466000  0.30758900  1
  O  O103  1  0.12785900  0.64471900  0.33711900  1
  O  O104  1  0.14071700  0.79448100  0.77956700  1
  O  O105  1  0.61824000  0.92517500  0.52286400  1
  O  O106  1  0.56058200  0.82908900  0.09375700  1
  O  O107  1  0.32690300  0.87963800  0.46393700  1
  O  O108  1  0.98690300  0.37887600  0.07194200  1
  O  O109  1  0.80467300  0.89319400  0.47339600  1
  O  O110  1  0.18212500  0.86901600  0.02227100  1
  O  O111  1  0.97366700  0.90411400  0.09643500  1
