# generated using pymatgen
data_CuW3Br7
_symmetry_space_group_name_H-M   'P 1'
_cell_length_a   10.14067900
_cell_length_b   15.41713000
_cell_length_c   16.29092800
_cell_angle_alpha   90.00000000
_cell_angle_beta   90.00000000
_cell_angle_gamma   90.00000000
_symmetry_Int_Tables_number   1
_chemical_formula_structural   CuW3Br7
_chemical_formula_sum   'Cu8 W24 Br56'
_cell_volume   2546.92639484
_cell_formula_units_Z   8
loop_
 _symmetry_equiv_pos_site_id
 _symmetry_equiv_pos_as_xyz
  1  'x, y, z'
loop_
 _atom_site_type_symbol
 _atom_site_label
 _atom_site_symmetry_multiplicity
 _atom_site_fract_x
 _atom_site_fract_y
 _atom_site_fract_z
 _atom_site_occupancy
  Cu  Cu0  1  0.62860000  0.21722400  0.70895300  1
  Cu  Cu1  1  0.12860000  0.28277600  0.70895300  1
  Cu  Cu2  1  0.37140000  0.78277600  0.29104700  1
  Cu  Cu3  1  0.87140000  0.21722400  0.20895300  1
  Cu  Cu4  1  0.87140000  0.71722400  0.29104700  1
  Cu  Cu5  1  0.37140000  0.28277600  0.20895300  1
  Cu  Cu6  1  0.12860000  0.78277600  0.79104700  1
  Cu  Cu7  1  0.62860000  0.71722400  0.79104700  1
  W  W8  1  0.99838300  0.59597800  0.07095500  1
  W  W9  1  0.49838300  0.90402200  0.07095500  1
  W  W10  1  0.34517200  0.95940500  0.94923500  1
  W  W11  1  0.60199200  0.93713700  0.92476800  1
  W  W12  1  0.00161700  0.90402200  0.57095500  1
  W  W13  1  0.89800800  0.93713700  0.42476800  1
  W  W14  1  0.99838300  0.09597800  0.42904500  1
  W  W15  1  0.49838300  0.40402200  0.42904500  1
  W  W16  1  0.39800800  0.06286300  0.07523200  1
  W  W17  1  0.10199200  0.06286300  0.57523200  1
  W  W18  1  0.15482800  0.45940500  0.05076500  1
  W  W19  1  0.65482800  0.54059500  0.44923500  1
  W  W20  1  0.60199200  0.43713700  0.57523200  1
  W  W21  1  0.00161700  0.40402200  0.92904500  1
  W  W22  1  0.15482800  0.95940500  0.44923500  1
  W  W23  1  0.34517200  0.45940500  0.55076500  1
  W  W24  1  0.10199200  0.56286300  0.92476800  1
  W  W25  1  0.50161700  0.59597800  0.57095500  1
  W  W26  1  0.84517200  0.04059500  0.55076500  1
  W  W27  1  0.65482800  0.04059500  0.05076500  1
  W  W28  1  0.39800800  0.56286300  0.42476800  1
  W  W29  1  0.50161700  0.09597800  0.92904500  1
  W  W30  1  0.84517200  0.54059500  0.94923500  1
  W  W31  1  0.89800800  0.43713700  0.07523200  1
  Br  Br32  1  0.55071100  0.50805400  0.30376800  1
  Br  Br33  1  0.49696900  0.26446100  0.33303900  1
  Br  Br34  1  0.44495800  0.30148000  0.55556400  1
  Br  Br35  1  0.44928900  0.49194600  0.69623200  1
  Br  Br36  1  0.12162700  0.90692200  0.87722500  1
  Br  Br37  1  0.05071100  0.49194600  0.19623200  1
  Br  Br38  1  0.55504200  0.19852000  0.05556400  1
  Br  Br39  1  0.62162700  0.09307800  0.62277500  1
  Br  Br40  1  0.99696900  0.23553900  0.33303900  1
  Br  Br41  1  0.24120700  0.42630300  0.40432800  1
  Br  Br42  1  0.55071100  0.00805400  0.19623200  1
  Br  Br43  1  0.24482300  0.61785400  0.54621800  1
  Br  Br44  1  0.24660900  0.15001200  0.68228300  1
  Br  Br45  1  0.99696900  0.73553900  0.16696100  1
  Br  Br46  1  0.94928900  0.00805400  0.69623200  1
  Br  Br47  1  0.75517700  0.88214600  0.04621800  1
  Br  Br48  1  0.49696900  0.76446100  0.16696100  1
  Br  Br49  1  0.87837300  0.59307800  0.37722500  1
  Br  Br50  1  0.37837300  0.40692200  0.12277500  1
  Br  Br51  1  0.75339100  0.84998800  0.31771700  1
  Br  Br52  1  0.24660900  0.65001200  0.81771700  1
  Br  Br53  1  0.44495800  0.80148000  0.94443600  1
  Br  Br54  1  0.25339100  0.65001200  0.31771700  1
  Br  Br55  1  0.00303100  0.26446100  0.83303900  1
  Br  Br56  1  0.62162700  0.59307800  0.87722500  1
  Br  Br57  1  0.87837300  0.09307800  0.12277500  1
  Br  Br58  1  0.74482300  0.88214600  0.54621800  1
  Br  Br59  1  0.94495800  0.69852000  0.94443600  1
  Br  Br60  1  0.25339100  0.15001200  0.18228300  1
  Br  Br61  1  0.75339100  0.34998800  0.18228300  1
  Br  Br62  1  0.37837300  0.90692200  0.37722500  1
  Br  Br63  1  0.50303100  0.23553900  0.83303900  1
  Br  Br64  1  0.00303100  0.76446100  0.66696100  1
  Br  Br65  1  0.94495800  0.19852000  0.55556400  1
  Br  Br66  1  0.50303100  0.73553900  0.66696100  1
  Br  Br67  1  0.74482300  0.38214600  0.95378200  1
  Br  Br68  1  0.05504200  0.80148000  0.44443600  1
  Br  Br69  1  0.74120700  0.57369700  0.09567200  1
  Br  Br70  1  0.25517700  0.11785400  0.45378200  1
  Br  Br71  1  0.55504200  0.69852000  0.44443600  1
  Br  Br72  1  0.24120700  0.92630300  0.09567200  1
  Br  Br73  1  0.74660900  0.84998800  0.81771700  1
  Br  Br74  1  0.74120700  0.07369700  0.40432800  1
  Br  Br75  1  0.75517700  0.38214600  0.45378200  1
  Br  Br76  1  0.12162700  0.40692200  0.62277500  1
  Br  Br77  1  0.75879300  0.57369700  0.59567200  1
  Br  Br78  1  0.05071100  0.99194600  0.30376800  1
  Br  Br79  1  0.25879300  0.42630300  0.90432800  1
  Br  Br80  1  0.94928900  0.50805400  0.80376800  1
  Br  Br81  1  0.44928900  0.99194600  0.80376800  1
  Br  Br82  1  0.05504200  0.30148000  0.05556400  1
  Br  Br83  1  0.75879300  0.07369700  0.90432800  1
  Br  Br84  1  0.74660900  0.34998800  0.68228300  1
  Br  Br85  1  0.24482300  0.11785400  0.95378200  1
  Br  Br86  1  0.25517700  0.61785400  0.04621800  1
  Br  Br87  1  0.25879300  0.92630300  0.59567200  1
