# generated using pymatgen
data_NaMgFe(SO4)3
_symmetry_space_group_name_H-M   'P 1'
_cell_length_a   14.95864600
_cell_length_b   8.60403200
_cell_length_c   8.93705821
_cell_angle_alpha   90.00000000
_cell_angle_beta   123.82137860
_cell_angle_gamma   90.00000000
_symmetry_Int_Tables_number   1
_chemical_formula_structural   NaMgFe(SO4)3
_chemical_formula_sum   'Na4 Mg4 Fe4 S12 O48'
_cell_volume   955.59368359
_cell_formula_units_Z   4
loop_
 _symmetry_equiv_pos_site_id
 _symmetry_equiv_pos_as_xyz
  1  'x, y, z'
loop_
 _atom_site_type_symbol
 _atom_site_label
 _atom_site_symmetry_multiplicity
 _atom_site_fract_x
 _atom_site_fract_y
 _atom_site_fract_z
 _atom_site_occupancy
  Na  Na0  1  0.24899050  0.74972150  0.99711000  1
  Na  Na1  1  0.24899050  0.25027850  0.49711000  1
  Na  Na2  1  0.74899050  0.24972150  0.99711000  1
  Na  Na3  1  0.74899050  0.75027850  0.49711000  1
  Mg  Mg4  1  0.10144500  0.75250400  0.55760700  1
  Mg  Mg5  1  0.10144500  0.24749600  0.05760700  1
  Mg  Mg6  1  0.60144500  0.25250400  0.55760700  1
  Mg  Mg7  1  0.60144500  0.74749600  0.05760700  1
  Fe  Fe8  1  0.39982850  0.25234150  0.94729200  1
  Fe  Fe9  1  0.39982850  0.74765850  0.44729200  1
  Fe  Fe10  1  0.89982850  0.75234150  0.94729200  1
  Fe  Fe11  1  0.89982850  0.24765850  0.44729200  1
  S  S12  1  0.14722400  0.60492200  0.25205600  1
  S  S13  1  0.00052700  0.95310600  0.75291100  1
  S  S14  1  0.35461400  0.10403900  0.25263400  1
  S  S15  1  0.14722400  0.39507800  0.75205600  1
  S  S16  1  0.00052700  0.04689400  0.25291100  1
  S  S17  1  0.35461400  0.89596100  0.75263400  1
  S  S18  1  0.64722400  0.10492200  0.25205600  1
  S  S19  1  0.50052700  0.45310600  0.75291100  1
  S  S20  1  0.85461400  0.60403900  0.25263400  1
  S  S21  1  0.64722400  0.89507800  0.75205600  1
  S  S22  1  0.50052700  0.54689400  0.25291100  1
  S  S23  1  0.85461400  0.39596100  0.75263400  1
  O  O24  1  0.24232750  0.67801950  0.26423500  1
  O  O25  1  0.05024750  0.66925450  0.08339900  1
  O  O26  1  0.43786300  0.54875200  0.58504000  1
  O  O27  1  0.43786300  0.45124800  0.08504000  1
  O  O28  1  0.15262200  0.43512100  0.23778000  1
  O  O29  1  0.41880200  0.35438400  0.75620700  1
  O  O30  1  0.07676500  0.85203900  0.74319100  1
  O  O31  1  0.25840650  0.17247350  0.23300400  1
  O  O32  1  0.45046800  0.16409000  0.41614500  1
  O  O33  1  0.14625900  0.64274600  0.41020300  1
  O  O34  1  0.35590450  0.13963850  0.08950400  1
  O  O35  1  0.15262200  0.56487900  0.73778000  1
  O  O36  1  0.34866750  0.93025950  0.25854900  1
  O  O37  1  0.14625900  0.35725400  0.91020300  1
  O  O38  1  0.35590450  0.86036150  0.58950400  1
  O  O39  1  0.05024750  0.33074550  0.58339900  1
  O  O40  1  0.24232750  0.32198050  0.76423500  1
  O  O41  1  0.41880200  0.64561600  0.25620700  1
  O  O42  1  0.07676500  0.14796100  0.24319100  1
  O  O43  1  0.34866750  0.06974050  0.75854900  1
  O  O44  1  0.05938250  0.04851150  0.91461600  1
  O  O45  1  0.05938250  0.95148850  0.41461600  1
  O  O46  1  0.45046800  0.83591000  0.91614500  1
  O  O47  1  0.25840650  0.82752650  0.73300400  1
  O  O48  1  0.74232750  0.17801950  0.26423500  1
  O  O49  1  0.55024750  0.16925450  0.08339900  1
  O  O50  1  0.93786300  0.04875200  0.58504000  1
  O  O51  1  0.93786300  0.95124800  0.08504000  1
  O  O52  1  0.65262200  0.93512100  0.23778000  1
  O  O53  1  0.91880200  0.85438400  0.75620700  1
  O  O54  1  0.57676500  0.35203900  0.74319100  1
  O  O55  1  0.75840650  0.67247350  0.23300400  1
  O  O56  1  0.95046800  0.66409000  0.41614500  1
  O  O57  1  0.64625900  0.14274600  0.41020300  1
  O  O58  1  0.85590450  0.63963850  0.08950400  1
  O  O59  1  0.65262200  0.06487900  0.73778000  1
  O  O60  1  0.84866750  0.43025950  0.25854900  1
  O  O61  1  0.64625900  0.85725400  0.91020300  1
  O  O62  1  0.85590450  0.36036150  0.58950400  1
  O  O63  1  0.55024750  0.83074550  0.58339900  1
  O  O64  1  0.74232750  0.82198050  0.76423500  1
  O  O65  1  0.91880200  0.14561600  0.25620700  1
  O  O66  1  0.57676500  0.64796100  0.24319100  1
  O  O67  1  0.84866750  0.56974050  0.75854900  1
  O  O68  1  0.55938250  0.54851150  0.91461600  1
  O  O69  1  0.55938250  0.45148850  0.41461600  1
  O  O70  1  0.95046800  0.33591000  0.91614500  1
  O  O71  1  0.75840650  0.32752650  0.73300400  1
