# generated using pymatgen
data_Lu(HO)3
_symmetry_space_group_name_H-M   'P 1'
_cell_length_a   11.62191839
_cell_length_b   11.62191839
_cell_length_c   7.08455523
_cell_angle_alpha   90.00000000
_cell_angle_beta   90.00000000
_cell_angle_gamma   120.00000000
_symmetry_Int_Tables_number   1
_chemical_formula_structural   Lu(HO)3
_chemical_formula_sum   'Lu12 H36 O36'
_cell_volume   828.70291238
_cell_formula_units_Z   12
loop_
 _symmetry_equiv_pos_site_id
 _symmetry_equiv_pos_as_xyz
  1  'x, y, z'
loop_
 _atom_site_type_symbol
 _atom_site_label
 _atom_site_symmetry_multiplicity
 _atom_site_fract_x
 _atom_site_fract_y
 _atom_site_fract_z
 _atom_site_occupancy
  Lu  Lu0  1  0.16666667  0.33333333  0.83333333  1
  Lu  Lu1  1  0.00000000  0.00000000  0.50000000  1
  Lu  Lu2  1  0.83333333  0.16666667  0.16666667  1
  Lu  Lu3  1  0.66666667  0.83333333  0.83333333  1
  Lu  Lu4  1  0.83333333  0.66666667  0.16666667  1
  Lu  Lu5  1  0.66666667  0.33333333  0.83333333  1
  Lu  Lu6  1  0.50000000  0.50000000  0.50000000  1
  Lu  Lu7  1  0.33333333  0.16666667  0.16666667  1
  Lu  Lu8  1  0.50000000  0.00000000  0.50000000  1
  Lu  Lu9  1  0.33333333  0.66666667  0.16666667  1
  Lu  Lu10  1  0.16666667  0.83333333  0.83333333  1
  Lu  Lu11  1  0.00000000  0.50000000  0.50000000  1
  H  H12  1  0.52946233  0.78712667  0.42539567  1
  H  H13  1  0.13720433  0.54620667  0.90793767  1
  H  H14  1  0.01755233  0.42510667  0.14969367  1
  H  H15  1  0.64911433  0.90822667  0.18363967  1
  H  H16  1  0.75844000  0.07422100  0.51697300  1
  H  H17  1  0.90822667  0.25911233  0.81636033  1
  H  H18  1  0.78712667  0.25766433  0.57460433  1
  H  H19  1  0.87954000  0.07566900  0.75872900  1
  H  H20  1  0.07566900  0.19612900  0.24127100  1
  H  H21  1  0.59099767  0.13720433  0.09206233  1
  H  H22  1  0.59244567  0.01755233  0.85030633  1
  H  H23  1  0.07422100  0.31578100  0.48302700  1
  H  H24  1  0.19612900  0.12046000  0.75872900  1
  H  H25  1  0.80387100  0.87954000  0.24127100  1
  H  H26  1  0.68421900  0.75844000  0.48302700  1
  H  H27  1  0.31578100  0.24156000  0.51697300  1
  H  H28  1  0.42510667  0.40755433  0.85030633  1
  H  H29  1  0.57489333  0.59244567  0.14969367  1
  H  H30  1  0.45379333  0.59099767  0.90793767  1
  H  H31  1  0.54620667  0.40900233  0.09206233  1
  H  H32  1  0.74233567  0.52946233  0.57460433  1
  H  H33  1  0.25766433  0.47053767  0.42539567  1
  H  H34  1  0.25911233  0.35088567  0.18363967  1
  H  H35  1  0.74088767  0.64911433  0.81636033  1
  H  H36  1  0.86279567  0.45379333  0.09206233  1
  H  H37  1  0.47053767  0.21287333  0.57460433  1
  H  H38  1  0.35088567  0.09177333  0.81636033  1
  H  H39  1  0.98244767  0.57489333  0.85030633  1
  H  H40  1  0.09177333  0.74088767  0.18363967  1
  H  H41  1  0.24156000  0.92577900  0.48302700  1
  H  H42  1  0.12046000  0.92433100  0.24127100  1
  H  H43  1  0.21287333  0.74233567  0.42539567  1
  H  H44  1  0.40900233  0.86279567  0.90793767  1
  H  H45  1  0.92433100  0.80387100  0.75872900  1
  H  H46  1  0.92577900  0.68421900  0.51697300  1
  H  H47  1  0.40755433  0.98244767  0.14969367  1
  O  O48  1  0.49068000  0.82926800  0.34310700  1
  O  O49  1  0.17598667  0.50406533  0.99022633  1
  O  O50  1  0.93746400  0.38590700  0.23108900  1
  O  O51  1  0.72920267  0.94742633  0.10224433  1
  O  O52  1  0.71924033  0.11510967  0.43557767  1
  O  O53  1  0.94742633  0.21822367  0.89775567  1
  O  O54  1  0.82926800  0.33858800  0.65689300  1
  O  O55  1  0.83739867  0.99474533  0.67644033  1
  O  O56  1  0.99474533  0.15734667  0.32355967  1
  O  O57  1  0.67192133  0.17598667  0.00977367  1
  O  O58  1  0.55155700  0.93746400  0.76891100  1
  O  O59  1  0.11510967  0.39586933  0.56442233  1
  O  O60  1  0.15734667  0.16260133  0.67644033  1
  O  O61  1  0.84265333  0.83739867  0.32355967  1
  O  O62  1  0.60413067  0.71924033  0.56442233  1
  O  O63  1  0.39586933  0.28075967  0.43557767  1
  O  O64  1  0.38590700  0.44844300  0.76891100  1
  O  O65  1  0.61409300  0.55155700  0.23108900  1
  O  O66  1  0.49593467  0.67192133  0.99022633  1
  O  O67  1  0.50406533  0.32807867  0.00977367  1
  O  O68  1  0.66141200  0.49068000  0.65689300  1
  O  O69  1  0.33858800  0.50932000  0.34310700  1
  O  O70  1  0.21822367  0.27079733  0.10224433  1
  O  O71  1  0.78177633  0.72920267  0.89775567  1
  O  O72  1  0.82401333  0.49593467  0.00977367  1
  O  O73  1  0.50932000  0.17073200  0.65689300  1
  O  O74  1  0.27079733  0.05257367  0.89775567  1
  O  O75  1  0.06253600  0.61409300  0.76891100  1
  O  O76  1  0.05257367  0.78177633  0.10224433  1
  O  O77  1  0.28075967  0.88489033  0.56442233  1
  O  O78  1  0.16260133  0.00525467  0.32355967  1
  O  O79  1  0.17073200  0.66141200  0.34310700  1
  O  O80  1  0.32807867  0.82401333  0.99022633  1
  O  O81  1  0.00525467  0.84265333  0.67644033  1
  O  O82  1  0.88489033  0.60413067  0.43557767  1
  O  O83  1  0.44844300  0.06253600  0.23108900  1
