# generated using pymatgen
data_Nb2O5
_symmetry_space_group_name_H-M   'P 1'
_cell_length_a   3.86273200
_cell_length_b   14.71097224
_cell_length_c   15.43885132
_cell_angle_alpha   73.15576629
_cell_angle_beta   82.81046678
_cell_angle_gamma   82.46766904
_symmetry_Int_Tables_number   1
_chemical_formula_structural   Nb2O5
_chemical_formula_sum   'Nb16 O40'
_cell_volume   828.90028385
_cell_formula_units_Z   8
loop_
 _symmetry_equiv_pos_site_id
 _symmetry_equiv_pos_as_xyz
  1  'x, y, z'
loop_
 _atom_site_type_symbol
 _atom_site_label
 _atom_site_symmetry_multiplicity
 _atom_site_fract_x
 _atom_site_fract_y
 _atom_site_fract_z
 _atom_site_occupancy
  Nb  Nb0  1  0.83043900  0.24709400  0.90335400  1
  Nb  Nb1  1  0.69424300  0.51177900  0.90227800  1
  Nb  Nb2  1  0.03896800  0.02270900  0.10134100  1
  Nb  Nb3  1  0.67129300  0.32897900  0.62878200  1
  Nb  Nb4  1  0.36330000  0.67217200  0.37108400  1
  Nb  Nb5  1  0.17189000  0.75346600  0.09708100  1
  Nb  Nb6  1  0.46842600  0.40860800  0.36773200  1
  Nb  Nb7  1  0.21736500  0.93977800  0.37126500  1
  Nb  Nb8  1  0.30623500  0.48833100  0.09840300  1
  Nb  Nb9  1  0.96120600  0.97831100  0.89889900  1
  Nb  Nb10  1  0.78063400  0.06121100  0.62909500  1
  Nb  Nb11  1  0.44219900  0.21651400  0.10045500  1
  Nb  Nb12  1  0.38503100  0.86208500  0.63456000  1
  Nb  Nb13  1  0.61189300  0.13868300  0.36606100  1
  Nb  Nb14  1  0.53422300  0.59258300  0.63217000  1
  Nb  Nb15  1  0.55917100  0.78363000  0.90039600  1
  O  O16  1  0.35835300  0.23228800  0.94544200  1
  O  O17  1  0.37155700  0.34413600  0.08979500  1
  O  O18  1  0.70176500  0.09237800  0.49847300  1
  O  O19  1  0.87123500  0.89755400  0.64216000  1
  O  O20  1  0.51295600  0.06099900  0.08688200  1
  O  O21  1  0.61226800  0.54855300  0.77938700  1
  O  O22  1  0.47303500  0.83441300  0.77767100  1
  O  O23  1  0.94463500  0.18612000  0.07412600  1
  O  O24  1  0.87951700  0.01796500  0.77634000  1
  O  O25  1  0.24517300  0.72923100  0.21758000  1
  O  O26  1  0.75832000  0.27192500  0.78251300  1
  O  O27  1  0.22718800  0.62662600  0.08184900  1
  O  O28  1  0.05705000  0.81449200  0.92632000  1
  O  O29  1  0.54601600  0.26553400  0.35437800  1
  O  O30  1  0.92566800  0.09053100  0.93874200  1
  O  O31  1  0.41349000  0.54114500  0.36265100  1
  O  O32  1  0.98567800  0.39607500  0.35935800  1
  O  O33  1  0.69128500  0.97978800  0.36079200  1
  O  O34  1  0.52813400  0.16504500  0.22321700  1
  O  O35  1  0.38863900  0.45153600  0.22122600  1
  O  O36  1  0.72108700  0.18319300  0.63652500  1
  O  O37  1  0.58648500  0.45984500  0.63730600  1
  O  O38  1  0.16699300  0.31444100  0.64867000  1
  O  O39  1  0.62889700  0.65589200  0.91194900  1
  O  O40  1  0.01574500  0.60469800  0.64167500  1
  O  O41  1  0.11932300  0.98430400  0.22399100  1
  O  O42  1  0.78857900  0.48601200  0.06277700  1
  O  O43  1  0.27591400  0.81811900  0.36303100  1
  O  O44  1  0.57527900  0.35795400  0.50000600  1
  O  O45  1  0.21236000  0.51378000  0.93835200  1
  O  O46  1  0.42984800  0.64351200  0.50002000  1
  O  O47  1  0.29701100  0.90781100  0.50200300  1
  O  O48  1  0.30758300  0.02065500  0.64015700  1
  O  O49  1  0.12718500  0.10302600  0.35904500  1
  O  O50  1  0.48740900  0.94009600  0.91310900  1
  O  O51  1  0.64360200  0.76861100  0.05519300  1
  O  O52  1  0.77368000  0.37383000  0.91909300  1
  O  O53  1  0.45283600  0.73516500  0.64578800  1
  O  O54  1  0.83475500  0.68563300  0.35161800  1
  O  O55  1  0.07563800  0.91049300  0.06143000  1
