# generated using pymatgen
data_Ta3In2Cl9
_symmetry_space_group_name_H-M   'P 1'
_cell_length_a   10.95947000
_cell_length_b   15.73939400
_cell_length_c   9.79530452
_cell_angle_alpha   90.00000000
_cell_angle_beta   117.53040258
_cell_angle_gamma   90.00000000
_symmetry_Int_Tables_number   1
_chemical_formula_structural   Ta3In2Cl9
_chemical_formula_sum   'Ta12 In8 Cl36'
_cell_volume   1498.31933587
_cell_formula_units_Z   4
loop_
 _symmetry_equiv_pos_site_id
 _symmetry_equiv_pos_as_xyz
  1  'x, y, z'
loop_
 _atom_site_type_symbol
 _atom_site_label
 _atom_site_symmetry_multiplicity
 _atom_site_fract_x
 _atom_site_fract_y
 _atom_site_fract_z
 _atom_site_occupancy
  Ta  Ta0  1  0.86953600  0.09196000  0.86089600  1
  Ta  Ta1  1  0.10189800  0.00000000  0.86835400  1
  Ta  Ta2  1  0.89810200  0.00000000  0.13164600  1
  Ta  Ta3  1  0.13046400  0.09196000  0.13910400  1
  Ta  Ta4  1  0.86953600  0.90804000  0.86089600  1
  Ta  Ta5  1  0.13046400  0.90804000  0.13910400  1
  Ta  Ta6  1  0.36953600  0.59196000  0.86089600  1
  Ta  Ta7  1  0.60189800  0.50000000  0.86835400  1
  Ta  Ta8  1  0.39810200  0.50000000  0.13164600  1
  Ta  Ta9  1  0.63046400  0.59196000  0.13910400  1
  Ta  Ta10  1  0.36953600  0.40804000  0.86089600  1
  Ta  Ta11  1  0.63046400  0.40804000  0.13910400  1
  In  In12  1  0.39416100  0.15192800  0.66316200  1
  In  In13  1  0.39416100  0.84807200  0.66316200  1
  In  In14  1  0.60583900  0.15192800  0.33683800  1
  In  In15  1  0.60583900  0.84807200  0.33683800  1
  In  In16  1  0.89416100  0.65192800  0.66316200  1
  In  In17  1  0.89416100  0.34807200  0.66316200  1
  In  In18  1  0.10583900  0.65192800  0.33683800  1
  In  In19  1  0.10583900  0.34807200  0.33683800  1
  Cl  Cl20  1  0.29822250  0.78893650  0.32180900  1
  Cl  Cl21  1  0.68517600  0.00000000  0.66839300  1
  Cl  Cl22  1  0.23407400  0.00000000  0.70363000  1
  Cl  Cl23  1  0.46511000  0.38983600  0.67874900  1
  Cl  Cl24  1  0.72423350  0.11036050  0.99067800  1
  Cl  Cl25  1  0.53489000  0.61016400  0.32125100  1
  Cl  Cl26  1  0.29822250  0.21106350  0.32180900  1
  Cl  Cl27  1  0.50000000  0.71975800  0.00000000  1
  Cl  Cl28  1  0.72423350  0.88963950  0.99067800  1
  Cl  Cl29  1  0.27576650  0.88963950  0.00932200  1
  Cl  Cl30  1  0.50000000  0.28024200  0.00000000  1
  Cl  Cl31  1  0.70177750  0.21106350  0.67819100  1
  Cl  Cl32  1  0.70177750  0.78893650  0.67819100  1
  Cl  Cl33  1  0.76592600  0.00000000  0.29637000  1
  Cl  Cl34  1  0.31482400  0.00000000  0.33160700  1
  Cl  Cl35  1  0.53489000  0.38983600  0.32125100  1
  Cl  Cl36  1  0.46511000  0.61016400  0.67874900  1
  Cl  Cl37  1  0.27576650  0.11036050  0.00932200  1
  Cl  Cl38  1  0.79822250  0.28893650  0.32180900  1
  Cl  Cl39  1  0.18517600  0.50000000  0.66839300  1
  Cl  Cl40  1  0.73407400  0.50000000  0.70363000  1
  Cl  Cl41  1  0.96511000  0.88983600  0.67874900  1
  Cl  Cl42  1  0.22423350  0.61036050  0.99067800  1
  Cl  Cl43  1  0.03489000  0.11016400  0.32125100  1
  Cl  Cl44  1  0.79822250  0.71106350  0.32180900  1
  Cl  Cl45  1  0.00000000  0.21975800  0.00000000  1
  Cl  Cl46  1  0.22423350  0.38963950  0.99067800  1
  Cl  Cl47  1  0.77576650  0.38963950  0.00932200  1
  Cl  Cl48  1  0.00000000  0.78024200  0.00000000  1
  Cl  Cl49  1  0.20177750  0.71106350  0.67819100  1
  Cl  Cl50  1  0.20177750  0.28893650  0.67819100  1
  Cl  Cl51  1  0.26592600  0.50000000  0.29637000  1
  Cl  Cl52  1  0.81482400  0.50000000  0.33160700  1
  Cl  Cl53  1  0.03489000  0.88983600  0.32125100  1
  Cl  Cl54  1  0.96511000  0.11016400  0.67874900  1
  Cl  Cl55  1  0.77576650  0.61036050  0.00932200  1
