# generated using pymatgen
data_LuAgS2
_symmetry_space_group_name_H-M   'P 1'
_cell_length_a   5.37013400
_cell_length_b   5.37210400
_cell_length_c   11.83707800
_cell_angle_alpha   90.00000000
_cell_angle_beta   90.00000000
_cell_angle_gamma   90.00000000
_symmetry_Int_Tables_number   1
_chemical_formula_structural   LuAgS2
_chemical_formula_sum   'Lu4 Ag4 S8'
_cell_volume   341.48689663
_cell_formula_units_Z   4
loop_
 _symmetry_equiv_pos_site_id
 _symmetry_equiv_pos_as_xyz
  1  'x, y, z'
loop_
 _atom_site_type_symbol
 _atom_site_label
 _atom_site_symmetry_multiplicity
 _atom_site_fract_x
 _atom_site_fract_y
 _atom_site_fract_z
 _atom_site_occupancy
  Lu  Lu0  1  0.25000000  0.24016300  0.87515450  1
  Lu  Lu1  1  0.25000000  0.74016300  0.62484550  1
  Lu  Lu2  1  0.75000000  0.74016300  0.37515450  1
  Lu  Lu3  1  0.75000000  0.24016300  0.12484550  1
  Ag  Ag4  1  0.75000000  0.75317000  0.87174950  1
  Ag  Ag5  1  0.75000000  0.25317000  0.62825050  1
  Ag  Ag6  1  0.25000000  0.25317000  0.37174950  1
  Ag  Ag7  1  0.25000000  0.75317000  0.12825050  1
  S  S8  1  0.25000000  0.24118700  0.64777550  1
  S  S9  1  0.75000000  0.74648100  0.60259750  1
  S  S10  1  0.25000000  0.74118700  0.85222450  1
  S  S11  1  0.75000000  0.24648100  0.89740250  1
  S  S12  1  0.75000000  0.74118700  0.14777550  1
  S  S13  1  0.25000000  0.24648100  0.10259750  1
  S  S14  1  0.75000000  0.24118700  0.35222450  1
  S  S15  1  0.25000000  0.74648100  0.39740250  1
