# generated using pymatgen
data_Ni(PO3)4
_symmetry_space_group_name_H-M   'P 1'
_cell_length_a   11.89724200
_cell_length_b   8.45322800
_cell_length_c   9.72772164
_cell_angle_alpha   90.00000000
_cell_angle_beta   115.62047744
_cell_angle_gamma   90.00000000
_symmetry_Int_Tables_number   1
_chemical_formula_structural   Ni(PO3)4
_chemical_formula_sum   'Ni4 P16 O48'
_cell_volume   882.12779570
_cell_formula_units_Z   4
loop_
 _symmetry_equiv_pos_site_id
 _symmetry_equiv_pos_as_xyz
  1  'x, y, z'
loop_
 _atom_site_type_symbol
 _atom_site_label
 _atom_site_symmetry_multiplicity
 _atom_site_fract_x
 _atom_site_fract_y
 _atom_site_fract_z
 _atom_site_occupancy
  Ni  Ni0  1  0.75000000  0.75000000  0.00000000  1
  Ni  Ni1  1  0.25000000  0.75000000  0.50000000  1
  Ni  Ni2  1  0.25000000  0.25000000  0.00000000  1
  Ni  Ni3  1  0.75000000  0.25000000  0.50000000  1
  P  P4  1  0.81281250  0.50513650  0.30654400  1
  P  P5  1  0.99761000  0.27278400  0.02885200  1
  P  P6  1  0.81281250  0.49486350  0.80654400  1
  P  P7  1  0.18718750  0.50513650  0.19345600  1
  P  P8  1  0.00239000  0.72721600  0.97114800  1
  P  P9  1  0.00239000  0.27278400  0.47114800  1
  P  P10  1  0.99761000  0.72721600  0.52885200  1
  P  P11  1  0.18718750  0.49486350  0.69345600  1
  P  P12  1  0.31281250  0.00513650  0.30654400  1
  P  P13  1  0.49761000  0.77278400  0.02885200  1
  P  P14  1  0.31281250  0.99486350  0.80654400  1
  P  P15  1  0.68718750  0.00513650  0.19345600  1
  P  P16  1  0.50239000  0.22721600  0.97114800  1
  P  P17  1  0.50239000  0.77278400  0.47114800  1
  P  P18  1  0.49761000  0.22721600  0.52885200  1
  P  P19  1  0.68718750  0.99486350  0.69345600  1
  O  O20  1  0.23931950  0.56761750  0.35071400  1
  O  O21  1  0.97863750  0.87606650  0.60062100  1
  O  O22  1  0.72169650  0.40570950  0.34089600  1
  O  O23  1  0.06804650  0.73624750  0.43081600  1
  O  O24  1  0.93615100  0.40306200  0.33888900  1
  O  O25  1  0.02136250  0.12393350  0.39937900  1
  O  O26  1  0.76068050  0.56761750  0.14928600  1
  O  O27  1  0.93195350  0.73624750  0.06918400  1
  O  O28  1  0.86445400  0.35345000  0.92971000  1
  O  O29  1  0.06384900  0.40306200  0.16111100  1
  O  O30  1  0.27830350  0.40570950  0.15910400  1
  O  O31  1  0.13554600  0.64655000  0.07029000  1
  O  O32  1  0.76068050  0.43238250  0.64928600  1
  O  O33  1  0.23931950  0.43238250  0.85071400  1
  O  O34  1  0.06384900  0.59693800  0.66111100  1
  O  O35  1  0.93615100  0.59693800  0.83888900  1
  O  O36  1  0.02136250  0.87606650  0.89937900  1
  O  O37  1  0.06804650  0.26375250  0.93081600  1
  O  O38  1  0.97863750  0.12393350  0.10062100  1
  O  O39  1  0.27830350  0.59429050  0.65910400  1
  O  O40  1  0.72169650  0.59429050  0.84089600  1
  O  O41  1  0.13554600  0.35345000  0.57029000  1
  O  O42  1  0.86445400  0.64655000  0.42971000  1
  O  O43  1  0.93195350  0.26375250  0.56918400  1
  O  O44  1  0.73931950  0.06761750  0.35071400  1
  O  O45  1  0.47863750  0.37606650  0.60062100  1
  O  O46  1  0.22169650  0.90570950  0.34089600  1
  O  O47  1  0.56804650  0.23624750  0.43081600  1
  O  O48  1  0.43615100  0.90306200  0.33888900  1
  O  O49  1  0.52136250  0.62393350  0.39937900  1
  O  O50  1  0.26068050  0.06761750  0.14928600  1
  O  O51  1  0.43195350  0.23624750  0.06918400  1
  O  O52  1  0.36445400  0.85345000  0.92971000  1
  O  O53  1  0.56384900  0.90306200  0.16111100  1
  O  O54  1  0.77830350  0.90570950  0.15910400  1
  O  O55  1  0.63554600  0.14655000  0.07029000  1
  O  O56  1  0.26068050  0.93238250  0.64928600  1
  O  O57  1  0.73931950  0.93238250  0.85071400  1
  O  O58  1  0.56384900  0.09693800  0.66111100  1
  O  O59  1  0.43615100  0.09693800  0.83888900  1
  O  O60  1  0.52136250  0.37606650  0.89937900  1
  O  O61  1  0.56804650  0.76375250  0.93081600  1
  O  O62  1  0.47863750  0.62393350  0.10062100  1
  O  O63  1  0.77830350  0.09429050  0.65910400  1
  O  O64  1  0.22169650  0.09429050  0.84089600  1
  O  O65  1  0.63554600  0.85345000  0.57029000  1
  O  O66  1  0.36445400  0.14655000  0.42971000  1
  O  O67  1  0.43195350  0.76375250  0.56918400  1
