# generated using pymatgen
data_LiBiP2O7
_symmetry_space_group_name_H-M   'P 1'
_cell_length_a   10.16446200
_cell_length_b   8.98722400
_cell_length_c   13.94764158
_cell_angle_alpha   90.00000000
_cell_angle_beta   109.57313555
_cell_angle_gamma   90.00000000
_symmetry_Int_Tables_number   1
_chemical_formula_structural   LiBiP2O7
_chemical_formula_sum   'Li8 Bi8 P16 O56'
_cell_volume   1200.49563809
_cell_formula_units_Z   8
loop_
 _symmetry_equiv_pos_site_id
 _symmetry_equiv_pos_as_xyz
  1  'x, y, z'
loop_
 _atom_site_type_symbol
 _atom_site_label
 _atom_site_symmetry_multiplicity
 _atom_site_fract_x
 _atom_site_fract_y
 _atom_site_fract_z
 _atom_site_occupancy
  Li  Li0  1  0.61702900  0.38769200  0.62462000  1
  Li  Li1  1  0.61702900  0.61230800  0.12462000  1
  Li  Li2  1  0.88297100  0.88769200  0.87538000  1
  Li  Li3  1  0.88297100  0.11230800  0.37538000  1
  Li  Li4  1  0.11702900  0.88769200  0.62462000  1
  Li  Li5  1  0.11702900  0.11230800  0.12462000  1
  Li  Li6  1  0.38297100  0.38769200  0.87538000  1
  Li  Li7  1  0.38297100  0.61230800  0.37538000  1
  Bi  Bi8  1  0.87188050  0.26693250  0.85931200  1
  Bi  Bi9  1  0.62811950  0.23306750  0.14068800  1
  Bi  Bi10  1  0.87188050  0.73306750  0.35931200  1
  Bi  Bi11  1  0.62811950  0.76693250  0.64068800  1
  Bi  Bi12  1  0.37188050  0.76693250  0.85931200  1
  Bi  Bi13  1  0.12811950  0.73306750  0.14068800  1
  Bi  Bi14  1  0.37188050  0.23306750  0.35931200  1
  Bi  Bi15  1  0.12811950  0.26693250  0.64068800  1
  P  P16  1  0.63174850  0.95308050  0.42797400  1
  P  P17  1  0.13174850  0.54691950  0.92797400  1
  P  P18  1  0.86825150  0.54691950  0.57202600  1
  P  P19  1  0.81850550  0.07080250  0.62888700  1
  P  P20  1  0.36825150  0.95308050  0.07202600  1
  P  P21  1  0.81850550  0.92919750  0.12888700  1
  P  P22  1  0.68149450  0.42919750  0.37111300  1
  P  P23  1  0.68149450  0.57080250  0.87111300  1
  P  P24  1  0.13174850  0.45308050  0.42797400  1
  P  P25  1  0.63174850  0.04691950  0.92797400  1
  P  P26  1  0.36825150  0.04691950  0.57202600  1
  P  P27  1  0.31850550  0.57080250  0.62888700  1
  P  P28  1  0.86825150  0.45308050  0.07202600  1
  P  P29  1  0.31850550  0.42919750  0.12888700  1
  P  P30  1  0.18149450  0.92919750  0.37111300  1
  P  P31  1  0.18149450  0.07080250  0.87111300  1
  O  O32  1  0.25313750  0.55223150  0.88559300  1
  O  O33  1  0.95017250  0.92663650  0.09725500  1
  O  O34  1  0.79327100  0.21675400  0.67784500  1
  O  O35  1  0.09903700  0.69851500  0.96701100  1
  O  O36  1  0.70672900  0.28324600  0.32215500  1
  O  O37  1  0.81751050  0.06862750  0.19356300  1
  O  O38  1  0.90096300  0.69851500  0.53298900  1
  O  O39  1  0.40096300  0.80148500  0.03298900  1
  O  O40  1  0.50244850  0.02656350  0.35622300  1
  O  O41  1  0.68248950  0.56862750  0.30643700  1
  O  O42  1  0.75313750  0.94776850  0.38559300  1
  O  O43  1  0.45017250  0.57336350  0.59725500  1
  O  O44  1  0.74686250  0.55223150  0.61440700  1
  O  O45  1  0.54982750  0.57336350  0.90274500  1
  O  O46  1  0.00244850  0.47343650  0.85622300  1
  O  O47  1  0.99755150  0.47343650  0.64377700  1
  O  O48  1  0.68372250  0.93548050  0.02624500  1
  O  O49  1  0.68372250  0.06451950  0.52624500  1
  O  O50  1  0.04982750  0.92663650  0.40274500  1
  O  O51  1  0.79327100  0.78324600  0.17784500  1
  O  O52  1  0.81751050  0.93137250  0.69356300  1
  O  O53  1  0.81627750  0.43548050  0.47375500  1
  O  O54  1  0.24686250  0.94776850  0.11440700  1
  O  O55  1  0.81627750  0.56451950  0.97375500  1
  O  O56  1  0.59903700  0.80148500  0.46701100  1
  O  O57  1  0.70672900  0.71675400  0.82215500  1
  O  O58  1  0.49755150  0.02656350  0.14377700  1
  O  O59  1  0.68248950  0.43137250  0.80643700  1
  O  O60  1  0.75313750  0.05223150  0.88559300  1
  O  O61  1  0.45017250  0.42663650  0.09725500  1
  O  O62  1  0.29327100  0.71675400  0.67784500  1
  O  O63  1  0.59903700  0.19851500  0.96701100  1
  O  O64  1  0.20672900  0.78324600  0.32215500  1
  O  O65  1  0.31751050  0.56862750  0.19356300  1
  O  O66  1  0.40096300  0.19851500  0.53298900  1
  O  O67  1  0.90096300  0.30148500  0.03298900  1
  O  O68  1  0.00244850  0.52656350  0.35622300  1
  O  O69  1  0.18248950  0.06862750  0.30643700  1
  O  O70  1  0.25313750  0.44776850  0.38559300  1
  O  O71  1  0.95017250  0.07336350  0.59725500  1
  O  O72  1  0.24686250  0.05223150  0.61440700  1
  O  O73  1  0.04982750  0.07336350  0.90274500  1
  O  O74  1  0.50244850  0.97343650  0.85622300  1
  O  O75  1  0.49755150  0.97343650  0.64377700  1
  O  O76  1  0.18372250  0.43548050  0.02624500  1
  O  O77  1  0.18372250  0.56451950  0.52624500  1
  O  O78  1  0.54982750  0.42663650  0.40274500  1
  O  O79  1  0.29327100  0.28324600  0.17784500  1
  O  O80  1  0.31751050  0.43137250  0.69356300  1
  O  O81  1  0.31627750  0.93548050  0.47375500  1
  O  O82  1  0.74686250  0.44776850  0.11440700  1
  O  O83  1  0.31627750  0.06451950  0.97375500  1
  O  O84  1  0.09903700  0.30148500  0.46701100  1
  O  O85  1  0.20672900  0.21675400  0.82215500  1
  O  O86  1  0.99755150  0.52656350  0.14377700  1
  O  O87  1  0.18248950  0.93137250  0.80643700  1
