# generated using pymatgen
data_NaAgO
_symmetry_space_group_name_H-M   'P 1'
_cell_length_a   9.59842800
_cell_length_b   9.59842800
_cell_length_c   4.68964000
_cell_angle_alpha   90.00000000
_cell_angle_beta   90.00000000
_cell_angle_gamma   90.00000000
_symmetry_Int_Tables_number   1
_chemical_formula_structural   NaAgO
_chemical_formula_sum   'Na8 Ag8 O8'
_cell_volume   432.05568940
_cell_formula_units_Z   8
loop_
 _symmetry_equiv_pos_site_id
 _symmetry_equiv_pos_as_xyz
  1  'x, y, z'
loop_
 _atom_site_type_symbol
 _atom_site_label
 _atom_site_symmetry_multiplicity
 _atom_site_fract_x
 _atom_site_fract_y
 _atom_site_fract_z
 _atom_site_occupancy
  Na  Na0  1  0.33975400  0.00000000  0.50000000  1
  Na  Na1  1  0.50000000  0.16024600  0.00000000  1
  Na  Na2  1  0.50000000  0.83975400  0.00000000  1
  Na  Na3  1  0.66024600  0.00000000  0.50000000  1
  Na  Na4  1  0.83975400  0.50000000  0.00000000  1
  Na  Na5  1  0.00000000  0.66024600  0.50000000  1
  Na  Na6  1  0.00000000  0.33975400  0.50000000  1
  Na  Na7  1  0.16024600  0.50000000  0.00000000  1
  Ag  Ag8  1  0.84268350  0.84268350  0.00000000  1
  Ag  Ag9  1  0.84268350  0.15731650  0.00000000  1
  Ag  Ag10  1  0.65731650  0.34268350  0.50000000  1
  Ag  Ag11  1  0.65731650  0.65731650  0.50000000  1
  Ag  Ag12  1  0.34268350  0.34268350  0.50000000  1
  Ag  Ag13  1  0.34268350  0.65731650  0.50000000  1
  Ag  Ag14  1  0.15731650  0.84268350  0.00000000  1
  Ag  Ag15  1  0.15731650  0.15731650  0.00000000  1
  O  O16  1  0.30890400  0.00000000  0.00000000  1
  O  O17  1  0.50000000  0.19109600  0.50000000  1
  O  O18  1  0.50000000  0.80890400  0.50000000  1
  O  O19  1  0.69109600  0.00000000  0.00000000  1
  O  O20  1  0.80890400  0.50000000  0.50000000  1
  O  O21  1  0.00000000  0.69109600  0.00000000  1
  O  O22  1  0.00000000  0.30890400  0.00000000  1
  O  O23  1  0.19109600  0.50000000  0.50000000  1
