# generated using pymatgen
data_Na2Sn(HO)6
_symmetry_space_group_name_H-M   'P 1'
_cell_length_a   6.62390199
_cell_length_b   6.62390199
_cell_length_c   13.61487266
_cell_angle_alpha   90.00000000
_cell_angle_beta   90.00000000
_cell_angle_gamma   120.00000000
_symmetry_Int_Tables_number   1
_chemical_formula_structural   Na2Sn(HO)6
_chemical_formula_sum   'Na6 Sn3 H18 O18'
_cell_volume   517.33517777
_cell_formula_units_Z   3
loop_
 _symmetry_equiv_pos_site_id
 _symmetry_equiv_pos_as_xyz
  1  'x, y, z'
loop_
 _atom_site_type_symbol
 _atom_site_label
 _atom_site_symmetry_multiplicity
 _atom_site_fract_x
 _atom_site_fract_y
 _atom_site_fract_z
 _atom_site_occupancy
  Na  Na0  1  0.33333333  0.66666667  0.28390967  1
  Na  Na1  1  0.33333333  0.66666667  0.04942367  1
  Na  Na2  1  0.00000000  0.00000000  0.61724300  1
  Na  Na3  1  0.00000000  0.00000000  0.38275700  1
  Na  Na4  1  0.66666667  0.33333333  0.95057633  1
  Na  Na5  1  0.66666667  0.33333333  0.71609033  1
  Sn  Sn6  1  0.00000000  0.00000000  0.00000000  1
  Sn  Sn7  1  0.66666667  0.33333333  0.33333333  1
  Sn  Sn8  1  0.33333333  0.66666667  0.66666667  1
  H  H9  1  0.96300533  0.67239367  0.12555767  1
  H  H10  1  0.32760633  0.29061167  0.12555767  1
  H  H11  1  0.70938833  0.03699467  0.12555767  1
  H  H12  1  0.70366133  0.66093967  0.20777567  1
  H  H13  1  0.33906033  0.04272167  0.20777567  1
  H  H14  1  0.95727833  0.29633867  0.20777567  1
  H  H15  1  0.62967200  0.00572700  0.45889100  1
  H  H16  1  0.99427300  0.62394500  0.45889100  1
  H  H17  1  0.37605500  0.37032800  0.45889100  1
  H  H18  1  0.37032800  0.99427300  0.54110900  1
  H  H19  1  0.00572700  0.37605500  0.54110900  1
  H  H20  1  0.62394500  0.62967200  0.54110900  1
  H  H21  1  0.29633867  0.33906033  0.79222433  1
  H  H22  1  0.66093967  0.95727833  0.79222433  1
  H  H23  1  0.04272167  0.70366133  0.79222433  1
  H  H24  1  0.03699467  0.32760633  0.87444233  1
  H  H25  1  0.67239367  0.70938833  0.87444233  1
  H  H26  1  0.29061167  0.96300533  0.87444233  1
  O  O27  1  0.20499800  0.29293600  0.08690000  1
  O  O28  1  0.70706400  0.91206200  0.08690000  1
  O  O29  1  0.08793800  0.79500200  0.08690000  1
  O  O30  1  0.46166867  0.04039733  0.24643333  1
  O  O31  1  0.95960267  0.42127133  0.24643333  1
  O  O32  1  0.57872867  0.53833133  0.24643333  1
  O  O33  1  0.87166467  0.62626933  0.42023333  1
  O  O34  1  0.37373067  0.24539533  0.42023333  1
  O  O35  1  0.75460467  0.12833533  0.42023333  1
  O  O36  1  0.12833533  0.37373067  0.57976667  1
  O  O37  1  0.62626933  0.75460467  0.57976667  1
  O  O38  1  0.24539533  0.87166467  0.57976667  1
  O  O39  1  0.53833133  0.95960267  0.75356667  1
  O  O40  1  0.04039733  0.57872867  0.75356667  1
  O  O41  1  0.42127133  0.46166867  0.75356667  1
  O  O42  1  0.79500200  0.70706400  0.91310000  1
  O  O43  1  0.29293600  0.08793800  0.91310000  1
  O  O44  1  0.91206200  0.20499800  0.91310000  1
