# generated using pymatgen
data_Ca2HoF7
_symmetry_space_group_name_H-M   'P 1'
_cell_length_a   7.78087800
_cell_length_b   3.68497400
_cell_length_c   30.33645987
_cell_angle_alpha   90.00000000
_cell_angle_beta   95.96129140
_cell_angle_gamma   90.00000000
_symmetry_Int_Tables_number   1
_chemical_formula_structural   Ca2HoF7
_chemical_formula_sum   'Ca12 Ho6 F42'
_cell_volume   865.11336210
_cell_formula_units_Z   6
loop_
 _symmetry_equiv_pos_site_id
 _symmetry_equiv_pos_as_xyz
  1  'x, y, z'
loop_
 _atom_site_type_symbol
 _atom_site_label
 _atom_site_symmetry_multiplicity
 _atom_site_fract_x
 _atom_site_fract_y
 _atom_site_fract_z
 _atom_site_occupancy
  Ca  Ca0  1  0.98530000  0.00000000  0.99770400  1
  Ca  Ca1  1  0.69258300  0.00000000  0.91115700  1
  Ca  Ca2  1  0.61083500  0.50000000  0.78884100  1
  Ca  Ca3  1  0.52609200  0.00000000  0.66648100  1
  Ca  Ca4  1  0.59731100  0.50000000  0.54541200  1
  Ca  Ca5  1  0.47638700  0.00000000  0.12374600  1
  Ca  Ca6  1  0.48530000  0.50000000  0.99770400  1
  Ca  Ca7  1  0.19258300  0.50000000  0.91115700  1
  Ca  Ca8  1  0.11083500  0.00000000  0.78884100  1
  Ca  Ca9  1  0.02609200  0.50000000  0.66648100  1
  Ca  Ca10  1  0.09731100  0.00000000  0.54541200  1
  Ca  Ca11  1  0.97638700  0.50000000  0.12374600  1
  Ho  Ho12  1  0.32644700  0.50000000  0.45069500  1
  Ho  Ho13  1  0.39076800  0.00000000  0.34199800  1
  Ho  Ho14  1  0.45378600  0.50000000  0.23324600  1
  Ho  Ho15  1  0.82644700  0.00000000  0.45069500  1
  Ho  Ho16  1  0.89076800  0.50000000  0.34199800  1
  Ho  Ho17  1  0.95378600  0.00000000  0.23324600  1
  F  F18  1  0.51161800  0.50000000  0.90559300  1
  F  F19  1  0.69440100  0.00000000  0.83599300  1
  F  F20  1  0.41368100  0.00000000  0.77826500  1
  F  F21  1  0.61208900  0.50000000  0.71399700  1
  F  F22  1  0.28450000  0.50000000  0.53097200  1
  F  F23  1  0.33069100  0.50000000  0.65644800  1
  F  F24  1  0.53679000  0.00000000  0.59203700  1
  F  F25  1  0.32627600  0.00000000  0.41412500  1
  F  F26  1  0.44799800  0.00000000  0.49531100  1
  F  F27  1  0.61981700  0.50000000  0.46858700  1
  F  F28  1  0.37483900  0.50000000  0.30532200  1
  F  F29  1  0.47978800  0.50000000  0.38884400  1
  F  F30  1  0.40320200  0.00000000  0.19502400  1
  F  F31  1  0.66734200  0.00000000  0.36352900  1
  F  F32  1  0.53683200  0.00000000  0.27941400  1
  F  F33  1  0.22458600  0.00000000  0.25625600  1
  F  F34  1  0.51481500  0.50000000  0.06507100  1
  F  F35  1  0.57524800  0.50000000  0.16852000  1
  F  F36  1  0.26624200  0.50000000  0.11720700  1
  F  F37  1  0.66356300  0.00000000  0.98974500  1
  F  F38  1  0.83894800  0.50000000  0.94990300  1
  F  F39  1  0.01161800  0.00000000  0.90559300  1
  F  F40  1  0.19440100  0.50000000  0.83599300  1
  F  F41  1  0.91368100  0.50000000  0.77826500  1
  F  F42  1  0.11208900  0.00000000  0.71399700  1
  F  F43  1  0.78450000  0.00000000  0.53097200  1
  F  F44  1  0.83069100  0.00000000  0.65644800  1
  F  F45  1  0.03679000  0.50000000  0.59203700  1
  F  F46  1  0.82627600  0.50000000  0.41412500  1
  F  F47  1  0.94799800  0.50000000  0.49531100  1
  F  F48  1  0.11981700  0.00000000  0.46858700  1
  F  F49  1  0.87483900  0.00000000  0.30532200  1
  F  F50  1  0.97978800  0.00000000  0.38884400  1
  F  F51  1  0.90320200  0.50000000  0.19502400  1
  F  F52  1  0.16734200  0.50000000  0.36352900  1
  F  F53  1  0.03683200  0.50000000  0.27941400  1
  F  F54  1  0.72458600  0.50000000  0.25625600  1
  F  F55  1  0.01481500  0.00000000  0.06507100  1
  F  F56  1  0.07524800  0.00000000  0.16852000  1
  F  F57  1  0.76624200  0.00000000  0.11720700  1
  F  F58  1  0.16356300  0.50000000  0.98974500  1
  F  F59  1  0.33894800  0.00000000  0.94990300  1
