# generated using pymatgen
data_Sr(H2O3)2
_symmetry_space_group_name_H-M   'P 1'
_cell_length_a   7.83076800
_cell_length_b   8.75218000
_cell_length_c   6.05792322
_cell_angle_alpha   90.00000000
_cell_angle_beta   90.85736099
_cell_angle_gamma   90.00000000
_symmetry_Int_Tables_number   1
_chemical_formula_structural   Sr(H2O3)2
_chemical_formula_sum   'Sr4 H16 O24'
_cell_volume   415.14110643
_cell_formula_units_Z   4
loop_
 _symmetry_equiv_pos_site_id
 _symmetry_equiv_pos_as_xyz
  1  'x, y, z'
loop_
 _atom_site_type_symbol
 _atom_site_label
 _atom_site_symmetry_multiplicity
 _atom_site_fract_x
 _atom_site_fract_y
 _atom_site_fract_z
 _atom_site_occupancy
  Sr  Sr0  1  0.50000000  0.69243200  0.25000000  1
  Sr  Sr1  1  0.50000000  0.30756800  0.75000000  1
  Sr  Sr2  1  0.00000000  0.19243200  0.25000000  1
  Sr  Sr3  1  0.00000000  0.80756800  0.75000000  1
  H  H4  1  0.15997850  0.15980950  0.74552600  1
  H  H5  1  0.84002150  0.15980950  0.75447400  1
  H  H6  1  0.84002150  0.84019050  0.25447400  1
  H  H7  1  0.15997850  0.84019050  0.24552600  1
  H  H8  1  0.34245250  0.94708750  0.57649700  1
  H  H9  1  0.34245250  0.05291250  0.07649700  1
  H  H10  1  0.65754750  0.05291250  0.42350300  1
  H  H11  1  0.65754750  0.94708750  0.92350300  1
  H  H12  1  0.65997850  0.65980950  0.74552600  1
  H  H13  1  0.34002150  0.65980950  0.75447400  1
  H  H14  1  0.34002150  0.34019050  0.25447400  1
  H  H15  1  0.65997850  0.34019050  0.24552600  1
  H  H16  1  0.84245250  0.44708750  0.57649700  1
  H  H17  1  0.84245250  0.55291250  0.07649700  1
  H  H18  1  0.15754750  0.55291250  0.42350300  1
  H  H19  1  0.15754750  0.44708750  0.92350300  1
  O  O20  1  0.15005150  0.08198150  0.61072800  1
  O  O21  1  0.84994850  0.08198150  0.88927200  1
  O  O22  1  0.84994850  0.91801850  0.38927200  1
  O  O23  1  0.15005150  0.91801850  0.11072800  1
  O  O24  1  0.33388800  0.06573600  0.56147300  1
  O  O25  1  0.66611200  0.06573600  0.93852700  1
  O  O26  1  0.66611200  0.93426400  0.43852700  1
  O  O27  1  0.33388800  0.93426400  0.06147300  1
  O  O28  1  0.31574300  0.22532100  0.08598400  1
  O  O29  1  0.68425700  0.22532100  0.41401600  1
  O  O30  1  0.68425700  0.77467900  0.91401600  1
  O  O31  1  0.31574300  0.77467900  0.58598400  1
  O  O32  1  0.65005150  0.58198150  0.61072800  1
  O  O33  1  0.34994850  0.58198150  0.88927200  1
  O  O34  1  0.34994850  0.41801850  0.38927200  1
  O  O35  1  0.65005150  0.41801850  0.11072800  1
  O  O36  1  0.83388800  0.56573600  0.56147300  1
  O  O37  1  0.16611200  0.56573600  0.93852700  1
  O  O38  1  0.16611200  0.43426400  0.43852700  1
  O  O39  1  0.83388800  0.43426400  0.06147300  1
  O  O40  1  0.81574300  0.72532100  0.08598400  1
  O  O41  1  0.18425700  0.72532100  0.41401600  1
  O  O42  1  0.18425700  0.27467900  0.91401600  1
  O  O43  1  0.81574300  0.27467900  0.58598400  1
