# generated using pymatgen
data_InPF3
_symmetry_space_group_name_H-M   'P 1'
_cell_length_a   6.16517394
_cell_length_b   6.16517394
_cell_length_c   11.28879626
_cell_angle_alpha   90.00000000
_cell_angle_beta   90.00000000
_cell_angle_gamma   120.00000000
_symmetry_Int_Tables_number   1
_chemical_formula_structural   InPF3
_chemical_formula_sum   'In3 P3 F9'
_cell_volume   371.59420719
_cell_formula_units_Z   3
loop_
 _symmetry_equiv_pos_site_id
 _symmetry_equiv_pos_as_xyz
  1  'x, y, z'
loop_
 _atom_site_type_symbol
 _atom_site_label
 _atom_site_symmetry_multiplicity
 _atom_site_fract_x
 _atom_site_fract_y
 _atom_site_fract_z
 _atom_site_occupancy
  In  In0  1  0.33333333  0.66666667  0.14516067  1
  In  In1  1  0.00000000  0.00000000  0.47849400  1
  In  In2  1  0.66666667  0.33333333  0.81182733  1
  P  P3  1  0.33333333  0.66666667  0.67260667  1
  P  P4  1  0.00000000  0.00000000  0.00594000  1
  P  P5  1  0.66666667  0.33333333  0.33927333  1
  F  F6  1  0.25562133  0.93199767  0.98378867  1
  F  F7  1  0.67637633  0.74437867  0.98378867  1
  F  F8  1  0.06800233  0.32362367  0.98378867  1
  F  F9  1  0.92228800  0.26533100  0.31712200  1
  F  F10  1  0.34304300  0.07771200  0.31712200  1
  F  F11  1  0.73466900  0.65695700  0.31712200  1
  F  F12  1  0.58895467  0.59866433  0.65045533  1
  F  F13  1  0.00970967  0.41104533  0.65045533  1
  F  F14  1  0.40133567  0.99029033  0.65045533  1
