# generated using pymatgen
data_KNa6Al7Si9O32
_symmetry_space_group_name_H-M   'P 1'
_cell_length_a   8.52945600
_cell_length_b   10.12693113
_cell_length_c   10.14619448
_cell_angle_alpha   119.67393343
_cell_angle_beta   90.73349473
_cell_angle_gamma   90.61328497
_symmetry_Int_Tables_number   1
_chemical_formula_structural   KNa6Al7Si9O32
_chemical_formula_sum   'K1 Na6 Al7 Si9 O32'
_cell_volume   761.25724807
_cell_formula_units_Z   1
loop_
 _symmetry_equiv_pos_site_id
 _symmetry_equiv_pos_as_xyz
  1  'x, y, z'
loop_
 _atom_site_type_symbol
 _atom_site_label
 _atom_site_symmetry_multiplicity
 _atom_site_fract_x
 _atom_site_fract_y
 _atom_site_fract_z
 _atom_site_occupancy
  K  K0  1  0.46800100  0.01107400  0.00814100  1
  Na  Na1  1  0.50158000  0.43975700  0.42787800  1
  Na  Na2  1  0.48765800  0.57920300  0.04054200  1
  Na  Na3  1  0.00970400  0.46178700  0.02263200  1
  Na  Na4  1  0.98624700  0.98497900  0.45286800  1
  Na  Na5  1  0.50870700  0.97505100  0.54638300  1
  Na  Na6  1  0.99998400  0.58021400  0.55513200  1
  Al  Al7  1  0.68811400  0.10824000  0.34696600  1
  Al  Al8  1  0.15264500  0.33742700  0.66752300  1
  Al  Al9  1  0.18243200  0.77119000  0.08937000  1
  Al  Al10  1  0.72843500  0.65266900  0.32920900  1
  Al  Al11  1  0.18304100  0.31662400  0.22512600  1
  Al  Al12  1  0.18378400  0.91774600  0.67572400  1
  Al  Al13  1  0.80434300  0.90545800  0.67880200  1
  Si  Si14  1  0.30945400  0.11108300  0.35225700  1
  Si  Si15  1  0.31631000  0.65541400  0.76020200  1
  Si  Si16  1  0.68743300  0.64597800  0.76441200  1
  Si  Si17  1  0.85785800  0.32976100  0.67086100  1
  Si  Si18  1  0.81070700  0.76717300  0.09246200  1
  Si  Si19  1  0.32166400  0.24562800  0.88815400  1
  Si  Si20  1  0.68879100  0.23933300  0.89441600  1
  Si  Si21  1  0.24618000  0.66935300  0.33736400  1
  Si  Si22  1  0.82119100  0.32038700  0.22930700  1
  O  O23  1  0.31735000  0.24418200  0.30442900  1
  O  O24  1  0.68589900  0.24129700  0.28161600  1
  O  O25  1  0.49147800  0.07235300  0.37450500  1
  O  O26  1  0.50247800  0.61743700  0.70209800  1
  O  O27  1  0.21318500  0.50032600  0.65786900  1
  O  O28  1  0.77211100  0.48018100  0.67423200  1
  O  O29  1  0.78785100  0.17689000  0.52208900  1
  O  O30  1  0.21438700  0.16833200  0.50982300  1
  O  O31  1  0.31836500  0.71024300  0.94124900  1
  O  O32  1  0.68056000  0.71205100  0.94880500  1
  O  O33  1  0.79063100  0.32915300  0.82543700  1
  O  O34  1  0.98686400  0.73052600  0.02563900  1
  O  O35  1  0.23004600  0.35523000  0.83870500  1
  O  O36  1  0.22225300  0.96013900  0.21717000  1
  O  O37  1  0.78220200  0.94267800  0.21540500  1
  O  O38  1  0.32490600  0.06841900  0.75542000  1
  O  O39  1  0.67496300  0.05723900  0.78843800  1
  O  O40  1  0.77186800  0.65405700  0.16061200  1
  O  O41  1  0.50911300  0.30855000  0.92462800  1
  O  O42  1  0.21892900  0.65232300  0.17020400  1
  O  O43  1  0.24646700  0.26523100  0.04273200  1
  O  O44  1  0.77569200  0.29210700  0.05797300  1
  O  O45  1  0.53040400  0.57094200  0.28926000  1
  O  O46  1  0.43576200  0.70503800  0.39348500  1
  O  O47  1  0.74632300  0.83007400  0.48763400  1
  O  O48  1  0.18208800  0.82746300  0.47231000  1
  O  O49  1  0.18280100  0.51825800  0.33771400  1
  O  O50  1  0.82541500  0.50575400  0.34220400  1
  O  O51  1  0.99270800  0.25484200  0.22929500  1
  O  O52  1  0.99362100  0.97574900  0.70798900  1
  O  O53  1  0.78098700  0.75873000  0.72434500  1
  O  O54  1  0.25002900  0.78767500  0.73096000  1
