# generated using pymatgen
data_Mg4Al3(HO)17
_symmetry_space_group_name_H-M   'P 1'
_cell_length_a   3.03599500
_cell_length_b   7.17337068
_cell_length_c   18.56360278
_cell_angle_alpha   95.51891660
_cell_angle_beta   94.51798339
_cell_angle_gamma   101.95289907
_symmetry_Int_Tables_number   1
_chemical_formula_structural   Mg4Al3(HO)17
_chemical_formula_sum   'Mg4 Al3 H17 O17'
_cell_volume   391.65795160
_cell_formula_units_Z   1
loop_
 _symmetry_equiv_pos_site_id
 _symmetry_equiv_pos_as_xyz
  1  'x, y, z'
loop_
 _atom_site_type_symbol
 _atom_site_label
 _atom_site_symmetry_multiplicity
 _atom_site_fract_x
 _atom_site_fract_y
 _atom_site_fract_z
 _atom_site_occupancy
  Mg  Mg0  1  0.56937300  0.00299800  0.13685800  1
  Mg  Mg1  1  0.14247300  0.99958300  0.28424600  1
  Mg  Mg2  1  0.71700600  0.00081700  0.43235700  1
  Mg  Mg3  1  0.29037900  0.99817900  0.57819000  1
  Al  Al4  1  0.98538600  0.99680900  0.98696400  1
  Al  Al5  1  0.85502900  0.98738500  0.71599000  1
  Al  Al6  1  0.41670000  0.99224600  0.85216000  1
  H  H7  1  0.65373300  0.28654100  0.03691800  1
  H  H8  1  0.88263000  0.72549700  0.05633900  1
  H  H9  1  0.24265800  0.28764500  0.20237800  1
  H  H10  1  0.46787000  0.71082400  0.22418900  1
  H  H11  1  0.81820200  0.28966700  0.35095200  1
  H  H12  1  0.04385200  0.71265700  0.37470400  1
  H  H13  1  0.37682600  0.29053600  0.49991800  1
  H  H14  1  0.50303700  0.50569200  0.61605800  1
  H  H15  1  0.59513600  0.71068400  0.52523500  1
  H  H16  1  0.98353000  0.28677300  0.64018700  1
  H  H17  1  0.04640600  0.51480200  0.74704900  1
  H  H18  1  0.22613300  0.66339900  0.64196400  1
  H  H19  1  0.54789300  0.28938600  0.77608700  1
  H  H20  1  0.63531900  0.50875500  0.89154000  1
  H  H21  1  0.79422100  0.66029900  0.78809400  1
  H  H22  1  0.12811700  0.29571900  0.91813700  1
  H  H23  1  0.38755300  0.64756600  0.93398700  1
  O  O24  1  0.58962100  0.15019900  0.04118900  1
  O  O25  1  0.96578800  0.86332500  0.07106400  1
  O  O26  1  0.16910800  0.15017500  0.19034300  1
  O  O27  1  0.53744800  0.84826900  0.22354300  1
  O  O28  1  0.74428600  0.15203000  0.33812000  1
  O  O29  1  0.11380700  0.84984200  0.37292200  1
  O  O30  1  0.31819400  0.15295700  0.48727900  1
  O  O31  1  0.69059900  0.84670900  0.52116600  1
  O  O32  1  0.88926500  0.14662000  0.63923000  1
  O  O33  1  0.19119200  0.52377300  0.61395400  1
  O  O34  1  0.27495300  0.86199500  0.67514400  1
  O  O35  1  0.44483900  0.14676000  0.77427900  1
  O  O36  1  0.79129700  0.51637600  0.77626400  1
  O  O37  1  0.83672100  0.87499900  0.80689300  1
  O  O38  1  0.01235300  0.15240800  0.90946000  1
  O  O39  1  0.46258100  0.51546600  0.93378100  1
  O  O40  1  0.40048600  0.87518500  0.93982100  1
