# generated using pymatgen
data_Sr(H8O5)2
_symmetry_space_group_name_H-M   'P 1'
_cell_length_a   5.93870300
_cell_length_b   6.55082893
_cell_length_c   6.69338492
_cell_angle_alpha   86.96959601
_cell_angle_beta   88.14594399
_cell_angle_gamma   88.57747151
_symmetry_Int_Tables_number   1
_chemical_formula_structural   Sr(H8O5)2
_chemical_formula_sum   'Sr1 H16 O10'
_cell_volume   259.82564403
_cell_formula_units_Z   1
loop_
 _symmetry_equiv_pos_site_id
 _symmetry_equiv_pos_as_xyz
  1  'x, y, z'
loop_
 _atom_site_type_symbol
 _atom_site_label
 _atom_site_symmetry_multiplicity
 _atom_site_fract_x
 _atom_site_fract_y
 _atom_site_fract_z
 _atom_site_occupancy
  Sr  Sr0  1  0.00000000  0.00000000  0.00000000  1
  H  H1  1  0.25175900  0.67112900  0.67561500  1
  H  H2  1  0.40868200  0.79002600  0.80023400  1
  H  H3  1  0.30904900  0.32559200  0.34519500  1
  H  H4  1  0.27865300  0.08266200  0.31361300  1
  H  H5  1  0.27082800  0.69020700  0.35386200  1
  H  H6  1  0.42714100  0.81028100  0.20763700  1
  H  H7  1  0.30442600  0.35145400  0.68593500  1
  H  H8  1  0.28395600  0.34979400  0.92700700  1
  H  H9  1  0.59131800  0.20997400  0.19976600  1
  H  H10  1  0.74824100  0.32887100  0.32438500  1
  H  H11  1  0.69095100  0.67440800  0.65480500  1
  H  H12  1  0.72134700  0.91733800  0.68638700  1
  H  H13  1  0.57285900  0.18971900  0.79236300  1
  H  H14  1  0.72917200  0.30979300  0.64613800  1
  H  H15  1  0.69557400  0.64854600  0.31406500  1
  H  H16  1  0.71604400  0.65020600  0.07299300  1
  O  O17  1  0.36933200  0.48842100  0.50065200  1
  O  O18  1  0.63066800  0.51157900  0.49934800  1
  O  O19  1  0.24527000  0.76599900  0.78726900  1
  O  O20  1  0.28484100  0.21812200  0.24164800  1
  O  O21  1  0.26694300  0.81340100  0.25675600  1
  O  O22  1  0.27663500  0.25936100  0.81655000  1
  O  O23  1  0.75473000  0.23400100  0.21273100  1
  O  O24  1  0.71515900  0.78187800  0.75835200  1
  O  O25  1  0.73305700  0.18659900  0.74324400  1
  O  O26  1  0.72336500  0.74063900  0.18345000  1
