# generated using pymatgen
data_KLiSO4
_symmetry_space_group_name_H-M   'P 1'
_cell_length_a   5.19846200
_cell_length_b   9.07048200
_cell_length_c   8.80271399
_cell_angle_alpha   90.00000000
_cell_angle_beta   90.32884978
_cell_angle_gamma   90.00000000
_symmetry_Int_Tables_number   1
_chemical_formula_structural   KLiSO4
_chemical_formula_sum   'K4 Li4 S4 O16'
_cell_volume   415.06362770
_cell_formula_units_Z   4
loop_
 _symmetry_equiv_pos_site_id
 _symmetry_equiv_pos_as_xyz
  1  'x, y, z'
loop_
 _atom_site_type_symbol
 _atom_site_label
 _atom_site_symmetry_multiplicity
 _atom_site_fract_x
 _atom_site_fract_y
 _atom_site_fract_z
 _atom_site_occupancy
  K  K0  1  0.03731650  0.99858650  0.49393300  1
  K  K1  1  0.53731650  0.50141350  0.99393300  1
  K  K2  1  0.53731650  0.49858650  0.49393300  1
  K  K3  1  0.03731650  0.00141350  0.99393300  1
  Li  Li4  1  0.03505150  0.66973450  0.30805700  1
  Li  Li5  1  0.53505150  0.83026550  0.80805700  1
  Li  Li6  1  0.53505150  0.16973450  0.30805700  1
  Li  Li7  1  0.03505150  0.33026550  0.80805700  1
  S  S8  1  0.53432350  0.83476250  0.19781200  1
  S  S9  1  0.03432350  0.66523750  0.69781200  1
  S  S10  1  0.03432350  0.33476250  0.19781200  1
  S  S11  1  0.53432350  0.16523750  0.69781200  1
  O  O12  1  0.81114750  0.83321850  0.24359800  1
  O  O13  1  0.31114750  0.66678150  0.74359800  1
  O  O14  1  0.41038600  0.97373300  0.25081500  1
  O  O15  1  0.91038600  0.52626700  0.75081500  1
  O  O16  1  0.01506500  0.67264500  0.52892600  1
  O  O17  1  0.51506500  0.82735500  0.02892600  1
  O  O18  1  0.89970950  0.79523550  0.76385900  1
  O  O19  1  0.39970950  0.70476450  0.26385900  1
  O  O20  1  0.31114750  0.33321850  0.24359800  1
  O  O21  1  0.81114750  0.16678150  0.74359800  1
  O  O22  1  0.91038600  0.47373300  0.25081500  1
  O  O23  1  0.41038600  0.02626700  0.75081500  1
  O  O24  1  0.51506500  0.17264500  0.52892600  1
  O  O25  1  0.01506500  0.32735500  0.02892600  1
  O  O26  1  0.39970950  0.29523550  0.76385900  1
  O  O27  1  0.89970950  0.20476450  0.26385900  1
