# generated using pymatgen
data_Tb6PbSe10
_symmetry_space_group_name_H-M   'P 1'
_cell_length_a   7.62691111
_cell_length_b   7.63384120
_cell_length_c   31.52433200
_cell_angle_alpha   94.68461146
_cell_angle_beta   94.51583761
_cell_angle_gamma   109.56858828
_symmetry_Int_Tables_number   1
_chemical_formula_structural   Tb6PbSe10
_chemical_formula_sum   'Tb24 Pb4 Se40'
_cell_volume   1712.60594058
_cell_formula_units_Z   4
loop_
 _symmetry_equiv_pos_site_id
 _symmetry_equiv_pos_as_xyz
  1  'x, y, z'
loop_
 _atom_site_type_symbol
 _atom_site_label
 _atom_site_symmetry_multiplicity
 _atom_site_fract_x
 _atom_site_fract_y
 _atom_site_fract_z
 _atom_site_occupancy
  Tb  Tb0  1  0.17589067  0.80125143  0.02212942  1
  Tb  Tb1  1  0.57225468  0.20699188  0.22497088  1
  Tb  Tb2  1  0.99731350  0.36911851  0.12586881  1
  Tb  Tb3  1  0.53118247  0.40357867  0.07422699  1
  Tb  Tb4  1  0.97139651  0.61165640  0.43063588  1
  Tb  Tb5  1  0.39595607  0.76707894  0.32705677  1
  Tb  Tb6  1  0.93032797  0.80238976  0.27537799  1
  Tb  Tb7  1  0.17502978  0.92317872  0.14993422  1
  Tb  Tb8  1  0.37058981  0.99130226  0.62569791  1
  Tb  Tb9  1  0.80818774  0.16735451  0.52790867  1
  Tb  Tb10  1  0.32140116  0.19816803  0.47621535  1
  Tb  Tb11  1  0.99493169  0.12037523  0.37623838  1
  Tb  Tb12  1  0.57413994  0.32300531  0.35115687  1
  Tb  Tb13  1  0.77491564  0.40287438  0.82590301  1
  Tb  Tb14  1  0.19490422  0.56792880  0.72470058  1
  Tb  Tb15  1  0.73363141  0.60037899  0.67085198  1
  Tb  Tb16  1  0.39749377  0.54151521  0.57268055  1
  Tb  Tb17  1  0.59721139  0.97802061  0.92164163  1
  Tb  Tb18  1  0.36937538  0.12465103  0.75284225  1
  Tb  Tb19  1  0.81042638  0.92442892  0.77900444  1
  Tb  Tb20  1  0.92155869  0.17763022  0.64906816  1
  Tb  Tb21  1  0.19983281  0.32295105  0.96955936  1
  Tb  Tb22  1  0.78068291  0.53826707  0.94659436  1
  Tb  Tb23  1  0.32375581  0.57049572  0.85119968  1
  Pb  Pb24  1  0.59929496  0.72509015  0.17293327  1
  Pb  Pb25  1  0.72865935  0.97092120  0.04813420  1
  Pb  Pb26  1  0.12986963  0.37714238  0.24948871  1
  Pb  Pb27  1  0.52620180  0.76997459  0.45383725  1
  Se  Se28  1  0.32617224  0.69213563  0.09827576  1
  Se  Se29  1  0.24525683  0.09313556  0.30286619  1
  Se  Se30  1  0.92031948  0.41982016  0.02568753  1
  Se  Se31  1  0.33594228  0.32837395  0.16797146  1
  Se  Se32  1  0.90060654  0.04284878  0.20026410  1
  Se  Se33  1  0.63887365  0.48208217  0.50267761  1
  Se  Se34  1  0.15424942  0.14716489  0.07225882  1
  Se  Se35  1  0.14260257  0.48684300  0.49997142  1
  Se  Se36  1  0.74676877  0.74150888  0.36895671  1
  Se  Se37  1  0.61084830  0.12606026  0.13030056  1
  Se  Se38  1  0.29671030  0.43247484  0.39809023  1
  Se  Se39  1  0.85953685  0.69040813  0.09888064  1
  Se  Se40  1  0.55321670  0.54312001  0.27433381  1
  Se  Se41  1  0.31078251  0.82964999  0.23016558  1
  Se  Se42  1  0.72152843  0.23290979  0.42702238  1
  Se  Se43  1  0.90090800  0.54576547  0.19914179  1
  Se  Se44  1  0.00994612  0.51848615  0.33069861  1
  Se  Se45  1  0.15165931  0.15860633  0.57423014  1
  Se  Se46  1  0.69651503  0.84814628  0.60161246  1
  Se  Se47  1  0.94727568  0.95039885  0.46911596  1
  Se  Se48  1  0.29617135  0.94579858  0.39897167  1
  Se  Se49  1  0.72911651  0.09374079  0.30056686  1
  Se  Se50  1  0.42012379  0.92774638  0.53115570  1
  Se  Se51  1  0.54656448  0.54445990  0.77219420  1
  Se  Se52  1  0.10111549  0.25418673  0.79858991  1
  Se  Se53  1  0.34883037  0.33976005  0.67393930  1
  Se  Se54  1  0.11137504  0.60537415  0.63227182  1
  Se  Se55  1  0.52650102  0.01807796  0.82662667  1
  Se  Se56  1  0.68949003  0.32890625  0.60235677  1
  Se  Se57  1  0.80818670  0.31525853  0.72722029  1
  Se  Se58  1  0.94406512  0.93937329  0.96987084  1
  Se  Se59  1  0.49452408  0.63019162  0.99878196  1
  Se  Se60  1  0.03481939  0.90329260  0.70027510  1
  Se  Se61  1  0.73610232  0.74442953  0.86931842  1
  Se  Se62  1  0.10181768  0.73565278  0.79794864  1
  Se  Se63  1  0.53329613  0.89897169  0.70223204  1
  Se  Se64  1  0.21678934  0.70723511  0.92884163  1
  Se  Se65  1  0.45195290  0.30016064  0.89870936  1
  Se  Se66  1  0.49547545  0.14684932  0.99685880  1
  Se  Se67  1  0.93754763  0.30787499  0.89989069  1
