# generated using pymatgen
data_ZnS
_symmetry_space_group_name_H-M   'P 1'
_cell_length_a   3.85322858
_cell_length_b   3.85322858
_cell_length_c   138.48421300
_cell_angle_alpha   90.00000000
_cell_angle_beta   90.00000000
_cell_angle_gamma   120.00000000
_symmetry_Int_Tables_number   1
_chemical_formula_structural   ZnS
_chemical_formula_sum   'Zn44 S44'
_cell_volume   1780.65770741
_cell_formula_units_Z   44
loop_
 _symmetry_equiv_pos_site_id
 _symmetry_equiv_pos_as_xyz
  1  'x, y, z'
loop_
 _atom_site_type_symbol
 _atom_site_label
 _atom_site_symmetry_multiplicity
 _atom_site_fract_x
 _atom_site_fract_y
 _atom_site_fract_z
 _atom_site_occupancy
  Zn  Zn0  1  0.00000000  0.00000000  0.47727200  1
  Zn  Zn1  1  0.33333333  0.66666667  0.70455000  1
  Zn  Zn2  1  0.66666667  0.33333333  0.38636200  1
  Zn  Zn3  1  0.66666667  0.33333333  0.79545300  1
  Zn  Zn4  1  0.00000000  0.00000000  0.81818300  1
  Zn  Zn5  1  0.33333333  0.66666667  0.15909300  1
  Zn  Zn6  1  0.66666667  0.33333333  0.25000200  1
  Zn  Zn7  1  0.00000000  0.00000000  0.86364200  1
  Zn  Zn8  1  0.33333333  0.66666667  0.63636200  1
  Zn  Zn9  1  0.33333333  0.66666667  0.22727200  1
  Zn  Zn10  1  0.00000000  0.00000000  0.27273100  1
  Zn  Zn11  1  0.66666667  0.33333333  0.11364000  1
  Zn  Zn12  1  0.00000000  0.00000000  0.06818300  1
  Zn  Zn13  1  0.66666667  0.33333333  0.88636200  1
  Zn  Zn14  1  0.00000000  0.00000000  0.54545200  1
  Zn  Zn15  1  0.33333333  0.66666667  0.56818300  1
  Zn  Zn16  1  0.00000000  0.00000000  0.93182000  1
  Zn  Zn17  1  0.33333333  0.66666667  0.09091000  1
  Zn  Zn18  1  0.00000000  0.00000000  0.13636200  1
  Zn  Zn19  1  0.66666667  0.33333333  0.04545200  1
  Zn  Zn20  1  0.00000000  0.00000000  0.68182000  1
  Zn  Zn21  1  0.66666667  0.33333333  0.31818300  1
  Zn  Zn22  1  0.33333333  0.66666667  0.97727200  1
  Zn  Zn23  1  0.00000000  0.00000000  0.61364000  1
  Zn  Zn24  1  0.33333333  0.66666667  0.50000200  1
  Zn  Zn25  1  0.00000000  0.00000000  0.75000200  1
  Zn  Zn26  1  0.33333333  0.66666667  0.84090800  1
  Zn  Zn27  1  0.66666667  0.33333333  0.59091000  1
  Zn  Zn28  1  0.00000000  0.00000000  0.34091000  1
  Zn  Zn29  1  0.66666667  0.33333333  0.95455000  1
  Zn  Zn30  1  0.33333333  0.66666667  0.77273100  1
  Zn  Zn31  1  0.33333333  0.66666667  0.36364000  1
  Zn  Zn32  1  0.33333333  0.66666667  0.02273300  1
  Zn  Zn33  1  0.33333333  0.66666667  0.29545200  1
  Zn  Zn34  1  0.00000000  0.00000000  0.20455000  1
  Zn  Zn35  1  0.00000000  0.00000000  0.40909300  1
  Zn  Zn36  1  0.66666667  0.33333333  0.18182000  1
  Zn  Zn37  1  0.66666667  0.33333333  0.52273100  1
  Zn  Zn38  1  0.33333333  0.66666667  0.43182000  1
  Zn  Zn39  1  0.66666667  0.33333333  0.45454300  1
  Zn  Zn40  1  0.00000000  0.00000000  0.00000000  1
  Zn  Zn41  1  0.33333333  0.66666667  0.90909300  1
  Zn  Zn42  1  0.66666667  0.33333333  0.65909300  1
  Zn  Zn43  1  0.66666667  0.33333333  0.72727200  1
  S  S44  1  0.33333333  0.66666667  0.17613700  1
  S  S45  1  0.33333333  0.66666667  0.65340800  1
  S  S46  1  0.66666667  0.33333333  0.26704700  1
  S  S47  1  0.33333333  0.66666667  0.58522700  1
  S  S48  1  0.00000000  0.00000000  0.63067900  1
  S  S49  1  0.66666667  0.33333333  0.90340800  1
  S  S50  1  0.33333333  0.66666667  0.44886000  1
  S  S51  1  0.66666667  0.33333333  0.60795100  1
  S  S52  1  0.33333333  0.66666667  0.10795100  1
  S  S53  1  0.33333333  0.66666667  0.99430900  1
  S  S54  1  0.00000000  0.00000000  0.35795100  1
  S  S55  1  0.33333333  0.66666667  0.31249800  1
  S  S56  1  0.00000000  0.00000000  0.28977000  1
  S  S57  1  0.66666667  0.33333333  0.81249700  1
  S  S58  1  0.33333333  0.66666667  0.78977000  1
  S  S59  1  0.33333333  0.66666667  0.51704700  1
  S  S60  1  0.33333333  0.66666667  0.85795900  1
  S  S61  1  0.00000000  0.00000000  0.42613600  1
  S  S62  1  0.00000000  0.00000000  0.76704700  1
  S  S63  1  0.66666667  0.33333333  0.19886100  1
  S  S64  1  0.00000000  0.00000000  0.94886200  1
  S  S65  1  0.66666667  0.33333333  0.67613700  1
  S  S66  1  0.00000000  0.00000000  0.01705500  1
  S  S67  1  0.66666667  0.33333333  0.33522700  1
  S  S68  1  0.66666667  0.33333333  0.74431700  1
  S  S69  1  0.33333333  0.66666667  0.03976900  1
  S  S70  1  0.33333333  0.66666667  0.38068000  1
  S  S71  1  0.00000000  0.00000000  0.15340700  1
  S  S72  1  0.66666667  0.33333333  0.53977000  1
  S  S73  1  0.00000000  0.00000000  0.49431800  1
  S  S74  1  0.66666667  0.33333333  0.47158700  1
  S  S75  1  0.66666667  0.33333333  0.06249800  1
  S  S76  1  0.00000000  0.00000000  0.56249800  1
  S  S77  1  0.00000000  0.00000000  0.88067800  1
  S  S78  1  0.66666667  0.33333333  0.40340800  1
  S  S79  1  0.00000000  0.00000000  0.22159000  1
  S  S80  1  0.00000000  0.00000000  0.69886200  1
  S  S81  1  0.33333333  0.66666667  0.92613700  1
  S  S82  1  0.66666667  0.33333333  0.97158900  1
  S  S83  1  0.66666667  0.33333333  0.13068000  1
  S  S84  1  0.00000000  0.00000000  0.08522800  1
  S  S85  1  0.33333333  0.66666667  0.24431800  1
  S  S86  1  0.00000000  0.00000000  0.83521900  1
  S  S87  1  0.33333333  0.66666667  0.72158900  1
