# generated using pymatgen
data_MgH8(NF2)2
_symmetry_space_group_name_H-M   'P 1'
_cell_length_a   5.88588700
_cell_length_b   5.77036400
_cell_length_c   13.84430012
_cell_angle_alpha   90.00000000
_cell_angle_beta   91.30885781
_cell_angle_gamma   90.00000000
_symmetry_Int_Tables_number   1
_chemical_formula_structural   MgH8(NF2)2
_chemical_formula_sum   'Mg4 H32 N8 F16'
_cell_volume   470.08111970
_cell_formula_units_Z   4
loop_
 _symmetry_equiv_pos_site_id
 _symmetry_equiv_pos_as_xyz
  1  'x, y, z'
loop_
 _atom_site_type_symbol
 _atom_site_label
 _atom_site_symmetry_multiplicity
 _atom_site_fract_x
 _atom_site_fract_y
 _atom_site_fract_z
 _atom_site_occupancy
  Mg  Mg0  1  0.00000000  0.00000000  0.00000000  1
  Mg  Mg1  1  0.00000000  0.50000000  0.50000000  1
  Mg  Mg2  1  0.50000000  0.50000000  0.00000000  1
  Mg  Mg3  1  0.50000000  0.00000000  0.50000000  1
  H  H4  1  0.35357200  0.93631600  0.87039000  1
  H  H5  1  0.64642800  0.43631600  0.62961000  1
  H  H6  1  0.64642800  0.06368400  0.12961000  1
  H  H7  1  0.35357200  0.56368400  0.37039000  1
  H  H8  1  0.49548000  0.18560100  0.85691700  1
  H  H9  1  0.50452000  0.68560100  0.64308300  1
  H  H10  1  0.50452000  0.81439900  0.14308300  1
  H  H11  1  0.49548000  0.31439900  0.35691700  1
  H  H12  1  0.49901500  0.98991700  0.76557400  1
  H  H13  1  0.50098500  0.48991700  0.73442600  1
  H  H14  1  0.50098500  0.01008300  0.23442600  1
  H  H15  1  0.49901500  0.51008300  0.26557400  1
  H  H16  1  0.63537100  0.93237300  0.87450500  1
  H  H17  1  0.36462900  0.43237300  0.62549500  1
  H  H18  1  0.36462900  0.06762700  0.12549500  1
  H  H19  1  0.63537100  0.56762700  0.37450500  1
  H  H20  1  0.98921100  0.51392700  0.76517200  1
  H  H21  1  0.01078900  0.01392700  0.73482800  1
  H  H22  1  0.01078900  0.48607300  0.23482800  1
  H  H23  1  0.98921100  0.98607300  0.26517200  1
  H  H24  1  0.82225200  0.53631400  0.86409300  1
  H  H25  1  0.17774800  0.03631400  0.63590700  1
  H  H26  1  0.17774800  0.46368600  0.13590700  1
  H  H27  1  0.82225200  0.96368600  0.36409300  1
  H  H28  1  0.99669100  0.30849700  0.85345300  1
  H  H29  1  0.00330900  0.80849700  0.64654700  1
  H  H30  1  0.00330900  0.69150300  0.14654700  1
  H  H31  1  0.99669100  0.19150300  0.35345300  1
  H  H32  1  0.10133500  0.57609800  0.87909500  1
  H  H33  1  0.89866500  0.07609800  0.62090500  1
  H  H34  1  0.89866500  0.42390200  0.12090500  1
  H  H35  1  0.10133500  0.92390200  0.37909500  1
  N  N36  1  0.49580500  0.00888900  0.84090300  1
  N  N37  1  0.50419500  0.50888900  0.65909700  1
  N  N38  1  0.50419500  0.99111100  0.15909700  1
  N  N39  1  0.49580500  0.49111100  0.34090300  1
  N  N40  1  0.97906000  0.48655900  0.83977200  1
  N  N41  1  0.02094000  0.98655900  0.66022800  1
  N  N42  1  0.02094000  0.51344100  0.16022800  1
  N  N43  1  0.97906000  0.01344100  0.33977200  1
  F  F44  1  0.00000000  0.02319400  0.85669200  1
  F  F45  1  1.00000000  0.52319400  0.64330800  1
  F  F46  1  1.00000000  0.97680600  0.14330800  1
  F  F47  1  0.00000000  0.47680600  0.35669200  1
  F  F48  1  0.49430200  0.47949400  0.85439500  1
  F  F49  1  0.50569800  0.97949400  0.64560500  1
  F  F50  1  0.50569800  0.52050600  0.14560500  1
  F  F51  1  0.49430200  0.02050600  0.35439500  1
  F  F52  1  0.75630300  0.25760000  0.01370200  1
  F  F53  1  0.24369700  0.75760000  0.48629800  1
  F  F54  1  0.24369700  0.74240000  0.98629800  1
  F  F55  1  0.75630300  0.24240000  0.51370200  1
  F  F56  1  0.25855200  0.24276000  0.01063100  1
  F  F57  1  0.74144800  0.74276000  0.48936900  1
  F  F58  1  0.74144800  0.75724000  0.98936900  1
  F  F59  1  0.25855200  0.25724000  0.51063100  1
