# generated using pymatgen
data_KP(HO2)2
_symmetry_space_group_name_H-M   'P 1'
_cell_length_a   9.12579600
_cell_length_b   9.12579600
_cell_length_c   10.34242800
_cell_angle_alpha   90.00000000
_cell_angle_beta   90.00000000
_cell_angle_gamma   90.00000000
_symmetry_Int_Tables_number   1
_chemical_formula_structural   KP(HO2)2
_chemical_formula_sum   'K8 P8 H16 O32'
_cell_volume   861.31898244
_cell_formula_units_Z   8
loop_
 _symmetry_equiv_pos_site_id
 _symmetry_equiv_pos_as_xyz
  1  'x, y, z'
loop_
 _atom_site_type_symbol
 _atom_site_label
 _atom_site_symmetry_multiplicity
 _atom_site_fract_x
 _atom_site_fract_y
 _atom_site_fract_z
 _atom_site_occupancy
  K  K0  1  0.25506500  0.95893700  0.36647200  1
  K  K1  1  0.24493500  0.54106300  0.86647200  1
  K  K2  1  0.04106300  0.25506500  0.63352800  1
  K  K3  1  0.45893700  0.24493500  0.13352800  1
  K  K4  1  0.75506500  0.45893700  0.86647200  1
  K  K5  1  0.74493500  0.04106300  0.36647200  1
  K  K6  1  0.54106300  0.75506500  0.13352800  1
  K  K7  1  0.95893700  0.74493500  0.63352800  1
  P  P8  1  0.78025250  0.07163450  0.99980550  1
  P  P9  1  0.71974750  0.42836550  0.49980550  1
  P  P10  1  0.42836550  0.28025250  0.50019450  1
  P  P11  1  0.07163450  0.21974750  0.00019450  1
  P  P12  1  0.28025250  0.57163450  0.49980550  1
  P  P13  1  0.21974750  0.92836550  0.99980550  1
  P  P14  1  0.92836550  0.78025250  0.00019450  1
  P  P15  1  0.57163450  0.71974750  0.50019450  1
  H  H16  1  0.23411150  0.46392250  0.13212950  1
  H  H17  1  0.26588850  0.03607750  0.63212950  1
  H  H18  1  0.53607750  0.23411150  0.86787050  1
  H  H19  1  0.96392250  0.26588850  0.36787050  1
  H  H20  1  0.26325600  0.59981700  0.21690100  1
  H  H21  1  0.23674400  0.90018300  0.71690100  1
  H  H22  1  0.40018300  0.26325600  0.78309900  1
  H  H23  1  0.09981700  0.23674400  0.28309900  1
  H  H24  1  0.73411150  0.96392250  0.63212950  1
  H  H25  1  0.76588850  0.53607750  0.13212950  1
  H  H26  1  0.03607750  0.73411150  0.36787050  1
  H  H27  1  0.46392250  0.76588850  0.86787050  1
  H  H28  1  0.76325600  0.09981700  0.71690100  1
  H  H29  1  0.73674400  0.40018300  0.21690100  1
  H  H30  1  0.90018300  0.76325600  0.28309900  1
  H  H31  1  0.59981700  0.73674400  0.78309900  1
  O  O32  1  0.77796300  0.33999500  0.38787900  1
  O  O33  1  0.72203700  0.16000500  0.88787900  1
  O  O34  1  0.16000500  0.27796300  0.11212100  1
  O  O35  1  0.33999500  0.22203700  0.61212100  1
  O  O36  1  0.68122500  0.03688400  0.11071700  1
  O  O37  1  0.31877500  0.96311600  0.11071700  1
  O  O38  1  0.46311600  0.18122500  0.38928300  1
  O  O39  1  0.53688400  0.81877500  0.38928300  1
  O  O40  1  0.34940700  0.42384500  0.43672200  1
  O  O41  1  0.15059300  0.07615500  0.93672200  1
  O  O42  1  0.07615500  0.84940700  0.06327800  1
  O  O43  1  0.42384500  0.65059300  0.56327800  1
  O  O44  1  0.29491350  0.55319750  0.13565450  1
  O  O45  1  0.20508650  0.94680250  0.63565450  1
  O  O46  1  0.44680250  0.29491350  0.86434550  1
  O  O47  1  0.05319750  0.20508650  0.36434550  1
  O  O48  1  0.27796300  0.83999500  0.88787900  1
  O  O49  1  0.22203700  0.66000500  0.38787900  1
  O  O50  1  0.66000500  0.77796300  0.61212100  1
  O  O51  1  0.83999500  0.72203700  0.11212100  1
  O  O52  1  0.18122500  0.53688400  0.61071700  1
  O  O53  1  0.81877500  0.46311600  0.61071700  1
  O  O54  1  0.96311600  0.68122500  0.88928300  1
  O  O55  1  0.03688400  0.31877500  0.88928300  1
  O  O56  1  0.84940700  0.92384500  0.93672200  1
  O  O57  1  0.65059300  0.57615500  0.43672200  1
  O  O58  1  0.57615500  0.34940700  0.56327800  1
  O  O59  1  0.92384500  0.15059300  0.06327800  1
  O  O60  1  0.79491350  0.05319750  0.63565450  1
  O  O61  1  0.70508650  0.44680250  0.13565450  1
  O  O62  1  0.94680250  0.79491350  0.36434550  1
  O  O63  1  0.55319750  0.70508650  0.86434550  1
