# generated using pymatgen
data_Zn(BH4)2
_symmetry_space_group_name_H-M   'P 1'
_cell_length_a   4.23295600
_cell_length_b   4.98437600
_cell_length_c   8.16089800
_cell_angle_alpha   90.00000000
_cell_angle_beta   90.00000000
_cell_angle_gamma   90.00000000
_symmetry_Int_Tables_number   1
_chemical_formula_structural   Zn(BH4)2
_chemical_formula_sum   'Zn2 B4 H16'
_cell_volume   172.18388403
_cell_formula_units_Z   2
loop_
 _symmetry_equiv_pos_site_id
 _symmetry_equiv_pos_as_xyz
  1  'x, y, z'
loop_
 _atom_site_type_symbol
 _atom_site_label
 _atom_site_symmetry_multiplicity
 _atom_site_fract_x
 _atom_site_fract_y
 _atom_site_fract_z
 _atom_site_occupancy
  Zn  Zn0  1  0.00000000  0.28331100  0.00996100  1
  Zn  Zn1  1  0.00000000  0.71668900  0.50996100  1
  B  B2  1  0.50000000  0.93789000  0.46986800  1
  B  B3  1  0.00000000  0.53797000  0.24853500  1
  B  B4  1  0.00000000  0.46203000  0.74853500  1
  B  B5  1  0.50000000  0.06211000  0.96986800  1
  H  H6  1  0.50000000  0.29889400  0.92966600  1
  H  H7  1  0.71961000  0.00592300  0.06732100  1
  H  H8  1  0.74998800  0.48479300  0.18005300  1
  H  H9  1  0.00000000  0.21760800  0.75996800  1
  H  H10  1  0.00000000  0.40161000  0.37557200  1
  H  H11  1  0.25001200  0.48479300  0.18005300  1
  H  H12  1  0.28039000  0.00592300  0.06732100  1
  H  H13  1  0.00000000  0.78239200  0.25996800  1
  H  H14  1  0.50000000  0.08068400  0.35273200  1
  H  H15  1  0.25001200  0.51520700  0.68005300  1
  H  H16  1  0.50000000  0.91931600  0.85273200  1
  H  H17  1  0.50000000  0.70110600  0.42966600  1
  H  H18  1  0.00000000  0.59839000  0.87557200  1
  H  H19  1  0.71961000  0.99407700  0.56732100  1
  H  H20  1  0.28039000  0.99407700  0.56732100  1
  H  H21  1  0.74998800  0.51520700  0.68005300  1
