# generated using pymatgen
data_Sc4Ti3O12
_symmetry_space_group_name_H-M   'P 1'
_cell_length_a   5.92349900
_cell_length_b   6.08919899
_cell_length_c   12.15852111
_cell_angle_alpha   99.42346418
_cell_angle_beta   99.73031762
_cell_angle_gamma   98.60819883
_symmetry_Int_Tables_number   1
_chemical_formula_structural   Sc4Ti3O12
_chemical_formula_sum   'Sc8 Ti6 O24'
_cell_volume   419.25504006
_cell_formula_units_Z   2
loop_
 _symmetry_equiv_pos_site_id
 _symmetry_equiv_pos_as_xyz
  1  'x, y, z'
loop_
 _atom_site_type_symbol
 _atom_site_label
 _atom_site_symmetry_multiplicity
 _atom_site_fract_x
 _atom_site_fract_y
 _atom_site_fract_z
 _atom_site_occupancy
  Sc  Sc0  1  0.38512800  0.86319600  0.09322900  1
  Sc  Sc1  1  0.30541700  0.61442900  0.81756900  1
  Sc  Sc2  1  0.29863300  0.61593800  0.31609000  1
  Sc  Sc3  1  0.86498400  0.69101000  0.44789000  1
  Sc  Sc4  1  0.69458300  0.38557100  0.18243100  1
  Sc  Sc5  1  0.13501600  0.30899000  0.55211000  1
  Sc  Sc6  1  0.61487200  0.13680400  0.90677100  1
  Sc  Sc7  1  0.70136700  0.38406200  0.68391000  1
  Ti  Ti8  1  0.39619500  0.84708800  0.58753000  1
  Ti  Ti9  1  0.01069000  0.01469000  0.76023400  1
  Ti  Ti10  1  0.84585200  0.66082300  0.94394300  1
  Ti  Ti11  1  0.15414800  0.33917700  0.05605700  1
  Ti  Ti12  1  0.60380500  0.15291200  0.41247000  1
  Ti  Ti13  1  0.98931000  0.98531000  0.23976600  1
  O  O14  1  0.31086300  0.95301200  0.80383300  1
  O  O15  1  0.02756500  0.87411600  0.08967700  1
  O  O16  1  0.32327500  0.97082200  0.29823600  1
  O  O17  1  0.59674600  0.81709300  0.96016900  1
  O  O18  1  0.08683400  0.91052900  0.59525200  1
  O  O19  1  0.91548900  0.69286600  0.79468200  1
  O  O20  1  0.56923300  0.82604600  0.46348800  1
  O  O21  1  0.17856300  0.57537200  0.96416500  1
  O  O22  1  0.92463700  0.68654700  0.27751800  1
  O  O23  1  0.41610500  0.57857500  0.15934400  1
  O  O24  1  0.18504200  0.57613900  0.46140800  1
  O  O25  1  0.58389500  0.42142500  0.84065600  1
  O  O26  1  0.42166200  0.59238600  0.65952000  1
  O  O27  1  0.82143700  0.42462800  0.03583500  1
  O  O28  1  0.57833800  0.40761400  0.34048000  1
  O  O29  1  0.08451100  0.30713400  0.20531800  1
  O  O30  1  0.81495800  0.42386100  0.53859200  1
  O  O31  1  0.40325400  0.18290700  0.03983100  1
  O  O32  1  0.07536300  0.31345300  0.72248200  1
  O  O33  1  0.97243500  0.12588400  0.91032300  1
  O  O34  1  0.43076700  0.17395400  0.53651200  1
  O  O35  1  0.68913700  0.04698800  0.19616700  1
  O  O36  1  0.91316600  0.08947100  0.40474800  1
  O  O37  1  0.67672500  0.02917800  0.70176400  1
