# generated using pymatgen
data_K3HgN5O11
_symmetry_space_group_name_H-M   'P 1'
_cell_length_a   9.66286200
_cell_length_b   10.88762200
_cell_length_c   12.59372700
_cell_angle_alpha   90.00000000
_cell_angle_beta   90.00000000
_cell_angle_gamma   90.00000000
_symmetry_Int_Tables_number   1
_chemical_formula_structural   K3HgN5O11
_chemical_formula_sum   'K12 Hg4 N20 O44'
_cell_volume   1324.93046541
_cell_formula_units_Z   4
loop_
 _symmetry_equiv_pos_site_id
 _symmetry_equiv_pos_as_xyz
  1  'x, y, z'
loop_
 _atom_site_type_symbol
 _atom_site_label
 _atom_site_symmetry_multiplicity
 _atom_site_fract_x
 _atom_site_fract_y
 _atom_site_fract_z
 _atom_site_occupancy
  K  K0  1  0.40058800  0.75000000  0.98436600  1
  K  K1  1  0.90058800  0.25000000  0.51563400  1
  K  K2  1  0.59941200  0.25000000  0.01563400  1
  K  K3  1  0.09941200  0.75000000  0.48436600  1
  K  K4  1  0.06554800  0.49610700  0.79756500  1
  K  K5  1  0.56554800  0.50389300  0.70243500  1
  K  K6  1  0.93445200  0.99610700  0.20243500  1
  K  K7  1  0.43445200  0.00389300  0.29756500  1
  K  K8  1  0.56554800  0.99610700  0.70243500  1
  K  K9  1  0.43445200  0.49610700  0.29756500  1
  K  K10  1  0.06554800  0.00389300  0.79756500  1
  K  K11  1  0.93445200  0.50389300  0.20243500  1
  Hg  Hg12  1  0.81229900  0.75000000  0.91258600  1
  Hg  Hg13  1  0.31229900  0.25000000  0.58741400  1
  Hg  Hg14  1  0.18770100  0.25000000  0.08741400  1
  Hg  Hg15  1  0.68770100  0.75000000  0.41258600  1
  N  N16  1  0.69391500  0.99687900  0.96453600  1
  N  N17  1  0.23627500  0.75000000  0.25219100  1
  N  N18  1  0.73627500  0.25000000  0.24780900  1
  N  N19  1  0.76372500  0.25000000  0.74780900  1
  N  N20  1  0.26372500  0.75000000  0.75219100  1
  N  N21  1  0.41789000  0.75000000  0.53268400  1
  N  N22  1  0.91789000  0.25000000  0.96731600  1
  N  N23  1  0.58211000  0.25000000  0.46731600  1
  N  N24  1  0.08211000  0.75000000  0.03268400  1
  N  N25  1  0.65510400  0.75000000  0.17077400  1
  N  N26  1  0.15510400  0.25000000  0.32922600  1
  N  N27  1  0.34489600  0.25000000  0.82922600  1
  N  N28  1  0.84489600  0.75000000  0.67077400  1
  N  N29  1  0.19391500  0.49687900  0.53546400  1
  N  N30  1  0.69391500  0.50312100  0.96453600  1
  N  N31  1  0.80608500  0.99687900  0.46453600  1
  N  N32  1  0.30608500  0.00312100  0.03546400  1
  N  N33  1  0.19391500  0.00312100  0.53546400  1
  N  N34  1  0.30608500  0.49687900  0.03546400  1
  N  N35  1  0.80608500  0.50312100  0.46453600  1
  O  O36  1  0.37531600  0.41232200  0.08021100  1
  O  O37  1  0.07014200  0.75000000  0.93216900  1
  O  O38  1  0.57014200  0.25000000  0.56783100  1
  O  O39  1  0.92985800  0.25000000  0.06783100  1
  O  O40  1  0.42985800  0.75000000  0.43216900  1
  O  O41  1  0.31940600  0.85114700  0.77888700  1
  O  O42  1  0.81940600  0.14885300  0.72111300  1
  O  O43  1  0.68059400  0.35114700  0.22111300  1
  O  O44  1  0.18059400  0.64885300  0.27888700  1
  O  O45  1  0.68059400  0.14885300  0.22111300  1
  O  O46  1  0.18059400  0.85114700  0.27888700  1
  O  O47  1  0.31940600  0.64885300  0.77888700  1
  O  O48  1  0.81940600  0.35114700  0.72111300  1
  O  O49  1  0.15015500  0.75000000  0.70198600  1
  O  O50  1  0.65015500  0.25000000  0.79801400  1
  O  O51  1  0.84984500  0.25000000  0.29801400  1
  O  O52  1  0.81799100  0.97150300  0.98505100  1
  O  O53  1  0.31799100  0.02849700  0.51494900  1
  O  O54  1  0.18200900  0.47150300  0.01494900  1
  O  O55  1  0.68200900  0.52849700  0.48505100  1
  O  O56  1  0.18200900  0.02849700  0.01494900  1
  O  O57  1  0.68200900  0.97150300  0.48505100  1
  O  O58  1  0.81799100  0.52849700  0.98505100  1
  O  O59  1  0.31799100  0.47150300  0.51494900  1
  O  O60  1  0.62468400  0.91232200  0.91978900  1
  O  O61  1  0.12468400  0.08767800  0.58021100  1
  O  O62  1  0.34984500  0.75000000  0.20198600  1
  O  O63  1  0.87531600  0.58767800  0.41978900  1
  O  O64  1  0.37531600  0.08767800  0.08021100  1
  O  O65  1  0.87531600  0.91232200  0.41978900  1
  O  O66  1  0.62468400  0.58767800  0.91978900  1
  O  O67  1  0.12468400  0.41232200  0.58021100  1
  O  O68  1  0.83582000  0.84843500  0.72352700  1
  O  O69  1  0.33582000  0.15156500  0.77647300  1
  O  O70  1  0.16418000  0.34843500  0.27647300  1
  O  O71  1  0.66418000  0.65156500  0.22352700  1
  O  O72  1  0.16418000  0.15156500  0.27647300  1
  O  O73  1  0.66418000  0.84843500  0.22352700  1
  O  O74  1  0.83582000  0.65156500  0.72352700  1
  O  O75  1  0.33582000  0.34843500  0.77647300  1
  O  O76  1  0.52935400  0.75000000  0.58436100  1
  O  O77  1  0.47064600  0.25000000  0.41563900  1
  O  O78  1  0.02935400  0.25000000  0.91563900  1
  O  O79  1  0.97064600  0.75000000  0.08436100  1
