# generated using pymatgen
data_Er18Ti14O55
_symmetry_space_group_name_H-M   'P 1'
_cell_length_a   12.50836400
_cell_length_b   7.24449600
_cell_length_c   23.76895474
_cell_angle_alpha   90.00000000
_cell_angle_beta   99.69225904
_cell_angle_gamma   90.00000000
_symmetry_Int_Tables_number   1
_chemical_formula_structural   Er18Ti14O55
_chemical_formula_sum   'Er36 Ti28 O110'
_cell_volume   2123.12264302
_cell_formula_units_Z   2
loop_
 _symmetry_equiv_pos_site_id
 _symmetry_equiv_pos_as_xyz
  1  'x, y, z'
loop_
 _atom_site_type_symbol
 _atom_site_label
 _atom_site_symmetry_multiplicity
 _atom_site_fract_x
 _atom_site_fract_y
 _atom_site_fract_z
 _atom_site_occupancy
  Er  Er0  1  0.38346000  0.00000000  0.13432700  1
  Er  Er1  1  0.50958800  0.00000000  0.00035800  1
  Er  Er2  1  0.63036450  0.24221250  0.12624400  1
  Er  Er3  1  0.98224100  0.00000000  0.99369000  1
  Er  Er4  1  0.62569000  0.00000000  0.37704200  1
  Er  Er5  1  0.63036450  0.75778750  0.12624400  1
  Er  Er6  1  0.37579050  0.25004350  0.37690500  1
  Er  Er7  1  0.75103300  0.00000000  0.25263200  1
  Er  Er8  1  0.86878800  0.00000000  0.12347800  1
  Er  Er9  1  0.37552000  0.00000000  0.62493200  1
  Er  Er10  1  0.37579050  0.74995650  0.37690500  1
  Er  Er11  1  0.50005300  0.00000000  0.50019000  1
  Er  Er12  1  0.62487300  0.24947800  0.62470800  1
  Er  Er13  1  0.37734150  0.75446450  0.87169400  1
  Er  Er14  1  0.24890000  0.00000000  0.74834900  1
  Er  Er15  1  0.62487300  0.75052200  0.62470800  1
  Er  Er16  1  0.37734150  0.24553550  0.87169400  1
  Er  Er17  1  0.12291700  0.00000000  0.87236800  1
  Er  Er18  1  0.88346000  0.50000000  0.13432700  1
  Er  Er19  1  0.00958800  0.50000000  0.00035800  1
  Er  Er20  1  0.13036450  0.74221250  0.12624400  1
  Er  Er21  1  0.48224100  0.50000000  0.99369000  1
  Er  Er22  1  0.12569000  0.50000000  0.37704200  1
  Er  Er23  1  0.13036450  0.25778750  0.12624400  1
  Er  Er24  1  0.87579050  0.75004350  0.37690500  1
  Er  Er25  1  0.25103300  0.50000000  0.25263200  1
  Er  Er26  1  0.36878800  0.50000000  0.12347800  1
  Er  Er27  1  0.87552000  0.50000000  0.62493200  1
  Er  Er28  1  0.87579050  0.24995650  0.37690500  1
  Er  Er29  1  0.00005300  0.50000000  0.50019000  1
  Er  Er30  1  0.12487300  0.74947800  0.62470800  1
  Er  Er31  1  0.87734150  0.25446450  0.87169400  1
  Er  Er32  1  0.74890000  0.50000000  0.74834900  1
  Er  Er33  1  0.12487300  0.25052200  0.62470800  1
  Er  Er34  1  0.87734150  0.74553550  0.87169400  1
  Er  Er35  1  0.62291700  0.50000000  0.87236800  1
  Ti  Ti36  1  0.25404850  0.75993850  0.00137300  1
  Ti  Ti37  1  0.12593500  0.00000000  0.37669800  1
  Ti  Ti38  1  0.24639400  0.00000000  0.25143700  1
  Ti  Ti39  1  0.25404850  0.24006150  0.00137300  1
  Ti  Ti40  1  0.50279000  0.25771400  0.25203900  1
  Ti  Ti41  1  0.00023900  0.00000000  0.50070500  1
  Ti  Ti42  1  0.50052650  0.75013550  0.74959800  1
  Ti  Ti43  1  0.50279000  0.74228600  0.25203900  1
  Ti  Ti44  1  0.62268600  0.00000000  0.87524700  1
  Ti  Ti45  1  0.25035750  0.25004050  0.50083700  1
  Ti  Ti46  1  0.74916400  0.00000000  0.74994300  1
  Ti  Ti47  1  0.87606200  0.00000000  0.62616000  1
  Ti  Ti48  1  0.25035750  0.74995950  0.50083700  1
  Ti  Ti49  1  0.50052650  0.24986450  0.74959800  1
  Ti  Ti50  1  0.75404850  0.25993850  0.00137300  1
  Ti  Ti51  1  0.62593500  0.50000000  0.37669800  1
  Ti  Ti52  1  0.74639400  0.50000000  0.25143700  1
  Ti  Ti53  1  0.75404850  0.74006150  0.00137300  1
  Ti  Ti54  1  0.00279000  0.75771400  0.25203900  1
  Ti  Ti55  1  0.50023900  0.50000000  0.50070500  1
  Ti  Ti56  1  0.00052650  0.25013550  0.74959800  1
  Ti  Ti57  1  0.00279000  0.24228600  0.25203900  1
  Ti  Ti58  1  0.12268600  0.50000000  0.87524700  1
  Ti  Ti59  1  0.75035750  0.75004050  0.50083700  1
  Ti  Ti60  1  0.24916400  0.50000000  0.74994300  1
  Ti  Ti61  1  0.37606200  0.50000000  0.62616000  1
  Ti  Ti62  1  0.75035750  0.24995950  0.50083700  1
  Ti  Ti63  1  0.00052650  0.74986450  0.74959800  1
  O  O64  1  0.47414300  0.26739300  0.16283200  1
  O  O65  1  0.81325200  0.00000000  0.02145400  1
  O  O66  1  0.59572250  0.26966350  0.02891000  1
  O  O67  1  0.47414300  0.73260700  0.16283200  1
  O  O68  1  0.20803000  0.20606700  0.41740000  1
  O  O69  1  0.65336700  0.72052300  0.23856600  1
  O  O70  1  0.52522800  0.00000000  0.09282900  1
  O  O71  1  0.54893700  0.00000000  0.26479500  1
  O  O72  1  0.21921700  0.00000000  0.16353400  1
  O  O73  1  0.59572250  0.73033650  0.02891000  1
  O  O74  1  0.35848650  0.19015350  0.26523500  1
  O  O75  1  0.29313050  0.22227050  0.08297900  1
  O  O76  1  0.78249500  0.00000000  0.34594000  1
  O  O77  1  0.65336700  0.27947700  0.23856600  1
  O  O78  1  0.72581100  0.00000000  0.15942400  1
  O  O79  1  0.20803000  0.79393300  0.41740000  1
  O  O80  1  0.45741750  0.70628350  0.66559600  1
  O  O81  1  0.39536750  0.70673150  0.47903500  1
  O  O82  1  0.24926100  0.00000000  0.33381800  1
  O  O83  1  0.31087600  0.00000000  0.51995200  1
  O  O84  1  0.00160500  0.00000000  0.41746200  1
  O  O85  1  0.93461100  0.00000000  0.24163600  1
  O  O86  1  0.29313050  0.77772950  0.08297900  1
  O  O87  1  0.35848650  0.80984650  0.26523500  1
  O  O88  1  0.60453200  0.70580000  0.51987200  1
  O  O89  1  0.53188500  0.00000000  0.59384000  1
  O  O90  1  0.39536750  0.29326850  0.47903500  1
  O  O91  1  0.54236450  0.70815950  0.33432800  1
  O  O92  1  0.46830900  0.00000000  0.40645000  1
  O  O93  1  0.45741750  0.29371650  0.66559600  1
  O  O94  1  0.69110400  0.19342500  0.92130400  1
  O  O95  1  0.64490900  0.20448500  0.72793700  1
  O  O96  1  0.99803400  0.00000000  0.58198400  1
  O  O97  1  0.06055100  0.00000000  0.76636300  1
  O  O98  1  0.75216500  0.00000000  0.66642500  1
  O  O99  1  0.68818100  0.00000000  0.47896900  1
  O  O100  1  0.54236450  0.29184050  0.33432800  1
  O  O101  1  0.60453200  0.29420000  0.51987200  1
  O  O102  1  0.35370250  0.70695050  0.76899500  1
  O  O103  1  0.79179500  0.20561700  0.58213300  1
  O  O104  1  0.27720400  0.00000000  0.84206700  1
  O  O105  1  0.69110400  0.80657500  0.92130400  1
  O  O106  1  0.21780700  0.00000000  0.65474500  1
  O  O107  1  0.64490900  0.79551500  0.72793700  1
  O  O108  1  0.38770600  0.21948400  0.97290500  1
  O  O109  1  0.74608900  0.00000000  0.83204700  1
  O  O110  1  0.48695900  0.00000000  0.90519900  1
  O  O111  1  0.43892600  0.00000000  0.72843000  1
  O  O112  1  0.79179500  0.79438300  0.58213300  1
  O  O113  1  0.35370250  0.29304950  0.76899500  1
  O  O114  1  0.38770600  0.78051600  0.97290500  1
  O  O115  1  0.54390500  0.21693900  0.83040500  1
  O  O116  1  0.96776100  0.00000000  0.90336200  1
  O  O117  1  0.21136700  0.00000000  0.97431300  1
  O  O118  1  0.54390500  0.78306100  0.83040500  1
  O  O119  1  0.97414300  0.76739300  0.16283200  1
  O  O120  1  0.31325200  0.50000000  0.02145400  1
  O  O121  1  0.09572250  0.76966350  0.02891000  1
  O  O122  1  0.97414300  0.23260700  0.16283200  1
  O  O123  1  0.70803000  0.70606700  0.41740000  1
  O  O124  1  0.15336700  0.22052300  0.23856600  1
  O  O125  1  0.02522800  0.50000000  0.09282900  1
  O  O126  1  0.04893700  0.50000000  0.26479500  1
  O  O127  1  0.71921700  0.50000000  0.16353400  1
  O  O128  1  0.09572250  0.23033650  0.02891000  1
  O  O129  1  0.85848650  0.69015350  0.26523500  1
  O  O130  1  0.79313050  0.72227050  0.08297900  1
  O  O131  1  0.28249500  0.50000000  0.34594000  1
  O  O132  1  0.15336700  0.77947700  0.23856600  1
  O  O133  1  0.22581100  0.50000000  0.15942400  1
  O  O134  1  0.70803000  0.29393300  0.41740000  1
  O  O135  1  0.95741750  0.20628350  0.66559600  1
  O  O136  1  0.89536750  0.20673150  0.47903500  1
  O  O137  1  0.74926100  0.50000000  0.33381800  1
  O  O138  1  0.81087600  0.50000000  0.51995200  1
  O  O139  1  0.50160500  0.50000000  0.41746200  1
  O  O140  1  0.43461100  0.50000000  0.24163600  1
  O  O141  1  0.79313050  0.27772950  0.08297900  1
  O  O142  1  0.85848650  0.30984650  0.26523500  1
  O  O143  1  0.10453200  0.20580000  0.51987200  1
  O  O144  1  0.03188500  0.50000000  0.59384000  1
  O  O145  1  0.89536750  0.79326850  0.47903500  1
  O  O146  1  0.04236450  0.20815950  0.33432800  1
  O  O147  1  0.96830900  0.50000000  0.40645000  1
  O  O148  1  0.95741750  0.79371650  0.66559600  1
  O  O149  1  0.19110400  0.69342500  0.92130400  1
  O  O150  1  0.14490900  0.70448500  0.72793700  1
  O  O151  1  0.49803400  0.50000000  0.58198400  1
  O  O152  1  0.56055100  0.50000000  0.76636300  1
  O  O153  1  0.25216500  0.50000000  0.66642500  1
  O  O154  1  0.18818100  0.50000000  0.47896900  1
  O  O155  1  0.04236450  0.79184050  0.33432800  1
  O  O156  1  0.10453200  0.79420000  0.51987200  1
  O  O157  1  0.85370250  0.20695050  0.76899500  1
  O  O158  1  0.29179500  0.70561700  0.58213300  1
  O  O159  1  0.77720400  0.50000000  0.84206700  1
  O  O160  1  0.19110400  0.30657500  0.92130400  1
  O  O161  1  0.71780700  0.50000000  0.65474500  1
  O  O162  1  0.14490900  0.29551500  0.72793700  1
  O  O163  1  0.88770600  0.71948400  0.97290500  1
  O  O164  1  0.24608900  0.50000000  0.83204700  1
  O  O165  1  0.98695900  0.50000000  0.90519900  1
  O  O166  1  0.93892600  0.50000000  0.72843000  1
  O  O167  1  0.29179500  0.29438300  0.58213300  1
  O  O168  1  0.85370250  0.79304950  0.76899500  1
  O  O169  1  0.88770600  0.28051600  0.97290500  1
  O  O170  1  0.04390500  0.71693900  0.83040500  1
  O  O171  1  0.46776100  0.50000000  0.90336200  1
  O  O172  1  0.71136700  0.50000000  0.97431300  1
  O  O173  1  0.04390500  0.28306100  0.83040500  1
