# generated using pymatgen
data_B6As
_symmetry_space_group_name_H-M   'P 1'
_cell_length_a   6.16140800
_cell_length_b   6.16140800
_cell_length_c   11.92465883
_cell_angle_alpha   90.00000000
_cell_angle_beta   90.00000000
_cell_angle_gamma   120.00000000
_symmetry_Int_Tables_number   1
_chemical_formula_structural   B6As
_chemical_formula_sum   'B36 As6'
_cell_volume   392.04555165
_cell_formula_units_Z   6
loop_
 _symmetry_equiv_pos_site_id
 _symmetry_equiv_pos_as_xyz
  1  'x, y, z'
loop_
 _atom_site_type_symbol
 _atom_site_label
 _atom_site_symmetry_multiplicity
 _atom_site_fract_x
 _atom_site_fract_y
 _atom_site_fract_z
 _atom_site_occupancy
  B  B0  1  0.23021667  0.46043333  0.78516933  1
  B  B1  1  0.53956667  0.76978333  0.78516933  1
  B  B2  1  0.96632400  0.48316200  0.30542200  1
  B  B3  1  0.51683800  0.03367600  0.30542200  1
  B  B4  1  0.51683800  0.48316200  0.30542200  1
  B  B5  1  0.14982867  0.85017133  0.02791133  1
  B  B6  1  0.70034267  0.85017133  0.02791133  1
  B  B7  1  0.14982867  0.29965733  0.02791133  1
  B  B8  1  0.12710000  0.56355000  0.54816400  1
  B  B9  1  0.43645000  0.87290000  0.54816400  1
  B  B10  1  0.43645000  0.56355000  0.54816400  1
  B  B11  1  0.23021667  0.76978333  0.78516933  1
  B  B12  1  0.89688333  0.79376667  0.11850267  1
  B  B13  1  0.20623333  0.10311667  0.11850267  1
  B  B14  1  0.63299067  0.81649533  0.63875533  1
  B  B15  1  0.18350467  0.36700933  0.63875533  1
  B  B16  1  0.18350467  0.81649533  0.63875533  1
  B  B17  1  0.81649533  0.18350467  0.36124467  1
  B  B18  1  0.36700933  0.18350467  0.36124467  1
  B  B19  1  0.81649533  0.63299067  0.36124467  1
  B  B20  1  0.79376667  0.89688333  0.88149733  1
  B  B21  1  0.10311667  0.20623333  0.88149733  1
  B  B22  1  0.10311667  0.89688333  0.88149733  1
  B  B23  1  0.89688333  0.10311667  0.11850267  1
  B  B24  1  0.56355000  0.12710000  0.45183600  1
  B  B25  1  0.87290000  0.43645000  0.45183600  1
  B  B26  1  0.29965733  0.14982867  0.97208867  1
  B  B27  1  0.85017133  0.70034267  0.97208867  1
  B  B28  1  0.85017133  0.14982867  0.97208867  1
  B  B29  1  0.48316200  0.51683800  0.69457800  1
  B  B30  1  0.03367600  0.51683800  0.69457800  1
  B  B31  1  0.48316200  0.96632400  0.69457800  1
  B  B32  1  0.46043333  0.23021667  0.21483067  1
  B  B33  1  0.76978333  0.53956667  0.21483067  1
  B  B34  1  0.76978333  0.23021667  0.21483067  1
  B  B35  1  0.56355000  0.43645000  0.45183600  1
  As  As36  1  0.33333333  0.66666667  0.26769667  1
  As  As37  1  0.33333333  0.66666667  0.06563667  1
  As  As38  1  0.00000000  0.00000000  0.60103000  1
  As  As39  1  0.00000000  0.00000000  0.39897000  1
  As  As40  1  0.66666667  0.33333333  0.93436333  1
  As  As41  1  0.66666667  0.33333333  0.73230333  1
