# generated using pymatgen
data_MgTi3Nb2(PbO3)6
_symmetry_space_group_name_H-M   'P 1'
_cell_length_a   5.68833558
_cell_length_b   5.68833558
_cell_length_c   13.96448000
_cell_angle_alpha   90.00000000
_cell_angle_beta   90.00000000
_cell_angle_gamma   120.00000000
_symmetry_Int_Tables_number   1
_chemical_formula_structural   MgTi3Nb2(PbO3)6
_chemical_formula_sum   'Mg1 Ti3 Nb2 Pb6 O18'
_cell_volume   391.31439061
_cell_formula_units_Z   1
loop_
 _symmetry_equiv_pos_site_id
 _symmetry_equiv_pos_as_xyz
  1  'x, y, z'
loop_
 _atom_site_type_symbol
 _atom_site_label
 _atom_site_symmetry_multiplicity
 _atom_site_fract_x
 _atom_site_fract_y
 _atom_site_fract_z
 _atom_site_occupancy
  Mg  Mg0  1  0.00000000  0.00000000  0.50000000  1
  Ti  Ti1  1  0.66666667  0.33333333  0.83709400  1
  Ti  Ti2  1  0.00000000  0.00000000  0.00000000  1
  Ti  Ti3  1  0.33333333  0.66666667  0.16290600  1
  Nb  Nb4  1  0.66666667  0.33333333  0.33616100  1
  Nb  Nb5  1  0.33333333  0.66666667  0.66383900  1
  Pb  Pb6  1  0.00000000  0.00000000  0.75254500  1
  Pb  Pb7  1  0.33333333  0.66666667  0.91952900  1
  Pb  Pb8  1  0.66666667  0.33333333  0.08047100  1
  Pb  Pb9  1  0.00000000  0.00000000  0.24745500  1
  Pb  Pb10  1  0.33333333  0.66666667  0.41582700  1
  Pb  Pb11  1  0.66666667  0.33333333  0.58417300  1
  O  O12  1  0.83369000  0.66738000  0.91843700  1
  O  O13  1  0.33262000  0.16631000  0.91843700  1
  O  O14  1  0.83369000  0.16631000  0.91843700  1
  O  O15  1  0.16631000  0.33262000  0.08156300  1
  O  O16  1  0.66738000  0.83369000  0.08156300  1
  O  O17  1  0.16631000  0.83369000  0.08156300  1
  O  O18  1  0.49711950  0.99423900  0.24500400  1
  O  O19  1  0.00576100  0.50288050  0.24500400  1
  O  O20  1  0.49711950  0.50288050  0.24500400  1
  O  O21  1  0.83129400  0.66258800  0.41237100  1
  O  O22  1  0.33741200  0.16870600  0.41237100  1
  O  O23  1  0.83129400  0.16870600  0.41237100  1
  O  O24  1  0.16870600  0.33741200  0.58762900  1
  O  O25  1  0.66258800  0.83129400  0.58762900  1
  O  O26  1  0.16870600  0.83129400  0.58762900  1
  O  O27  1  0.50288050  0.00576100  0.75499600  1
  O  O28  1  0.99423900  0.49711950  0.75499600  1
  O  O29  1  0.50288050  0.49711950  0.75499600  1
