# generated using pymatgen
data_GaGe5H6C4NO12
_symmetry_space_group_name_H-M   'P 1'
_cell_length_a   12.87099000
_cell_length_b   9.30579800
_cell_length_c   9.06661462
_cell_angle_alpha   90.00000000
_cell_angle_beta   134.53056464
_cell_angle_gamma   90.00000000
_symmetry_Int_Tables_number   1
_chemical_formula_structural   GaGe5H6C4NO12
_chemical_formula_sum   'Ga2 Ge10 H12 C8 N2 O24'
_cell_volume   774.14978102
_cell_formula_units_Z   2
loop_
 _symmetry_equiv_pos_site_id
 _symmetry_equiv_pos_as_xyz
  1  'x, y, z'
loop_
 _atom_site_type_symbol
 _atom_site_label
 _atom_site_symmetry_multiplicity
 _atom_site_fract_x
 _atom_site_fract_y
 _atom_site_fract_z
 _atom_site_occupancy
  Ga  Ga0  1  0.50000000  0.74933600  0.50000000  1
  Ga  Ga1  1  0.00000000  0.24933600  0.50000000  1
  Ge  Ge2  1  0.25209750  0.50399050  0.24517100  1
  Ge  Ge3  1  0.00427650  0.49681650  0.25506300  1
  Ge  Ge4  1  0.49572350  0.99681650  0.74493700  1
  Ge  Ge5  1  0.00000000  0.75128500  0.50000000  1
  Ge  Ge6  1  0.24790250  0.00399050  0.75482900  1
  Ge  Ge7  1  0.75209750  0.00399050  0.24517100  1
  Ge  Ge8  1  0.50427650  0.99681650  0.25506300  1
  Ge  Ge9  1  0.99572350  0.49681650  0.74493700  1
  Ge  Ge10  1  0.50000000  0.25128500  0.50000000  1
  Ge  Ge11  1  0.74790250  0.50399050  0.75482900  1
  H  H12  1  0.34105250  0.52926950  0.67686400  1
  H  H13  1  0.34357000  0.68951800  0.80958700  1
  H  H14  1  0.07377500  0.84523600  0.90427100  1
  H  H15  1  0.15643000  0.18951800  0.19041300  1
  H  H16  1  0.15894750  0.02926950  0.32313600  1
  H  H17  1  0.92622500  0.84523600  0.09572900  1
  H  H18  1  0.84105250  0.02926950  0.67686400  1
  H  H19  1  0.84357000  0.18951800  0.80958700  1
  H  H20  1  0.57377500  0.34523600  0.90427100  1
  H  H21  1  0.65643000  0.68951800  0.19041300  1
  H  H22  1  0.65894750  0.52926950  0.32313600  1
  H  H23  1  0.42622500  0.34523600  0.09572900  1
  C  C24  1  0.61868750  0.58412350  0.18556300  1
  C  C25  1  0.38131250  0.58412350  0.81443700  1
  C  C26  1  0.53929400  0.36525400  0.98207700  1
  C  C27  1  0.96070600  0.86525400  0.01792300  1
  C  C28  1  0.11868750  0.08412350  0.18556300  1
  C  C29  1  0.88131250  0.08412350  0.81443700  1
  C  C30  1  0.03929400  0.86525400  0.98207700  1
  C  C31  1  0.46070600  0.36525400  0.01792300  1
  N  N32  1  0.00000000  0.02795800  0.00000000  1
  N  N33  1  0.50000000  0.52795800  0.00000000  1
  O  O34  1  0.14147800  0.13654200  0.72719700  1
  O  O35  1  0.35852200  0.63654200  0.27280300  1
  O  O36  1  0.64053950  0.92430450  0.99602400  1
  O  O37  1  0.08207350  0.36256450  0.43712200  1
  O  O38  1  0.14253850  0.57570350  0.28037200  1
  O  O39  1  0.41792650  0.86256450  0.56287800  1
  O  O40  1  0.35746150  0.07570350  0.71962800  1
  O  O41  1  0.85946050  0.42430450  0.00397600  1
  O  O42  1  0.56742150  0.14872450  0.71686500  1
  O  O43  1  0.14554150  0.85716350  0.57626500  1
  O  O44  1  0.93257850  0.64872450  0.28313500  1
  O  O45  1  0.35445850  0.35716350  0.42373500  1
  O  O46  1  0.64147800  0.63654200  0.72719700  1
  O  O47  1  0.85852200  0.13654200  0.27280300  1
  O  O48  1  0.14053950  0.42430450  0.99602400  1
  O  O49  1  0.58207350  0.86256450  0.43712200  1
  O  O50  1  0.64253850  0.07570350  0.28037200  1
  O  O51  1  0.91792650  0.36256450  0.56287800  1
  O  O52  1  0.85746150  0.57570350  0.71962800  1
  O  O53  1  0.35946050  0.92430450  0.00397600  1
  O  O54  1  0.06742150  0.64872450  0.71686500  1
  O  O55  1  0.64554150  0.35716350  0.57626500  1
  O  O56  1  0.43257850  0.14872450  0.28313500  1
  O  O57  1  0.85445850  0.85716350  0.42373500  1
