# generated using pymatgen
data_K6InP3
_symmetry_space_group_name_H-M   'P 1'
_cell_length_a   8.88982400
_cell_length_b   8.94133516
_cell_length_c   10.09301136
_cell_angle_alpha   82.47235833
_cell_angle_beta   107.12788525
_cell_angle_gamma   118.56618166
_symmetry_Int_Tables_number   1
_chemical_formula_structural   K6InP3
_chemical_formula_sum   'K12 In2 P6'
_cell_volume   673.30385109
_cell_formula_units_Z   2
loop_
 _symmetry_equiv_pos_site_id
 _symmetry_equiv_pos_as_xyz
  1  'x, y, z'
loop_
 _atom_site_type_symbol
 _atom_site_label
 _atom_site_symmetry_multiplicity
 _atom_site_fract_x
 _atom_site_fract_y
 _atom_site_fract_z
 _atom_site_occupancy
  K  K0  1  0.36581600  0.51101100  0.13818300  1
  K  K1  1  0.59167200  0.85448300  0.60816900  1
  K  K2  1  0.63224000  0.87565000  0.99390000  1
  K  K3  1  0.16868800  0.19005600  0.61106800  1
  K  K4  1  0.16753200  0.54991500  0.39605600  1
  K  K5  1  0.04031500  0.77256400  0.10567600  1
  K  K6  1  0.95968500  0.22743600  0.89432400  1
  K  K7  1  0.83246800  0.45008500  0.60394400  1
  K  K8  1  0.83131200  0.80994400  0.38893200  1
  K  K9  1  0.36776000  0.12435000  0.00610000  1
  K  K10  1  0.40832800  0.14551700  0.39183100  1
  K  K11  1  0.63418400  0.48898900  0.86181700  1
  In  In12  1  0.23810900  0.82238200  0.74981600  1
  In  In13  1  0.76189100  0.17761800  0.25018400  1
  P  P14  1  0.48546200  0.88734500  0.25782600  1
  P  P15  1  0.04049800  0.16985500  0.23770100  1
  P  P16  1  0.26859700  0.55033300  0.75819500  1
  P  P17  1  0.73140300  0.44966700  0.24180500  1
  P  P18  1  0.95950200  0.83014500  0.76229900  1
  P  P19  1  0.51453800  0.11265500  0.74217400  1
