# generated using pymatgen
data_In4SnS8
_symmetry_space_group_name_H-M   'P 1'
_cell_length_a   7.67842646
_cell_length_b   7.67842646
_cell_length_c   18.75013891
_cell_angle_alpha   90.00000000
_cell_angle_beta   90.00000000
_cell_angle_gamma   120.00000000
_symmetry_Int_Tables_number   1
_chemical_formula_structural   In4SnS8
_chemical_formula_sum   'In12 Sn3 S24'
_cell_volume   957.36948160
_cell_formula_units_Z   3
loop_
 _symmetry_equiv_pos_site_id
 _symmetry_equiv_pos_as_xyz
  1  'x, y, z'
loop_
 _atom_site_type_symbol
 _atom_site_label
 _atom_site_symmetry_multiplicity
 _atom_site_fract_x
 _atom_site_fract_y
 _atom_site_fract_z
 _atom_site_occupancy
  In  In0  1  0.17919333  0.35838667  0.83066667  1
  In  In1  1  0.17919333  0.82080667  0.83066667  1
  In  In2  1  0.64161333  0.82080667  0.83066667  1
  In  In3  1  0.33333333  0.66666667  0.29436767  1
  In  In4  1  0.84586000  0.69172000  0.16400000  1
  In  In5  1  0.84586000  0.15414000  0.16400000  1
  In  In6  1  0.30828000  0.15414000  0.16400000  1
  In  In7  1  0.00000000  0.00000000  0.62770100  1
  In  In8  1  0.51252667  0.02505333  0.49733333  1
  In  In9  1  0.51252667  0.48747333  0.49733333  1
  In  In10  1  0.97494667  0.48747333  0.49733333  1
  In  In11  1  0.66666667  0.33333333  0.96103433  1
  Sn  Sn12  1  0.33333333  0.66666667  0.67723567  1
  Sn  Sn13  1  0.00000000  0.00000000  0.01056900  1
  Sn  Sn14  1  0.66666667  0.33333333  0.34390233  1
  S  S15  1  0.16172300  0.83827700  0.08088400  1
  S  S16  1  0.16172300  0.32344600  0.08088400  1
  S  S17  1  0.67655400  0.83827700  0.08088400  1
  S  S18  1  0.33333333  0.66666667  0.91307167  1
  S  S19  1  0.33333333  0.66666667  0.42830767  1
  S  S20  1  0.97278000  0.48639000  0.24801200  1
  S  S21  1  0.51361000  0.02722000  0.24801200  1
  S  S22  1  0.51361000  0.48639000  0.24801200  1
  S  S23  1  0.82838967  0.17161033  0.41421733  1
  S  S24  1  0.82838967  0.65677933  0.41421733  1
  S  S25  1  0.34322067  0.17161033  0.41421733  1
  S  S26  1  0.00000000  0.00000000  0.24640500  1
  S  S27  1  0.00000000  0.00000000  0.76164100  1
  S  S28  1  0.63944667  0.81972333  0.58134533  1
  S  S29  1  0.18027667  0.36055333  0.58134533  1
  S  S30  1  0.18027667  0.81972333  0.58134533  1
  S  S31  1  0.49505633  0.50494367  0.74755067  1
  S  S32  1  0.49505633  0.99011267  0.74755067  1
  S  S33  1  0.00988733  0.50494367  0.74755067  1
  S  S34  1  0.66666667  0.33333333  0.57973833  1
  S  S35  1  0.66666667  0.33333333  0.09497433  1
  S  S36  1  0.30611333  0.15305667  0.91467867  1
  S  S37  1  0.84694333  0.69388667  0.91467867  1
  S  S38  1  0.84694333  0.15305667  0.91467867  1
