# generated using pymatgen
data_La2NiO4
_symmetry_space_group_name_H-M   'P 1'
_cell_length_a   3.96533000
_cell_length_b   13.58820600
_cell_length_c   7.34320200
_cell_angle_alpha   90.00000000
_cell_angle_beta   90.00000000
_cell_angle_gamma   90.00000000
_symmetry_Int_Tables_number   1
_chemical_formula_structural   La2NiO4
_chemical_formula_sum   'La8 Ni4 O16'
_cell_volume   395.66436066
_cell_formula_units_Z   4
loop_
 _symmetry_equiv_pos_site_id
 _symmetry_equiv_pos_as_xyz
  1  'x, y, z'
loop_
 _atom_site_type_symbol
 _atom_site_label
 _atom_site_symmetry_multiplicity
 _atom_site_fract_x
 _atom_site_fract_y
 _atom_site_fract_z
 _atom_site_occupancy
  La  La0  1  0.50000000  0.21637700  0.85556800  1
  La  La1  1  0.00000000  0.28362300  0.35556800  1
  La  La2  1  0.50000000  0.44693700  0.65225100  1
  La  La3  1  0.00000000  0.05306300  0.15225100  1
  La  La4  1  0.00000000  0.71637700  0.85556800  1
  La  La5  1  0.50000000  0.78362300  0.35556800  1
  La  La6  1  0.00000000  0.94693700  0.65225100  1
  La  La7  1  0.50000000  0.55306300  0.15225100  1
  Ni  Ni8  1  0.00000000  0.39046000  0.96279200  1
  Ni  Ni9  1  0.50000000  0.10954000  0.46279200  1
  Ni  Ni10  1  0.50000000  0.89046000  0.96279200  1
  Ni  Ni11  1  0.00000000  0.60954000  0.46279200  1
  O  O12  1  0.00000000  0.45679900  0.36431000  1
  O  O13  1  0.00000000  0.23380500  0.01669200  1
  O  O14  1  0.50000000  0.14651400  0.20746900  1
  O  O15  1  0.50000000  0.26619500  0.51669200  1
  O  O16  1  0.00000000  0.35348600  0.70746900  1
  O  O17  1  0.00000000  0.10240600  0.50361800  1
  O  O18  1  0.50000000  0.04320100  0.86431000  1
  O  O19  1  0.50000000  0.39759400  0.00361800  1
  O  O20  1  0.50000000  0.95679900  0.36431000  1
  O  O21  1  0.50000000  0.73380500  0.01669200  1
  O  O22  1  0.00000000  0.64651400  0.20746900  1
  O  O23  1  0.00000000  0.76619500  0.51669200  1
  O  O24  1  0.50000000  0.85348600  0.70746900  1
  O  O25  1  0.50000000  0.60240600  0.50361800  1
  O  O26  1  0.00000000  0.54320100  0.86431000  1
  O  O27  1  0.00000000  0.89759400  0.00361800  1
