# generated using pymatgen
data_LiCr4(PO4)3
_symmetry_space_group_name_H-M   'P 1'
_cell_length_a   12.56459400
_cell_length_b   12.59488400
_cell_length_c   7.35476496
_cell_angle_alpha   90.00000000
_cell_angle_beta   121.22202561
_cell_angle_gamma   90.00000000
_symmetry_Int_Tables_number   1
_chemical_formula_structural   LiCr4(PO4)3
_chemical_formula_sum   'Li4 Cr16 P12 O48'
_cell_volume   995.31689745
_cell_formula_units_Z   4
loop_
 _symmetry_equiv_pos_site_id
 _symmetry_equiv_pos_as_xyz
  1  'x, y, z'
loop_
 _atom_site_type_symbol
 _atom_site_label
 _atom_site_symmetry_multiplicity
 _atom_site_fract_x
 _atom_site_fract_y
 _atom_site_fract_z
 _atom_site_occupancy
  Li  Li0  1  0.50000000  0.50623200  0.25000000  1
  Li  Li1  1  0.50000000  0.49376800  0.75000000  1
  Li  Li2  1  0.00000000  0.00623200  0.25000000  1
  Li  Li3  1  0.00000000  0.99376800  0.75000000  1
  Cr  Cr4  1  0.77650800  0.83742100  0.84899900  1
  Cr  Cr5  1  0.50000000  0.23314800  0.75000000  1
  Cr  Cr6  1  0.77650800  0.16257900  0.34899900  1
  Cr  Cr7  1  0.50000000  0.99307000  0.75000000  1
  Cr  Cr8  1  0.50000000  0.00693000  0.25000000  1
  Cr  Cr9  1  0.22349200  0.16257900  0.15100100  1
  Cr  Cr10  1  0.50000000  0.76685200  0.25000000  1
  Cr  Cr11  1  0.22349200  0.83742100  0.65100100  1
  Cr  Cr12  1  0.27650800  0.33742100  0.84899900  1
  Cr  Cr13  1  0.00000000  0.73314800  0.75000000  1
  Cr  Cr14  1  0.27650800  0.66257900  0.34899900  1
  Cr  Cr15  1  0.00000000  0.49307000  0.75000000  1
  Cr  Cr16  1  0.00000000  0.50693000  0.25000000  1
  Cr  Cr17  1  0.72349200  0.66257900  0.15100100  1
  Cr  Cr18  1  0.00000000  0.26685200  0.25000000  1
  Cr  Cr19  1  0.72349200  0.33742100  0.65100100  1
  P  P20  1  0.77347850  0.11022150  0.89063800  1
  P  P21  1  0.77347850  0.88977850  0.39063800  1
  P  P22  1  0.50000000  0.22198600  0.25000000  1
  P  P23  1  0.22652150  0.88977850  0.10936200  1
  P  P24  1  0.50000000  0.77801400  0.75000000  1
  P  P25  1  0.22652150  0.11022150  0.60936200  1
  P  P26  1  0.27347850  0.61022150  0.89063800  1
  P  P27  1  0.27347850  0.38977850  0.39063800  1
  P  P28  1  0.00000000  0.72198600  0.25000000  1
  P  P29  1  0.72652150  0.38977850  0.10936200  1
  P  P30  1  0.00000000  0.27801400  0.75000000  1
  P  P31  1  0.72652150  0.61022150  0.60936200  1
  O  O32  1  0.77330250  0.82165850  0.21858400  1
  O  O33  1  0.45645250  0.71063250  0.55180700  1
  O  O34  1  0.36641450  0.89320250  0.15827000  1
  O  O35  1  0.63358550  0.89320250  0.34173000  1
  O  O36  1  0.40388000  0.86318000  0.74164200  1
  O  O37  1  0.64252000  0.65727100  0.38164200  1
  O  O38  1  0.64252000  0.34272900  0.88164200  1
  O  O39  1  0.35748000  0.65727100  0.11835800  1
  O  O40  1  0.40388000  0.13682000  0.24164200  1
  O  O41  1  0.59612000  0.13682000  0.25835800  1
  O  O42  1  0.36641450  0.10679750  0.65827000  1
  O  O43  1  0.17433500  0.00269700  0.09632700  1
  O  O44  1  0.82566500  0.99730300  0.90367300  1
  O  O45  1  0.77330250  0.17834150  0.71858400  1
  O  O46  1  0.22669750  0.82165850  0.28141600  1
  O  O47  1  0.17433500  0.99730300  0.59632700  1
  O  O48  1  0.35748000  0.34272900  0.61835800  1
  O  O49  1  0.54354750  0.28936750  0.44819300  1
  O  O50  1  0.59612000  0.86318000  0.75835800  1
  O  O51  1  0.82566500  0.00269700  0.40367300  1
  O  O52  1  0.54354750  0.71063250  0.94819300  1
  O  O53  1  0.45645250  0.28936750  0.05180700  1
  O  O54  1  0.63358550  0.10679750  0.84173000  1
  O  O55  1  0.22669750  0.17834150  0.78141600  1
  O  O56  1  0.27330250  0.32165850  0.21858400  1
  O  O57  1  0.95645250  0.21063250  0.55180700  1
  O  O58  1  0.86641450  0.39320250  0.15827000  1
  O  O59  1  0.13358550  0.39320250  0.34173000  1
  O  O60  1  0.90388000  0.36318000  0.74164200  1
  O  O61  1  0.14252000  0.15727100  0.38164200  1
  O  O62  1  0.14252000  0.84272900  0.88164200  1
  O  O63  1  0.85748000  0.15727100  0.11835800  1
  O  O64  1  0.90388000  0.63682000  0.24164200  1
  O  O65  1  0.09612000  0.63682000  0.25835800  1
  O  O66  1  0.86641450  0.60679750  0.65827000  1
  O  O67  1  0.67433500  0.50269700  0.09632700  1
  O  O68  1  0.32566500  0.49730300  0.90367300  1
  O  O69  1  0.27330250  0.67834150  0.71858400  1
  O  O70  1  0.72669750  0.32165850  0.28141600  1
  O  O71  1  0.67433500  0.49730300  0.59632700  1
  O  O72  1  0.85748000  0.84272900  0.61835800  1
  O  O73  1  0.04354750  0.78936750  0.44819300  1
  O  O74  1  0.09612000  0.36318000  0.75835800  1
  O  O75  1  0.32566500  0.50269700  0.40367300  1
  O  O76  1  0.04354750  0.21063250  0.94819300  1
  O  O77  1  0.95645250  0.78936750  0.05180700  1
  O  O78  1  0.13358550  0.60679750  0.84173000  1
  O  O79  1  0.72669750  0.67834150  0.78141600  1
