# generated using pymatgen
data_Sr6La2Ta3Al5O24
_symmetry_space_group_name_H-M   'P 1'
_cell_length_a   5.51588438
_cell_length_b   5.51588438
_cell_length_c   54.16573040
_cell_angle_alpha   90.00000000
_cell_angle_beta   90.00000000
_cell_angle_gamma   120.00000000
_symmetry_Int_Tables_number   1
_chemical_formula_structural   Sr6La2Ta3Al5O24
_chemical_formula_sum   'Sr18 La6 Ta9 Al15 O72'
_cell_volume   1427.20232364
_cell_formula_units_Z   3
loop_
 _symmetry_equiv_pos_site_id
 _symmetry_equiv_pos_as_xyz
  1  'x, y, z'
loop_
 _atom_site_type_symbol
 _atom_site_label
 _atom_site_symmetry_multiplicity
 _atom_site_fract_x
 _atom_site_fract_y
 _atom_site_fract_z
 _atom_site_occupancy
  Sr  Sr0  1  0.33333333  0.66666667  0.10394167  1
  Sr  Sr1  1  0.00000000  0.00000000  0.06017900  1
  Sr  Sr2  1  0.00000000  0.00000000  0.18748700  1
  Sr  Sr3  1  0.66666667  0.33333333  0.14584633  1
  Sr  Sr4  1  0.66666667  0.33333333  0.27315433  1
  Sr  Sr5  1  0.33333333  0.66666667  0.22939167  1
  Sr  Sr6  1  0.00000000  0.00000000  0.43727500  1
  Sr  Sr7  1  0.66666667  0.33333333  0.39351233  1
  Sr  Sr8  1  0.66666667  0.33333333  0.52082033  1
  Sr  Sr9  1  0.33333333  0.66666667  0.47917967  1
  Sr  Sr10  1  0.33333333  0.66666667  0.60648767  1
  Sr  Sr11  1  0.00000000  0.00000000  0.56272500  1
  Sr  Sr12  1  0.66666667  0.33333333  0.77060833  1
  Sr  Sr13  1  0.33333333  0.66666667  0.72684567  1
  Sr  Sr14  1  0.33333333  0.66666667  0.85415367  1
  Sr  Sr15  1  0.00000000  0.00000000  0.81251300  1
  Sr  Sr16  1  0.00000000  0.00000000  0.93982100  1
  Sr  Sr17  1  0.66666667  0.33333333  0.89605833  1
  La  La18  1  0.66666667  0.33333333  0.01860133  1
  La  La19  1  0.00000000  0.00000000  0.31473200  1
  La  La20  1  0.33333333  0.66666667  0.35193467  1
  La  La21  1  0.66666667  0.33333333  0.64806533  1
  La  La22  1  0.00000000  0.00000000  0.68526800  1
  La  La23  1  0.33333333  0.66666667  0.98139867  1
  Ta  Ta24  1  0.66666667  0.33333333  0.08306333  1
  Ta  Ta25  1  0.33333333  0.66666667  0.16666667  1
  Ta  Ta26  1  0.00000000  0.00000000  0.25027000  1
  Ta  Ta27  1  0.33333333  0.66666667  0.41639667  1
  Ta  Ta28  1  1.00000000  1.00000000  0.50000000  1
  Ta  Ta29  1  0.66666667  0.33333333  0.58360333  1
  Ta  Ta30  1  0.00000000  0.00000000  0.74973000  1
  Ta  Ta31  1  0.66666667  0.33333333  0.83333333  1
  Ta  Ta32  1  0.33333333  0.66666667  0.91693667  1
  Al  Al33  1  0.00000000  0.00000000  0.00000000  1
  Al  Al34  1  0.33333333  0.66666667  0.04056167  1
  Al  Al35  1  0.00000000  0.00000000  0.12478400  1
  Al  Al36  1  0.66666667  0.33333333  0.20854933  1
  Al  Al37  1  0.33333333  0.66666667  0.29277167  1
  Al  Al38  1  0.66666667  0.33333333  0.33333333  1
  Al  Al39  1  0.00000000  0.00000000  0.37389500  1
  Al  Al40  1  0.66666667  0.33333333  0.45811733  1
  Al  Al41  1  0.33333333  0.66666667  0.54188267  1
  Al  Al42  1  0.00000000  0.00000000  0.62610500  1
  Al  Al43  1  0.33333333  0.66666667  0.66666667  1
  Al  Al44  1  0.66666667  0.33333333  0.70722833  1
  Al  Al45  1  0.33333333  0.66666667  0.79145067  1
  Al  Al46  1  0.00000000  0.00000000  0.87521600  1
  Al  Al47  1  0.66666667  0.33333333  0.95943833  1
  O  O48  1  0.49735667  0.50264333  0.31353333  1
  O  O49  1  0.16931000  0.33862000  0.01980000  1
  O  O50  1  0.49800967  0.50199033  0.06124833  1
  O  O51  1  0.16931000  0.83069000  0.01980000  1
  O  O52  1  0.00528667  0.50264333  0.31353333  1
  O  O53  1  0.83608833  0.67217667  0.10437767  1
  O  O54  1  0.16355633  0.83644367  0.14540667  1
  O  O55  1  0.66138000  0.83069000  0.01980000  1
  O  O56  1  0.83608833  0.16391167  0.10437767  1
  O  O57  1  0.00398067  0.50199033  0.06124833  1
  O  O58  1  0.50311033  0.00622067  0.18792667  1
  O  O59  1  0.49735667  0.99471333  0.31353333  1
  O  O60  1  0.83057833  0.16942167  0.22895567  1
  O  O61  1  0.32782333  0.16391167  0.10437767  1
  O  O62  1  0.50311033  0.49688967  0.18792667  1
  O  O63  1  0.67288733  0.83644367  0.14540667  1
  O  O64  1  0.16865700  0.33731400  0.27208500  1
  O  O65  1  0.49800967  0.99601933  0.06124833  1
  O  O66  1  0.99377933  0.49688967  0.18792667  1
  O  O67  1  0.33884333  0.16942167  0.22895567  1
  O  O68  1  0.16355633  0.32711267  0.14540667  1
  O  O69  1  0.66268600  0.83134300  0.27208500  1
  O  O70  1  0.83057833  0.66115667  0.22895567  1
  O  O71  1  0.16865700  0.83134300  0.27208500  1
  O  O72  1  0.16402333  0.83597667  0.64686667  1
  O  O73  1  0.83597667  0.67195333  0.35313333  1
  O  O74  1  0.16467633  0.83532367  0.39458167  1
  O  O75  1  0.83597667  0.16402333  0.35313333  1
  O  O76  1  0.67195333  0.83597667  0.64686667  1
  O  O77  1  0.50275500  0.00551000  0.43771100  1
  O  O78  1  0.83022300  0.16977700  0.47874000  1
  O  O79  1  0.32804667  0.16402333  0.35313333  1
  O  O80  1  0.50275500  0.49724500  0.43771100  1
  O  O81  1  0.67064733  0.83532367  0.39458167  1
  O  O82  1  0.16977700  0.33955400  0.52126000  1
  O  O83  1  0.16402333  0.32804667  0.64686667  1
  O  O84  1  0.49724500  0.50275500  0.56228900  1
  O  O85  1  0.99449000  0.49724500  0.43771100  1
  O  O86  1  0.16977700  0.83022300  0.52126000  1
  O  O87  1  0.33955400  0.16977700  0.47874000  1
  O  O88  1  0.83532367  0.67064733  0.60541833  1
  O  O89  1  0.16467633  0.32935267  0.39458167  1
  O  O90  1  0.66044600  0.83022300  0.52126000  1
  O  O91  1  0.00551000  0.50275500  0.56228900  1
  O  O92  1  0.83022300  0.66044600  0.47874000  1
  O  O93  1  0.32935267  0.16467633  0.60541833  1
  O  O94  1  0.49724500  0.99449000  0.56228900  1
  O  O95  1  0.83532367  0.16467633  0.60541833  1
  O  O96  1  0.83069000  0.16931000  0.98020000  1
  O  O97  1  0.50264333  0.00528667  0.68646667  1
  O  O98  1  0.83134300  0.16865700  0.72791500  1
  O  O99  1  0.50264333  0.49735667  0.68646667  1
  O  O100  1  0.33862000  0.16931000  0.98020000  1
  O  O101  1  0.16942167  0.33884333  0.77104433  1
  O  O102  1  0.49688967  0.50311033  0.81207333  1
  O  O103  1  0.99471333  0.49735667  0.68646667  1
  O  O104  1  0.16942167  0.83057833  0.77104433  1
  O  O105  1  0.33731400  0.16865700  0.72791500  1
  O  O106  1  0.83644367  0.67288733  0.85459333  1
  O  O107  1  0.83069000  0.66138000  0.98020000  1
  O  O108  1  0.16391167  0.83608833  0.89562233  1
  O  O109  1  0.66115667  0.83057833  0.77104433  1
  O  O110  1  0.83644367  0.16355633  0.85459333  1
  O  O111  1  0.00622067  0.50311033  0.81207333  1
  O  O112  1  0.50199033  0.00398067  0.93875167  1
  O  O113  1  0.83134300  0.66268600  0.72791500  1
  O  O114  1  0.32711267  0.16355633  0.85459333  1
  O  O115  1  0.67217667  0.83608833  0.89562233  1
  O  O116  1  0.49688967  0.99377933  0.81207333  1
  O  O117  1  0.99601933  0.49800967  0.93875167  1
  O  O118  1  0.16391167  0.32782333  0.89562233  1
  O  O119  1  0.50199033  0.49800967  0.93875167  1
