# generated using pymatgen
data_KNa3Al4(SiO4)4
_symmetry_space_group_name_H-M   'P 1'
_cell_length_a   8.51299700
_cell_length_b   10.08975816
_cell_length_c   10.12672719
_cell_angle_alpha   61.02779427
_cell_angle_beta   89.63138675
_cell_angle_gamma   89.75644378
_symmetry_Int_Tables_number   1
_chemical_formula_structural   KNa3Al4(SiO4)4
_chemical_formula_sum   'K2 Na6 Al8 Si8 O32'
_cell_volume   760.95498558
_cell_formula_units_Z   2
loop_
 _symmetry_equiv_pos_site_id
 _symmetry_equiv_pos_as_xyz
  1  'x, y, z'
loop_
 _atom_site_type_symbol
 _atom_site_label
 _atom_site_symmetry_multiplicity
 _atom_site_fract_x
 _atom_site_fract_y
 _atom_site_fract_z
 _atom_site_occupancy
  K  K0  1  0.01935000  0.00634400  0.00955000  1
  K  K1  1  0.51773700  0.00994800  0.99763400  1
  Na  Na2  1  0.51609700  0.55941400  0.97457100  1
  Na  Na3  1  0.51171300  0.43971800  0.56328900  1
  Na  Na4  1  0.50258500  0.99156700  0.43785900  1
  Na  Na5  1  0.01836200  0.99907800  0.54690700  1
  Na  Na6  1  0.99914100  0.56205300  0.45298500  1
  Na  Na7  1  0.01311700  0.44235000  0.00381500  1
  Al  Al8  1  0.31944400  0.23682700  0.09709100  1
  Al  Al9  1  0.81898700  0.34337300  0.33579600  1
  Al  Al10  1  0.81207600  0.90378800  0.33564600  1
  Al  Al11  1  0.19948500  0.89832500  0.33716500  1
  Al  Al12  1  0.32281600  0.09969100  0.66444300  1
  Al  Al13  1  0.31529500  0.66121000  0.66764900  1
  Al  Al14  1  0.81865000  0.76386300  0.90176600  1
  Al  Al15  1  0.82554700  0.32886000  0.76114200  1
  Si  Si16  1  0.32129800  0.66215400  0.23957300  1
  Si  Si17  1  0.68249500  0.66763500  0.23288700  1
  Si  Si18  1  0.69818500  0.24046200  0.10004500  1
  Si  Si19  1  0.19767700  0.34137500  0.33671600  1
  Si  Si20  1  0.69900500  0.09994200  0.65770600  1
  Si  Si21  1  0.70284500  0.65654400  0.66553700  1
  Si  Si22  1  0.19642800  0.76003900  0.90825700  1
  Si  Si23  1  0.19326900  0.33448400  0.76003200  1
  O  O24  1  0.30928600  0.71892500  0.05755900  1
  O  O25  1  0.68735300  0.71244900  0.05477500  1
  O  O26  1  0.50012900  0.70439000  0.26878400  1
  O  O27  1  0.51722100  0.29956100  0.04748100  1
  O  O28  1  0.78070700  0.34267300  0.16598200  1
  O  O29  1  0.23475900  0.33777400  0.18131100  1
  O  O30  1  0.71192800  0.48818900  0.34688700  1
  O  O31  1  0.30858700  0.47620300  0.34060900  1
  O  O32  1  0.01665700  0.39200300  0.33917100  1
  O  O33  1  0.68980200  0.05997100  0.22326500  1
  O  O34  1  0.31874200  0.04082100  0.20188000  1
  O  O35  1  0.23765200  0.17889300  0.48402700  1
  O  O36  1  0.77956200  0.16432500  0.49070400  1
  O  O37  1  0.00515200  0.95725900  0.33178500  1
  O  O38  1  0.69022800  0.23060500  0.70975300  1
  O  O39  1  0.80268900  0.77384500  0.26424100  1
  O  O40  1  0.32624600  0.23293600  0.73002700  1
  O  O41  1  0.19264900  0.74638000  0.29038800  1
  O  O42  1  0.51797700  0.04544200  0.65405100  1
  O  O43  1  0.27482400  0.83846600  0.51769500  1
  O  O44  1  0.73170300  0.82311700  0.51938600  1
  O  O45  1  0.80704200  0.95908400  0.77900400  1
  O  O46  1  0.21140600  0.94121700  0.79216900  1
  O  O47  1  0.51643700  0.61363300  0.68538900  1
  O  O48  1  0.79538600  0.52486700  0.64423200  1
  O  O49  1  0.22484100  0.51471000  0.64652800  1
  O  O50  1  0.76317700  0.65267900  0.82080200  1
  O  O51  1  0.26179100  0.65258300  0.84182700  1
  O  O52  1  0.01449900  0.71811800  0.96448500  1
  O  O53  1  0.01847700  0.29163100  0.72544600  1
  O  O54  1  0.19913200  0.29469600  0.93669000  1
  O  O55  1  0.80595500  0.26351500  0.95559900  1
