# generated using pymatgen
data_AlPO4
_symmetry_space_group_name_H-M   'P 1'
_cell_length_a   14.96235600
_cell_length_b   33.45861600
_cell_length_c   8.57018800
_cell_angle_alpha   90.00000000
_cell_angle_beta   90.00000000
_cell_angle_gamma   90.00000000
_symmetry_Int_Tables_number   1
_chemical_formula_structural   AlPO4
_chemical_formula_sum   'Al36 P36 O144'
_cell_volume   4290.40514998
_cell_formula_units_Z   36
loop_
 _symmetry_equiv_pos_site_id
 _symmetry_equiv_pos_as_xyz
  1  'x, y, z'
loop_
 _atom_site_type_symbol
 _atom_site_label
 _atom_site_symmetry_multiplicity
 _atom_site_fract_x
 _atom_site_fract_y
 _atom_site_fract_z
 _atom_site_occupancy
  Al  Al0  1  0.92547600  0.00000000  0.05148300  1
  Al  Al1  1  0.11579600  0.08171600  0.02357800  1
  Al  Al2  1  0.61579600  0.41828400  0.02357800  1
  Al  Al3  1  0.40735500  0.18284600  0.03003500  1
  Al  Al4  1  0.59264500  0.18284600  0.53003500  1
  Al  Al5  1  0.10258350  0.22656050  0.02703200  1
  Al  Al6  1  0.29004500  0.34780600  0.03181800  1
  Al  Al7  1  0.70995500  0.34780600  0.53181800  1
  Al  Al8  1  0.60258350  0.27343950  0.02703200  1
  Al  Al9  1  0.89741650  0.22656050  0.52703200  1
  Al  Al10  1  0.79004500  0.15219400  0.03181800  1
  Al  Al11  1  0.39741650  0.27343950  0.52703200  1
  Al  Al12  1  0.90735500  0.31715400  0.03003500  1
  Al  Al13  1  0.07452400  0.00000000  0.55148300  1
  Al  Al14  1  0.20995500  0.15219400  0.53181800  1
  Al  Al15  1  0.38420400  0.41828400  0.52357800  1
  Al  Al16  1  0.88420400  0.08171600  0.52357800  1
  Al  Al17  1  0.09264500  0.31715400  0.53003500  1
  Al  Al18  1  0.42547600  0.50000000  0.05148300  1
  Al  Al19  1  0.61579600  0.58171600  0.02357800  1
  Al  Al20  1  0.11579600  0.91828400  0.02357800  1
  Al  Al21  1  0.90735500  0.68284600  0.03003500  1
  Al  Al22  1  0.09264500  0.68284600  0.53003500  1
  Al  Al23  1  0.60258350  0.72656050  0.02703200  1
  Al  Al24  1  0.79004500  0.84780600  0.03181800  1
  Al  Al25  1  0.20995500  0.84780600  0.53181800  1
  Al  Al26  1  0.10258350  0.77343950  0.02703200  1
  Al  Al27  1  0.39741650  0.72656050  0.52703200  1
  Al  Al28  1  0.29004500  0.65219400  0.03181800  1
  Al  Al29  1  0.89741650  0.77343950  0.52703200  1
  Al  Al30  1  0.40735500  0.81715400  0.03003500  1
  Al  Al31  1  0.57452400  0.50000000  0.55148300  1
  Al  Al32  1  0.70995500  0.65219400  0.53181800  1
  Al  Al33  1  0.88420400  0.91828400  0.52357800  1
  Al  Al34  1  0.38420400  0.58171600  0.52357800  1
  Al  Al35  1  0.59264500  0.81715400  0.53003500  1
  P  P36  1  0.10255900  0.31955400  0.91201600  1
  P  P37  1  0.22374500  0.15575800  0.90376400  1
  P  P38  1  0.87564100  0.00000000  0.41849800  1
  P  P39  1  0.91595100  0.08193700  0.89038300  1
  P  P40  1  0.27625500  0.34424200  0.40376400  1
  P  P41  1  0.39744100  0.18044600  0.41201600  1
  P  P42  1  0.40704000  0.27549100  0.90907800  1
  P  P43  1  0.41595100  0.41806300  0.89038300  1
  P  P44  1  0.77625500  0.15575800  0.40376400  1
  P  P45  1  0.59296000  0.27549100  0.40907800  1
  P  P46  1  0.90704000  0.22450900  0.90907800  1
  P  P47  1  0.89744100  0.31955400  0.41201600  1
  P  P48  1  0.12435900  0.00000000  0.91849800  1
  P  P49  1  0.08404900  0.08193700  0.39038300  1
  P  P50  1  0.09296000  0.22450900  0.40907800  1
  P  P51  1  0.60255900  0.18044600  0.91201600  1
  P  P52  1  0.58404900  0.41806300  0.39038300  1
  P  P53  1  0.72374500  0.34424200  0.90376400  1
  P  P54  1  0.60255900  0.81955400  0.91201600  1
  P  P55  1  0.72374500  0.65575800  0.90376400  1
  P  P56  1  0.37564100  0.50000000  0.41849800  1
  P  P57  1  0.41595100  0.58193700  0.89038300  1
  P  P58  1  0.77625500  0.84424200  0.40376400  1
  P  P59  1  0.89744100  0.68044600  0.41201600  1
  P  P60  1  0.90704000  0.77549100  0.90907800  1
  P  P61  1  0.91595100  0.91806300  0.89038300  1
  P  P62  1  0.27625500  0.65575800  0.40376400  1
  P  P63  1  0.09296000  0.77549100  0.40907800  1
  P  P64  1  0.40704000  0.72450900  0.90907800  1
  P  P65  1  0.39744100  0.81955400  0.41201600  1
  P  P66  1  0.62435900  0.50000000  0.91849800  1
  P  P67  1  0.58404900  0.58193700  0.39038300  1
  P  P68  1  0.59296000  0.72450900  0.40907800  1
  P  P69  1  0.10255900  0.68044600  0.91201600  1
  P  P70  1  0.08404900  0.91806300  0.39038300  1
  P  P71  1  0.22374500  0.84424200  0.90376400  1
  O  O72  1  0.67498150  0.15544850  0.43245700  1
  O  O73  1  0.98802950  0.33562350  0.47016100  1
  O  O74  1  0.98613750  0.09172550  0.42956700  1
  O  O75  1  0.18070550  0.12470350  0.01243200  1
  O  O76  1  0.64552350  0.38300250  0.43154800  1
  O  O77  1  0.58798800  0.42678700  0.21638100  1
  O  O78  1  0.32405200  0.46097000  0.45265300  1
  O  O79  1  0.01386250  0.09172550  0.92956700  1
  O  O80  1  0.41201200  0.42678700  0.71638100  1
  O  O81  1  0.32501850  0.15544850  0.93245700  1
  O  O82  1  0.48802950  0.16437650  0.47016100  1
  O  O83  1  0.01197050  0.33562350  0.97016100  1
  O  O84  1  0.17498150  0.34455150  0.43245700  1
  O  O85  1  0.89494250  0.22271850  0.73097400  1
  O  O86  1  0.90490400  0.00000000  0.24850200  1
  O  O87  1  0.60505750  0.27728150  0.23097400  1
  O  O88  1  0.16562250  0.19923150  0.48768100  1
  O  O89  1  0.91201200  0.07321300  0.71638100  1
  O  O90  1  0.82501850  0.34455150  0.93245700  1
  O  O91  1  0.09509600  0.00000000  0.74850200  1
  O  O92  1  0.10304450  0.26763050  0.46678600  1
  O  O93  1  0.51386250  0.40827450  0.92956700  1
  O  O94  1  0.88255400  0.04456500  0.97820900  1
  O  O95  1  0.82286050  0.34692050  0.47474700  1
  O  O96  1  0.00024500  0.20829000  0.95370700  1
  O  O97  1  0.85447650  0.11699750  0.93154800  1
  O  O98  1  0.20443700  0.14428800  0.73331100  1
  O  O99  1  0.10505750  0.22271850  0.23097400  1
  O  O100  1  0.29556300  0.35571200  0.23331100  1
  O  O101  1  0.38255400  0.45543500  0.97820900  1
  O  O102  1  0.89485650  0.32018250  0.23267100  1
  O  O103  1  0.39695550  0.23236950  0.96678600  1
  O  O104  1  0.70443700  0.35571200  0.73331100  1
  O  O105  1  0.39485650  0.17981750  0.23267100  1
  O  O106  1  0.14552350  0.11699750  0.43154800  1
  O  O107  1  0.68647700  0.30238300  0.94057300  1
  O  O108  1  0.39494250  0.27728150  0.73097400  1
  O  O109  1  0.95890800  0.00000000  0.52572800  1
  O  O110  1  0.31929450  0.37529650  0.51243200  1
  O  O111  1  0.48613750  0.40827450  0.42956700  1
  O  O112  1  0.51197050  0.16437650  0.97016100  1
  O  O113  1  0.66562250  0.30076850  0.48768100  1
  O  O114  1  0.32286050  0.15307950  0.47474700  1
  O  O115  1  0.60304450  0.23236950  0.46678600  1
  O  O116  1  0.67594800  0.46097000  0.95265300  1
  O  O117  1  0.61677300  0.22348700  0.97103200  1
  O  O118  1  0.81929450  0.12470350  0.51243200  1
  O  O119  1  0.89695550  0.26763050  0.96678600  1
  O  O120  1  0.33437750  0.30076850  0.98768100  1
  O  O121  1  0.10514350  0.32018250  0.73267100  1
  O  O122  1  0.11744600  0.04456500  0.47820900  1
  O  O123  1  0.04109200  0.00000000  0.02572800  1
  O  O124  1  0.17594800  0.03903000  0.95265300  1
  O  O125  1  0.60514350  0.17981750  0.73267100  1
  O  O126  1  0.18647700  0.19761700  0.94057300  1
  O  O127  1  0.82405200  0.03903000  0.45265300  1
  O  O128  1  0.11677300  0.27651300  0.97103200  1
  O  O129  1  0.35447650  0.38300250  0.93154800  1
  O  O130  1  0.81352300  0.19761700  0.44057300  1
  O  O131  1  0.83437750  0.19923150  0.98768100  1
  O  O132  1  0.99975500  0.20829000  0.45370700  1
  O  O133  1  0.08798800  0.07321300  0.21638100  1
  O  O134  1  0.67713950  0.15307950  0.97474700  1
  O  O135  1  0.17713950  0.34692050  0.97474700  1
  O  O136  1  0.31352300  0.30238300  0.44057300  1
  O  O137  1  0.38322700  0.22348700  0.47103200  1
  O  O138  1  0.61744600  0.45543500  0.47820900  1
  O  O139  1  0.49975500  0.29171000  0.45370700  1
  O  O140  1  0.50024500  0.29171000  0.95370700  1
  O  O141  1  0.68070550  0.37529650  0.01243200  1
  O  O142  1  0.88322700  0.27651300  0.47103200  1
  O  O143  1  0.79556300  0.14428800  0.23331100  1
  O  O144  1  0.17498150  0.65544850  0.43245700  1
  O  O145  1  0.48802950  0.83562350  0.47016100  1
  O  O146  1  0.48613750  0.59172550  0.42956700  1
  O  O147  1  0.68070550  0.62470350  0.01243200  1
  O  O148  1  0.14552350  0.88300250  0.43154800  1
  O  O149  1  0.08798800  0.92678700  0.21638100  1
  O  O150  1  0.82405200  0.96097000  0.45265300  1
  O  O151  1  0.51386250  0.59172550  0.92956700  1
  O  O152  1  0.91201200  0.92678700  0.71638100  1
  O  O153  1  0.82501850  0.65544850  0.93245700  1
  O  O154  1  0.98802950  0.66437650  0.47016100  1
  O  O155  1  0.51197050  0.83562350  0.97016100  1
  O  O156  1  0.67498150  0.84455150  0.43245700  1
  O  O157  1  0.39494250  0.72271850  0.73097400  1
  O  O158  1  0.40490400  0.50000000  0.24850200  1
  O  O159  1  0.10505750  0.77728150  0.23097400  1
  O  O160  1  0.66562250  0.69923150  0.48768100  1
  O  O161  1  0.41201200  0.57321300  0.71638100  1
  O  O162  1  0.32501850  0.84455150  0.93245700  1
  O  O163  1  0.59509600  0.50000000  0.74850200  1
  O  O164  1  0.60304450  0.76763050  0.46678600  1
  O  O165  1  0.01386250  0.90827450  0.92956700  1
  O  O166  1  0.38255400  0.54456500  0.97820900  1
  O  O167  1  0.32286050  0.84692050  0.47474700  1
  O  O168  1  0.50024500  0.70829000  0.95370700  1
  O  O169  1  0.35447650  0.61699750  0.93154800  1
  O  O170  1  0.70443700  0.64428800  0.73331100  1
  O  O171  1  0.60505750  0.72271850  0.23097400  1
  O  O172  1  0.79556300  0.85571200  0.23331100  1
  O  O173  1  0.88255400  0.95543500  0.97820900  1
  O  O174  1  0.39485650  0.82018250  0.23267100  1
  O  O175  1  0.89695550  0.73236950  0.96678600  1
  O  O176  1  0.20443700  0.85571200  0.73331100  1
  O  O177  1  0.89485650  0.67981750  0.23267100  1
  O  O178  1  0.64552350  0.61699750  0.43154800  1
  O  O179  1  0.18647700  0.80238300  0.94057300  1
  O  O180  1  0.89494250  0.77728150  0.73097400  1
  O  O181  1  0.45890800  0.50000000  0.52572800  1
  O  O182  1  0.81929450  0.87529650  0.51243200  1
  O  O183  1  0.98613750  0.90827450  0.42956700  1
  O  O184  1  0.01197050  0.66437650  0.97016100  1
  O  O185  1  0.16562250  0.80076850  0.48768100  1
  O  O186  1  0.82286050  0.65307950  0.47474700  1
  O  O187  1  0.10304450  0.73236950  0.46678600  1
  O  O188  1  0.17594800  0.96097000  0.95265300  1
  O  O189  1  0.11677300  0.72348700  0.97103200  1
  O  O190  1  0.31929450  0.62470350  0.51243200  1
  O  O191  1  0.39695550  0.76763050  0.96678600  1
  O  O192  1  0.83437750  0.80076850  0.98768100  1
  O  O193  1  0.60514350  0.82018250  0.73267100  1
  O  O194  1  0.61744600  0.54456500  0.47820900  1
  O  O195  1  0.54109200  0.50000000  0.02572800  1
  O  O196  1  0.67594800  0.53903000  0.95265300  1
  O  O197  1  0.10514350  0.67981750  0.73267100  1
  O  O198  1  0.68647700  0.69761700  0.94057300  1
  O  O199  1  0.32405200  0.53903000  0.45265300  1
  O  O200  1  0.61677300  0.77651300  0.97103200  1
  O  O201  1  0.85447650  0.88300250  0.93154800  1
  O  O202  1  0.31352300  0.69761700  0.44057300  1
  O  O203  1  0.33437750  0.69923150  0.98768100  1
  O  O204  1  0.49975500  0.70829000  0.45370700  1
  O  O205  1  0.58798800  0.57321300  0.21638100  1
  O  O206  1  0.17713950  0.65307950  0.97474700  1
  O  O207  1  0.67713950  0.84692050  0.97474700  1
  O  O208  1  0.81352300  0.80238300  0.44057300  1
  O  O209  1  0.88322700  0.72348700  0.47103200  1
  O  O210  1  0.11744600  0.95543500  0.47820900  1
  O  O211  1  0.99975500  0.79171000  0.45370700  1
  O  O212  1  0.00024500  0.79171000  0.95370700  1
  O  O213  1  0.18070550  0.87529650  0.01243200  1
  O  O214  1  0.38322700  0.77651300  0.47103200  1
  O  O215  1  0.29556300  0.64428800  0.23331100  1
