# generated using pymatgen
data_SbHO3
_symmetry_space_group_name_H-M   'P 1'
_cell_length_a   9.98490400
_cell_length_b   10.75917800
_cell_length_c   10.76171000
_cell_angle_alpha   90.00000000
_cell_angle_beta   90.00000000
_cell_angle_gamma   90.00000000
_symmetry_Int_Tables_number   1
_chemical_formula_structural   SbHO3
_chemical_formula_sum   'Sb16 H16 O48'
_cell_volume   1156.12361187
_cell_formula_units_Z   16
loop_
 _symmetry_equiv_pos_site_id
 _symmetry_equiv_pos_as_xyz
  1  'x, y, z'
loop_
 _atom_site_type_symbol
 _atom_site_label
 _atom_site_symmetry_multiplicity
 _atom_site_fract_x
 _atom_site_fract_y
 _atom_site_fract_z
 _atom_site_occupancy
  Sb  Sb0  1  0.87410200  0.62471500  0.24578500  1
  Sb  Sb1  1  0.37589800  0.87471500  0.49578500  1
  Sb  Sb2  1  0.12589800  0.37528500  0.24578500  1
  Sb  Sb3  1  0.12410200  0.62528500  0.49578500  1
  Sb  Sb4  1  0.87410200  0.12471500  0.74578500  1
  Sb  Sb5  1  0.37589800  0.37471500  0.99578500  1
  Sb  Sb6  1  0.12589800  0.87528500  0.74578500  1
  Sb  Sb7  1  0.12410200  0.12528500  0.99578500  1
  Sb  Sb8  1  0.37410200  0.62471500  0.74578500  1
  Sb  Sb9  1  0.87589800  0.87471500  0.99578500  1
  Sb  Sb10  1  0.62589800  0.37528500  0.74578500  1
  Sb  Sb11  1  0.62410200  0.62528500  0.99578500  1
  Sb  Sb12  1  0.37410200  0.12471500  0.24578500  1
  Sb  Sb13  1  0.87589800  0.37471500  0.49578500  1
  Sb  Sb14  1  0.62589800  0.87528500  0.24578500  1
  Sb  Sb15  1  0.62410200  0.12528500  0.49578500  1
  H  H16  1  0.28838850  0.54882650  0.32524700  1
  H  H17  1  0.71161150  0.45117350  0.32524700  1
  H  H18  1  0.96161150  0.29882650  0.07524700  1
  H  H19  1  0.03838850  0.70117350  0.07524700  1
  H  H20  1  0.28838850  0.04882650  0.82524700  1
  H  H21  1  0.71161150  0.95117350  0.82524700  1
  H  H22  1  0.96161150  0.79882650  0.57524700  1
  H  H23  1  0.03838850  0.20117350  0.57524700  1
  H  H24  1  0.78838850  0.54882650  0.82524700  1
  H  H25  1  0.21161150  0.45117350  0.82524700  1
  H  H26  1  0.46161150  0.29882650  0.57524700  1
  H  H27  1  0.53838850  0.70117350  0.57524700  1
  H  H28  1  0.78838850  0.04882650  0.32524700  1
  H  H29  1  0.21161150  0.95117350  0.32524700  1
  H  H30  1  0.46161150  0.79882650  0.07524700  1
  H  H31  1  0.53838850  0.20117350  0.07524700  1
  O  O32  1  0.21521800  0.50449150  0.36765250  1
  O  O33  1  0.78478200  0.49550850  0.36765250  1
  O  O34  1  0.50000000  0.50000000  0.05748900  1
  O  O35  1  0.00000000  0.50000000  0.17931300  1
  O  O36  1  0.49502500  0.18919850  0.37372550  1
  O  O37  1  0.50497500  0.81080150  0.37372550  1
  O  O38  1  0.03478200  0.25449150  0.11765250  1
  O  O39  1  0.96521800  0.74550850  0.11765250  1
  O  O40  1  0.25000000  0.75000000  0.42931300  1
  O  O41  1  0.25000000  0.25000000  0.30748900  1
  O  O42  1  0.74502500  0.56080150  0.12372550  1
  O  O43  1  0.25497500  0.43919850  0.12372550  1
  O  O44  1  0.21521800  0.00449150  0.86765250  1
  O  O45  1  0.78478200  0.99550850  0.86765250  1
  O  O46  1  0.50000000  0.00000000  0.55748900  1
  O  O47  1  0.00000000  0.00000000  0.67931300  1
  O  O48  1  0.49502500  0.68919850  0.87372550  1
  O  O49  1  0.50497500  0.31080150  0.87372550  1
  O  O50  1  0.03478200  0.75449150  0.61765250  1
  O  O51  1  0.96521800  0.24550850  0.61765250  1
  O  O52  1  0.25000000  0.25000000  0.92931300  1
  O  O53  1  0.25000000  0.75000000  0.80748900  1
  O  O54  1  0.74502500  0.06080150  0.62372550  1
  O  O55  1  0.25497500  0.93919850  0.62372550  1
  O  O56  1  0.71521800  0.50449150  0.86765250  1
  O  O57  1  0.28478200  0.49550850  0.86765250  1
  O  O58  1  0.00000000  0.50000000  0.55748900  1
  O  O59  1  0.50000000  0.50000000  0.67931300  1
  O  O60  1  0.99502500  0.18919850  0.87372550  1
  O  O61  1  0.00497500  0.81080150  0.87372550  1
  O  O62  1  0.53478200  0.25449150  0.61765250  1
  O  O63  1  0.46521800  0.74550850  0.61765250  1
  O  O64  1  0.75000000  0.75000000  0.92931300  1
  O  O65  1  0.75000000  0.25000000  0.80748900  1
  O  O66  1  0.24502500  0.56080150  0.62372550  1
  O  O67  1  0.75497500  0.43919850  0.62372550  1
  O  O68  1  0.71521800  0.00449150  0.36765250  1
  O  O69  1  0.28478200  0.99550850  0.36765250  1
  O  O70  1  0.00000000  0.00000000  0.05748900  1
  O  O71  1  0.50000000  0.00000000  0.17931300  1
  O  O72  1  0.99502500  0.68919850  0.37372550  1
  O  O73  1  0.00497500  0.31080150  0.37372550  1
  O  O74  1  0.53478200  0.75449150  0.11765250  1
  O  O75  1  0.46521800  0.24550850  0.11765250  1
  O  O76  1  0.75000000  0.25000000  0.42931300  1
  O  O77  1  0.75000000  0.75000000  0.30748900  1
  O  O78  1  0.24502500  0.06080150  0.12372550  1
  O  O79  1  0.75497500  0.93919850  0.12372550  1
