# generated using pymatgen
data_Sr6Nb2O11
_symmetry_space_group_name_H-M   'P 1'
_cell_length_a   5.99701559
_cell_length_b   6.01942970
_cell_length_c   19.83650970
_cell_angle_alpha   97.34834938
_cell_angle_beta   90.39770447
_cell_angle_gamma   119.66265339
_symmetry_Int_Tables_number   1
_chemical_formula_structural   Sr6Nb2O11
_chemical_formula_sum   'Sr12 Nb4 O22'
_cell_volume   615.06905890
_cell_formula_units_Z   2
loop_
 _symmetry_equiv_pos_site_id
 _symmetry_equiv_pos_as_xyz
  1  'x, y, z'
loop_
 _atom_site_type_symbol
 _atom_site_label
 _atom_site_symmetry_multiplicity
 _atom_site_fract_x
 _atom_site_fract_y
 _atom_site_fract_z
 _atom_site_occupancy
  Sr  Sr0  1  0.29858200  0.59814127  0.93025888  1
  Sr  Sr1  1  0.69496403  0.30895164  0.88324286  1
  Sr  Sr2  1  0.82059513  0.44040872  0.70329274  1
  Sr  Sr3  1  0.15859535  0.12286966  0.62289397  1
  Sr  Sr4  1  0.03910745  0.99716351  0.80177880  1
  Sr  Sr5  1  0.36300188  0.20401257  0.42518061  1
  Sr  Sr6  1  0.71723819  0.87067520  0.38359404  1
  Sr  Sr7  1  0.82619705  0.92445409  0.20066677  1
  Sr  Sr8  1  0.50257915  0.79743545  0.57528796  1
  Sr  Sr9  1  0.20972572  0.61668570  0.11666878  1
  Sr  Sr10  1  0.05318799  0.53852092  0.29630198  1
  Sr  Sr11  1  0.54337914  0.30308654  0.07736652  1
  Nb  Nb12  1  0.98031771  0.94827909  0.00306454  1
  Nb  Nb13  1  0.43118097  0.71905358  0.75177391  1
  Nb  Nb14  1  0.92930567  0.49694313  0.49974396  1
  Nb  Nb15  1  0.44506784  0.21582402  0.25130446  1
  O  O16  1  0.58038683  0.56907132  0.81540110  1
  O  O17  1  0.65130605  0.05933309  0.78710056  1
  O  O18  1  0.82483042  0.59645471  0.97241057  1
  O  O19  1  0.95968116  0.11235643  0.92127038  1
  O  O20  1  0.13205499  0.63907025  0.82852422  1
  O  O21  1  0.22840944  0.37716619  0.71697217  1
  O  O22  1  0.02220862  0.43289436  0.58593810  1
  O  O23  1  0.72272606  0.79548052  0.67122244  1
  O  O24  1  0.27723575  0.86847300  0.69226727  1
  O  O25  1  0.55243882  0.23614072  0.54029265  1
  O  O26  1  0.83930006  0.31951629  0.41837958  1
  O  O27  1  0.59635342  0.51814368  0.30720255  1
  O  O28  1  0.30264555  0.61526637  0.46180506  1
  O  O29  1  0.30423543  0.93791146  0.00405975  1
  O  O30  1  0.92012421  0.81254501  0.49579263  1
  O  O31  1  0.15176927  0.00248709  0.33032766  1
  O  O32  1  0.64374914  0.07202691  0.29306184  1
  O  O33  1  0.24938798  0.91222058  0.19682097  1
  O  O34  1  0.16594352  0.29799185  0.03675344  1
  O  O35  1  0.75784394  0.36472778  0.17462327  1
  O  O36  1  0.27074311  0.37479245  0.20443151  1
  O  O37  1  0.70955293  0.81170386  0.08269552  1
