# generated using pymatgen
data_Cs3VH8(Cl3O2)2
_symmetry_space_group_name_H-M   'P 1'
_cell_length_a   6.11684200
_cell_length_b   8.45567200
_cell_length_c   17.88375800
_cell_angle_alpha   90.00000000
_cell_angle_beta   90.00000000
_cell_angle_gamma   90.00000000
_symmetry_Int_Tables_number   1
_chemical_formula_structural   Cs3VH8(Cl3O2)2
_chemical_formula_sum   'Cs6 V2 H16 Cl12 O8'
_cell_volume   924.98390346
_cell_formula_units_Z   2
loop_
 _symmetry_equiv_pos_site_id
 _symmetry_equiv_pos_as_xyz
  1  'x, y, z'
loop_
 _atom_site_type_symbol
 _atom_site_label
 _atom_site_symmetry_multiplicity
 _atom_site_fract_x
 _atom_site_fract_y
 _atom_site_fract_z
 _atom_site_occupancy
  Cs  Cs0  1  0.00000000  0.00000000  0.00000000  1
  Cs  Cs1  1  0.50000000  0.00000000  0.81290400  1
  Cs  Cs2  1  0.00000000  0.50000000  0.68709600  1
  Cs  Cs3  1  0.50000000  0.50000000  0.50000000  1
  Cs  Cs4  1  0.00000000  0.50000000  0.31290400  1
  Cs  Cs5  1  0.50000000  0.00000000  0.18709600  1
  V  V6  1  0.50000000  0.50000000  0.00000000  1
  V  V7  1  0.00000000  0.00000000  0.50000000  1
  H  H8  1  0.69955200  0.90285500  0.60312200  1
  H  H9  1  0.19955200  0.59714500  0.89687800  1
  H  H10  1  0.80044800  0.40285500  0.89687800  1
  H  H11  1  0.30044800  0.09714500  0.60312200  1
  H  H12  1  0.69955200  0.09714500  0.60312200  1
  H  H13  1  0.19955200  0.40285500  0.89687800  1
  H  H14  1  0.80044800  0.59714500  0.89687800  1
  H  H15  1  0.30044800  0.90285500  0.60312200  1
  H  H16  1  0.19955200  0.40285500  0.10312200  1
  H  H17  1  0.69955200  0.09714500  0.39687800  1
  H  H18  1  0.30044800  0.90285500  0.39687800  1
  H  H19  1  0.80044800  0.59714500  0.10312200  1
  H  H20  1  0.19955200  0.59714500  0.10312200  1
  H  H21  1  0.69955200  0.90285500  0.39687800  1
  H  H22  1  0.30044800  0.09714500  0.39687800  1
  H  H23  1  0.80044800  0.40285500  0.10312200  1
  Cl  Cl24  1  0.00000000  0.24307050  0.84285150  1
  Cl  Cl25  1  0.50000000  0.25692950  0.65714850  1
  Cl  Cl26  1  0.50000000  0.74307050  0.65714850  1
  Cl  Cl27  1  0.00000000  0.75692950  0.84285150  1
  Cl  Cl28  1  0.50000000  0.21545000  0.00000000  1
  Cl  Cl29  1  0.50000000  0.78455000  0.00000000  1
  Cl  Cl30  1  0.50000000  0.74307050  0.34285150  1
  Cl  Cl31  1  0.00000000  0.75692950  0.15714850  1
  Cl  Cl32  1  0.00000000  0.24307050  0.15714850  1
  Cl  Cl33  1  0.50000000  0.25692950  0.34285150  1
  Cl  Cl34  1  0.00000000  0.71545000  0.50000000  1
  Cl  Cl35  1  0.00000000  0.28455000  0.50000000  1
  O  O36  1  0.76704200  0.00000000  0.58069900  1
  O  O37  1  0.26704200  0.50000000  0.91930100  1
  O  O38  1  0.73295800  0.50000000  0.91930100  1
  O  O39  1  0.23295800  0.00000000  0.58069900  1
  O  O40  1  0.26704200  0.50000000  0.08069900  1
  O  O41  1  0.76704200  0.00000000  0.41930100  1
  O  O42  1  0.23295800  0.00000000  0.41930100  1
  O  O43  1  0.73295800  0.50000000  0.08069900  1
