# generated using pymatgen
data_LiZr3H18N4F19
_symmetry_space_group_name_H-M   'P 1'
_cell_length_a   11.56922300
_cell_length_b   13.33996300
_cell_length_c   13.93291469
_cell_angle_alpha   90.00000000
_cell_angle_beta   120.45750537
_cell_angle_gamma   90.00000000
_symmetry_Int_Tables_number   1
_chemical_formula_structural   LiZr3H18N4F19
_chemical_formula_sum   'Li4 Zr12 H72 N16 F76'
_cell_volume   1853.57753143
_cell_formula_units_Z   4
loop_
 _symmetry_equiv_pos_site_id
 _symmetry_equiv_pos_as_xyz
  1  'x, y, z'
loop_
 _atom_site_type_symbol
 _atom_site_label
 _atom_site_symmetry_multiplicity
 _atom_site_fract_x
 _atom_site_fract_y
 _atom_site_fract_z
 _atom_site_occupancy
  Li  Li0  1  0.50390200  0.12263800  0.75251300  1
  Li  Li1  1  0.49609800  0.62263800  0.74748700  1
  Li  Li2  1  0.50390200  0.37736200  0.25251300  1
  Li  Li3  1  0.49609800  0.87736200  0.24748700  1
  Zr  Zr4  1  0.65589400  0.12636100  0.23892700  1
  Zr  Zr5  1  0.97736000  0.37422900  0.74905600  1
  Zr  Zr6  1  0.02264000  0.87422900  0.75094400  1
  Zr  Zr7  1  0.97736000  0.12577100  0.24905600  1
  Zr  Zr8  1  0.35237600  0.12658900  0.26500000  1
  Zr  Zr9  1  0.65589400  0.37363900  0.73892700  1
  Zr  Zr10  1  0.34410600  0.62636100  0.26107300  1
  Zr  Zr11  1  0.35237600  0.37341100  0.76500000  1
  Zr  Zr12  1  0.64762400  0.87341100  0.73500000  1
  Zr  Zr13  1  0.02264000  0.62577100  0.25094400  1
  Zr  Zr14  1  0.64762400  0.62658900  0.23500000  1
  Zr  Zr15  1  0.34410600  0.87363900  0.76107300  1
  H  H16  1  0.91071700  0.62013700  0.99037500  1
  H  H17  1  0.95106800  0.13133700  0.00527200  1
  H  H18  1  0.32461300  0.59310100  0.88626100  1
  H  H19  1  0.21207100  0.11746600  0.64283400  1
  H  H20  1  0.06138800  0.56374000  0.60184200  1
  H  H21  1  0.22251500  0.43456300  0.39557600  1
  H  H22  1  0.93780500  0.56290500  0.89560000  1
  H  H23  1  0.61151000  0.87563800  0.47841500  1
  H  H24  1  0.66855500  0.87028400  0.98848900  1
  H  H25  1  0.32373300  0.34859500  0.38844000  1
  H  H26  1  0.33144500  0.12971600  0.01151100  1
  H  H27  1  0.19605300  0.18841400  0.90735300  1
  H  H28  1  0.08928300  0.37986300  0.00962500  1
  H  H29  1  0.07061500  0.81085500  0.10944700  1
  H  H30  1  0.67626700  0.65140500  0.61156000  1
  H  H31  1  0.19706400  0.94523100  0.40506500  1
  H  H32  1  0.66855500  0.62971600  0.48848900  1
  H  H33  1  0.32461300  0.90689900  0.38626100  1
  H  H34  1  0.93780500  0.93709500  0.39560000  1
  H  H35  1  0.78792900  0.88253400  0.35716600  1
  H  H36  1  0.06138800  0.93626000  0.10184200  1
  H  H37  1  0.67053500  0.11854400  0.49283800  1
  H  H38  1  0.91071700  0.87986300  0.49037500  1
  H  H39  1  0.80394700  0.81158600  0.09264700  1
  H  H40  1  0.78792900  0.61746600  0.85716600  1
  H  H41  1  0.80293600  0.44523100  0.09493500  1
  H  H42  1  0.21730500  0.67716600  0.88750200  1
  H  H43  1  0.80293600  0.05476900  0.59493500  1
  H  H44  1  0.92745300  0.68829300  0.89633300  1
  H  H45  1  0.62031900  0.37902200  0.48617200  1
  H  H46  1  0.21730500  0.82283400  0.38750200  1
  H  H47  1  0.04893200  0.86866300  0.99472800  1
  H  H48  1  0.22251500  0.06543700  0.89557600  1
  H  H49  1  0.19605300  0.31158600  0.40735300  1
  H  H50  1  0.80169000  0.37634300  0.38694500  1
  H  H51  1  0.33144500  0.37028400  0.51151100  1
  H  H52  1  0.93861200  0.43626000  0.39815800  1
  H  H53  1  0.62031900  0.12097800  0.98617200  1
  H  H54  1  0.67538700  0.40689900  0.11373900  1
  H  H55  1  0.38849000  0.12436200  0.52158500  1
  H  H56  1  0.04893200  0.63133700  0.49472800  1
  H  H57  1  0.32373300  0.15140500  0.88844000  1
  H  H58  1  0.37968100  0.87902200  0.01382800  1
  H  H59  1  0.19831000  0.62365700  0.61305500  1
  H  H60  1  0.92745300  0.81170700  0.39633300  1
  H  H61  1  0.38849000  0.37563800  0.02158500  1
  H  H62  1  0.78269500  0.32283400  0.11249800  1
  H  H63  1  0.07254700  0.18829300  0.60366700  1
  H  H64  1  0.67053500  0.38145600  0.99283800  1
  H  H65  1  0.78269500  0.17716600  0.61249800  1
  H  H66  1  0.77748500  0.56543700  0.60442400  1
  H  H67  1  0.06219500  0.43709500  0.10440000  1
  H  H68  1  0.92938500  0.31085500  0.39055300  1
  H  H69  1  0.19706400  0.55476900  0.90506500  1
  H  H70  1  0.07061500  0.68914500  0.60944700  1
  H  H71  1  0.07254700  0.31170700  0.10366700  1
  H  H72  1  0.61151000  0.62436200  0.97841500  1
  H  H73  1  0.95106800  0.36866300  0.50527200  1
  H  H74  1  0.80169000  0.12365700  0.88694500  1
  H  H75  1  0.67626700  0.84859500  0.11156000  1
  H  H76  1  0.37968100  0.62097800  0.51382800  1
  H  H77  1  0.92938500  0.18914500  0.89055300  1
  H  H78  1  0.93861200  0.06374000  0.89815800  1
  H  H79  1  0.19831000  0.87634300  0.11305500  1
  H  H80  1  0.32946500  0.61854400  0.00716200  1
  H  H81  1  0.67538700  0.09310100  0.61373900  1
  H  H82  1  0.06219500  0.06290500  0.60440000  1
  H  H83  1  0.80394700  0.68841400  0.59264700  1
  H  H84  1  0.77748500  0.93456300  0.10442400  1
  H  H85  1  0.08928300  0.12013700  0.50962500  1
  H  H86  1  0.21207100  0.38253400  0.14283400  1
  H  H87  1  0.32946500  0.88145600  0.50716200  1
  N  N88  1  0.90394600  0.12667200  0.91990700  1
  N  N89  1  0.73263800  0.11077800  0.57863800  1
  N  N90  1  0.89066900  0.62223100  0.90968900  1
  N  N91  1  0.90394600  0.37332800  0.41990700  1
  N  N92  1  0.26861800  0.13372800  0.92551000  1
  N  N93  1  0.89066900  0.87776900  0.40968900  1
  N  N94  1  0.09605400  0.87332800  0.08009300  1
  N  N95  1  0.73138200  0.86627200  0.07449000  1
  N  N96  1  0.10933100  0.37776900  0.09031100  1
  N  N97  1  0.26736200  0.88922200  0.42136200  1
  N  N98  1  0.10933100  0.12223100  0.59031100  1
  N  N99  1  0.26736200  0.61077800  0.92136200  1
  N  N100  1  0.73138200  0.63372800  0.57449000  1
  N  N101  1  0.73263800  0.38922200  0.07863800  1
  N  N102  1  0.09605400  0.62667200  0.58009300  1
  N  N103  1  0.26861800  0.36627200  0.42551000  1
  F  F104  1  0.57483300  0.62034200  0.06135700  1
  F  F105  1  0.61634200  0.27285900  0.24881300  1
  F  F106  1  0.93833300  0.52149000  0.12173000  1
  F  F107  1  0.63591700  0.72071700  0.72328000  1
  F  F108  1  0.18223000  0.37366800  0.78825400  1
  F  F109  1  0.18666300  0.78248800  0.77557500  1
  F  F110  1  0.63591700  0.77928300  0.22328000  1
  F  F111  1  0.06166700  0.47851000  0.87827000  1
  F  F112  1  0.06166700  0.02149000  0.37827000  1
  F  F113  1  0.80898200  0.63340100  0.39040500  1
  F  F114  1  0.57483300  0.87965800  0.56135700  1
  F  F115  1  0.80898200  0.86659900  0.89040500  1
  F  F116  1  0.38981100  0.02103000  0.76133600  1
  F  F117  1  0.03737100  0.77079400  0.86545000  1
  F  F118  1  0.34811400  0.88908500  0.06795600  1
  F  F119  1  0.34811400  0.61091500  0.56795600  1
  F  F120  1  0.93500500  0.72762300  0.12062400  1
  F  F121  1  0.35558000  0.52628300  0.76586500  1
  F  F122  1  0.93500500  0.77237700  0.62062400  1
  F  F123  1  0.80916300  0.03581600  0.21709200  1
  F  F124  1  0.42843000  0.87629200  0.64801000  1
  F  F125  1  0.36311200  0.12974800  0.58004600  1
  F  F126  1  0.38981100  0.47897000  0.26133600  1
  F  F127  1  0.64442000  0.02628300  0.73413500  1
  F  F128  1  0.81333700  0.21751200  0.22442500  1
  F  F129  1  0.36311200  0.37025200  0.08004600  1
  F  F130  1  0.38365800  0.77285900  0.25118700  1
  F  F131  1  0.65188600  0.11091500  0.93204400  1
  F  F132  1  0.03196200  0.52093100  0.36301000  1
  F  F133  1  0.36408300  0.27928300  0.27672000  1
  F  F134  1  0.63688800  0.87025200  0.41995400  1
  F  F135  1  0.81777000  0.87366800  0.71174600  1
  F  F136  1  0.38365800  0.72714100  0.75118700  1
  F  F137  1  0.64442000  0.47371700  0.23413500  1
  F  F138  1  0.81333700  0.28248800  0.72442500  1
  F  F139  1  0.06499500  0.22762300  0.37937600  1
  F  F140  1  0.43128700  0.37206200  0.65391900  1
  F  F141  1  0.41807600  0.63175300  0.43306900  1
  F  F142  1  0.18666300  0.71751200  0.27557500  1
  F  F143  1  0.93833300  0.97851000  0.62173000  1
  F  F144  1  0.65188600  0.38908500  0.43204400  1
  F  F145  1  0.41807600  0.86824700  0.93306900  1
  F  F146  1  0.96262900  0.22920600  0.13455000  1
  F  F147  1  0.81777000  0.62633200  0.21174600  1
  F  F148  1  0.56871300  0.62793800  0.34608100  1
  F  F149  1  0.82021200  0.37886600  0.89343600  1
  F  F150  1  0.96803800  0.02093100  0.13699000  1
  F  F151  1  0.19083700  0.96418400  0.78290800  1
  F  F152  1  0.42843000  0.62370800  0.14801000  1
  F  F153  1  0.19101800  0.13340100  0.10959500  1
  F  F154  1  0.42516700  0.37965800  0.93864300  1
  F  F155  1  0.61018900  0.52103000  0.73866400  1
  F  F156  1  0.56871300  0.87206200  0.84608100  1
  F  F157  1  0.03737100  0.72920600  0.36545000  1
  F  F158  1  0.58192400  0.36824700  0.56693100  1
  F  F159  1  0.43128700  0.12793800  0.15391900  1
  F  F160  1  0.61634200  0.22714100  0.74881300  1
  F  F161  1  0.96262900  0.27079400  0.63455000  1
  F  F162  1  0.57157000  0.37629200  0.85199000  1
  F  F163  1  0.19101800  0.36659900  0.60959500  1
  F  F164  1  0.63688800  0.62974800  0.91995400  1
  F  F165  1  0.19083700  0.53581600  0.28290800  1
  F  F166  1  0.03196200  0.97906900  0.86301000  1
  F  F167  1  0.57157000  0.12370800  0.35199000  1
  F  F168  1  0.82021200  0.12113400  0.39343600  1
  F  F169  1  0.17978800  0.87886600  0.60656400  1
  F  F170  1  0.42516700  0.12034200  0.43864300  1
  F  F171  1  0.18223000  0.12633200  0.28825400  1
  F  F172  1  0.61018900  0.97897000  0.23866400  1
  F  F173  1  0.58192400  0.13175300  0.06693100  1
  F  F174  1  0.80916300  0.46418400  0.71709200  1
  F  F175  1  0.35558000  0.97371700  0.26586500  1
  F  F176  1  0.06499500  0.27237700  0.87937600  1
  F  F177  1  0.96803800  0.47906900  0.63699000  1
  F  F178  1  0.36408300  0.22071700  0.77672000  1
  F  F179  1  0.17978800  0.62113400  0.10656400  1
