# generated using pymatgen
data_NaBiS2
_symmetry_space_group_name_H-M   'P 1'
_cell_length_a   8.14123400
_cell_length_b   8.17116800
_cell_length_c   11.79570400
_cell_angle_alpha   90.00000000
_cell_angle_beta   90.00000000
_cell_angle_gamma   90.00000000
_symmetry_Int_Tables_number   1
_chemical_formula_structural   NaBiS2
_chemical_formula_sum   'Na8 Bi8 S16'
_cell_volume   784.69022626
_cell_formula_units_Z   8
loop_
 _symmetry_equiv_pos_site_id
 _symmetry_equiv_pos_as_xyz
  1  'x, y, z'
loop_
 _atom_site_type_symbol
 _atom_site_label
 _atom_site_symmetry_multiplicity
 _atom_site_fract_x
 _atom_site_fract_y
 _atom_site_fract_z
 _atom_site_occupancy
  Na  Na0  1  0.75000000  0.50021600  0.75000000  1
  Na  Na1  1  0.50000000  0.75021600  0.00000000  1
  Na  Na2  1  0.75000000  0.00021600  0.25000000  1
  Na  Na3  1  0.50000000  0.25021600  0.50000000  1
  Na  Na4  1  0.25000000  0.00021600  0.75000000  1
  Na  Na5  1  0.00000000  0.25021600  0.00000000  1
  Na  Na6  1  0.25000000  0.50021600  0.25000000  1
  Na  Na7  1  0.00000000  0.75021600  0.50000000  1
  Bi  Bi8  1  0.50000000  0.23418000  0.00000000  1
  Bi  Bi9  1  0.75000000  0.98418000  0.75000000  1
  Bi  Bi10  1  0.50000000  0.73418000  0.50000000  1
  Bi  Bi11  1  0.75000000  0.48418000  0.25000000  1
  Bi  Bi12  1  0.00000000  0.73418000  0.00000000  1
  Bi  Bi13  1  0.25000000  0.48418000  0.75000000  1
  Bi  Bi14  1  0.00000000  0.23418000  0.50000000  1
  Bi  Bi15  1  0.25000000  0.98418000  0.25000000  1
  S  S16  1  0.00981150  0.76133750  0.24051900  1
  S  S17  1  0.99018850  0.76133750  0.75948100  1
  S  S18  1  0.74018850  0.01133750  0.99051900  1
  S  S19  1  0.25981150  0.01133750  0.00948100  1
  S  S20  1  0.00981150  0.26133750  0.74051900  1
  S  S21  1  0.99018850  0.26133750  0.25948100  1
  S  S22  1  0.74018850  0.51133750  0.49051900  1
  S  S23  1  0.25981150  0.51133750  0.50948100  1
  S  S24  1  0.50981150  0.26133750  0.24051900  1
  S  S25  1  0.49018850  0.26133750  0.75948100  1
  S  S26  1  0.24018850  0.51133750  0.99051900  1
  S  S27  1  0.75981150  0.51133750  0.00948100  1
  S  S28  1  0.50981150  0.76133750  0.74051900  1
  S  S29  1  0.49018850  0.76133750  0.25948100  1
  S  S30  1  0.24018850  0.01133750  0.49051900  1
  S  S31  1  0.75981150  0.01133750  0.50948100  1
