# generated using pymatgen
data_Sr(H2O3)2
_symmetry_space_group_name_H-M   'P 1'
_cell_length_a   7.92743000
_cell_length_b   9.10113800
_cell_length_c   6.11660131
_cell_angle_alpha   90.00000000
_cell_angle_beta   92.99833805
_cell_angle_gamma   90.00000000
_symmetry_Int_Tables_number   1
_chemical_formula_structural   Sr(H2O3)2
_chemical_formula_sum   'Sr4 H16 O24'
_cell_volume   440.70030890
_cell_formula_units_Z   4
loop_
 _symmetry_equiv_pos_site_id
 _symmetry_equiv_pos_as_xyz
  1  'x, y, z'
loop_
 _atom_site_type_symbol
 _atom_site_label
 _atom_site_symmetry_multiplicity
 _atom_site_fract_x
 _atom_site_fract_y
 _atom_site_fract_z
 _atom_site_occupancy
  Sr  Sr0  1  0.50670000  0.69101900  0.25963100  1
  Sr  Sr1  1  0.50670000  0.30898100  0.75963100  1
  Sr  Sr2  1  0.00670000  0.19101900  0.25963100  1
  Sr  Sr3  1  0.00670000  0.80898100  0.75963100  1
  H  H4  1  0.19187600  0.18698000  0.73463800  1
  H  H5  1  0.84072600  0.15688900  0.75758300  1
  H  H6  1  0.84072600  0.84311100  0.25758300  1
  H  H7  1  0.19187600  0.81302000  0.23463800  1
  H  H8  1  0.65703200  0.94967500  0.91899100  1
  H  H9  1  0.65703200  0.05032500  0.41899100  1
  H  H10  1  0.26642750  0.92570650  0.55573400  1
  H  H11  1  0.26642750  0.07429350  0.05573400  1
  H  H12  1  0.69187600  0.68698000  0.73463800  1
  H  H13  1  0.34072600  0.65688900  0.75758300  1
  H  H14  1  0.34072600  0.34311100  0.25758300  1
  H  H15  1  0.69187600  0.31302000  0.23463800  1
  H  H16  1  0.15703200  0.44967500  0.91899100  1
  H  H17  1  0.15703200  0.55032500  0.41899100  1
  H  H18  1  0.76642750  0.42570650  0.55573400  1
  H  H19  1  0.76642750  0.57429350  0.05573400  1
  O  O20  1  0.17219700  0.00681800  0.53092100  1
  O  O21  1  0.84613800  0.07916100  0.88365600  1
  O  O22  1  0.84613800  0.92083900  0.38365600  1
  O  O23  1  0.17219700  0.99318200  0.03092100  1
  O  O24  1  0.24565200  0.14991800  0.58807800  1
  O  O25  1  0.66379900  0.06293700  0.91793600  1
  O  O26  1  0.66379900  0.93706300  0.41793600  1
  O  O27  1  0.24565200  0.85008200  0.08807800  1
  O  O28  1  0.32153950  0.23167050  0.07270900  1
  O  O29  1  0.67273700  0.22023200  0.42657300  1
  O  O30  1  0.67273700  0.77976800  0.92657300  1
  O  O31  1  0.32153950  0.76832950  0.57270900  1
  O  O32  1  0.67219700  0.50681800  0.53092100  1
  O  O33  1  0.34613800  0.57916100  0.88365600  1
  O  O34  1  0.34613800  0.42083900  0.38365600  1
  O  O35  1  0.67219700  0.49318200  0.03092100  1
  O  O36  1  0.74565200  0.64991800  0.58807800  1
  O  O37  1  0.16379900  0.56293700  0.91793600  1
  O  O38  1  0.16379900  0.43706300  0.41793600  1
  O  O39  1  0.74565200  0.35008200  0.08807800  1
  O  O40  1  0.82153950  0.73167050  0.07270900  1
  O  O41  1  0.17273700  0.72023200  0.42657300  1
  O  O42  1  0.17273700  0.27976800  0.92657300  1
  O  O43  1  0.82153950  0.26832950  0.57270900  1
