# generated using pymatgen
data_FeP3(HO2)6
_symmetry_space_group_name_H-M   'P 1'
_cell_length_a   8.62894035
_cell_length_b   8.62894035
_cell_length_c   25.66273162
_cell_angle_alpha   90.00000000
_cell_angle_beta   90.00000000
_cell_angle_gamma   120.00000000
_symmetry_Int_Tables_number   1
_chemical_formula_structural   FeP3(HO2)6
_chemical_formula_sum   'Fe6 P18 H36 O72'
_cell_volume   1654.81118522
_cell_formula_units_Z   6
loop_
 _symmetry_equiv_pos_site_id
 _symmetry_equiv_pos_as_xyz
  1  'x, y, z'
loop_
 _atom_site_type_symbol
 _atom_site_label
 _atom_site_symmetry_multiplicity
 _atom_site_fract_x
 _atom_site_fract_y
 _atom_site_fract_z
 _atom_site_occupancy
  Fe  Fe0  1  0.33333333  0.66666667  0.16666667  1
  Fe  Fe1  1  0.00000000  0.00000000  0.00000000  1
  Fe  Fe2  1  1.00000000  0.00000000  0.50000000  1
  Fe  Fe3  1  0.66666667  0.33333333  0.33333333  1
  Fe  Fe4  1  0.66666667  0.33333333  0.83333333  1
  Fe  Fe5  1  0.33333333  0.66666667  0.66666667  1
  P  P6  1  0.66666667  0.92667933  0.08333333  1
  P  P7  1  0.26001267  0.33333333  0.08333333  1
  P  P8  1  0.00000000  0.40665400  0.25000000  1
  P  P9  1  0.07332067  0.73998733  0.08333333  1
  P  P10  1  0.40665400  0.00000000  0.25000000  1
  P  P11  1  0.59334600  0.59334600  0.25000000  1
  P  P12  1  0.33333333  0.26001267  0.41666667  1
  P  P13  1  0.92667933  0.66666667  0.41666667  1
  P  P14  1  0.66666667  0.73998733  0.58333333  1
  P  P15  1  0.73998733  0.07332067  0.41666667  1
  P  P16  1  0.07332067  0.33333333  0.58333333  1
  P  P17  1  0.26001267  0.92667933  0.58333333  1
  P  P18  1  0.00000000  0.59334600  0.75000000  1
  P  P19  1  0.59334600  0.00000000  0.75000000  1
  P  P20  1  0.33333333  0.07332067  0.91666667  1
  P  P21  1  0.40665400  0.40665400  0.75000000  1
  P  P22  1  0.73998733  0.66666667  0.91666667  1
  P  P23  1  0.92667933  0.26001267  0.91666667  1
  H  H24  1  0.83582533  0.75236767  0.10036067  1
  H  H25  1  0.75012433  0.16915867  0.23297267  1
  H  H26  1  0.91654233  0.16417467  0.10036067  1
  H  H27  1  0.24763233  0.08345767  0.10036067  1
  H  H28  1  0.58096567  0.83084133  0.26702733  1
  H  H29  1  0.16915867  0.75012433  0.26702733  1
  H  H30  1  0.83084133  0.58096567  0.23297267  1
  H  H31  1  0.41903433  0.24987567  0.23297267  1
  H  H32  1  0.41679100  0.91429900  0.06630600  1
  H  H33  1  0.24987567  0.41903433  0.26702733  1
  H  H34  1  0.08570100  0.50249200  0.06630600  1
  H  H35  1  0.49750800  0.58320900  0.06630600  1
  H  H36  1  0.50249200  0.08570100  0.43369400  1
  H  H37  1  0.41679100  0.50249200  0.56630600  1
  H  H38  1  0.58320900  0.49750800  0.43369400  1
  H  H39  1  0.91429900  0.41679100  0.43369400  1
  H  H40  1  0.24763233  0.16417467  0.60036067  1
  H  H41  1  0.83582533  0.08345767  0.60036067  1
  H  H42  1  0.49750800  0.91429900  0.56630600  1
  H  H43  1  0.08570100  0.58320900  0.56630600  1
  H  H44  1  0.08345767  0.24763233  0.39963933  1
  H  H45  1  0.91654233  0.75236767  0.60036067  1
  H  H46  1  0.75236767  0.83582533  0.39963933  1
  H  H47  1  0.16417467  0.91654233  0.39963933  1
  H  H48  1  0.16915867  0.41903433  0.76702733  1
  H  H49  1  0.08345767  0.83582533  0.89963933  1
  H  H50  1  0.24987567  0.83084133  0.76702733  1
  H  H51  1  0.58096567  0.75012433  0.76702733  1
  H  H52  1  0.91429900  0.49750800  0.93369400  1
  H  H53  1  0.50249200  0.41679100  0.93369400  1
  H  H54  1  0.16417467  0.24763233  0.89963933  1
  H  H55  1  0.75236767  0.91654233  0.89963933  1
  H  H56  1  0.75012433  0.58096567  0.73297267  1
  H  H57  1  0.58320900  0.08570100  0.93369400  1
  H  H58  1  0.41903433  0.16915867  0.73297267  1
  H  H59  1  0.83084133  0.24987567  0.73297267  1
  O  O60  1  0.79541000  0.09898900  0.11543400  1
  O  O61  1  0.87125667  0.23434433  0.21789933  1
  O  O62  1  0.02975433  0.56767767  0.05123267  1
  O  O63  1  0.11237900  0.56549300  0.21366100  1
  O  O64  1  0.54688600  0.43450700  0.28633900  1
  O  O65  1  0.55428767  0.76784033  0.11967233  1
  O  O66  1  0.53792333  0.97024567  0.05123267  1
  O  O67  1  0.63691233  0.76565567  0.28210067  1
  O  O68  1  0.43232233  0.46207667  0.05123267  1
  O  O69  1  0.88762100  0.45311400  0.28633900  1
  O  O70  1  0.30357900  0.20459000  0.11543400  1
  O  O71  1  0.56549300  0.11237900  0.28633900  1
  O  O72  1  0.10117367  0.22095433  0.04699433  1
  O  O73  1  0.43450700  0.54688600  0.21366100  1
  O  O74  1  0.76565567  0.63691233  0.21789933  1
  O  O75  1  0.12874333  0.36308767  0.28210067  1
  O  O76  1  0.23215967  0.78644733  0.11967233  1
  O  O77  1  0.11978067  0.89882633  0.04699433  1
  O  O78  1  0.36308767  0.12874333  0.21789933  1
  O  O79  1  0.77904567  0.88021933  0.04699433  1
  O  O80  1  0.21355267  0.44571233  0.11967233  1
  O  O81  1  0.45311400  0.88762100  0.21366100  1
  O  O82  1  0.90101100  0.69642100  0.11543400  1
  O  O83  1  0.23434433  0.87125667  0.28210067  1
  O  O84  1  0.46207667  0.43232233  0.44876733  1
  O  O85  1  0.53792333  0.56767767  0.55123267  1
  O  O86  1  0.69642100  0.90101100  0.38456600  1
  O  O87  1  0.77904567  0.89882633  0.54699433  1
  O  O88  1  0.21355267  0.76784033  0.61967233  1
  O  O89  1  0.22095433  0.10117367  0.45300567  1
  O  O90  1  0.20459000  0.30357900  0.38456600  1
  O  O91  1  0.30357900  0.09898900  0.61543400  1
  O  O92  1  0.09898900  0.79541000  0.38456600  1
  O  O93  1  0.55428767  0.78644733  0.61967233  1
  O  O94  1  0.97024567  0.53792333  0.44876733  1
  O  O95  1  0.23215967  0.44571233  0.61967233  1
  O  O96  1  0.76784033  0.55428767  0.38032767  1
  O  O97  1  0.10117367  0.88021933  0.54699433  1
  O  O98  1  0.43232233  0.97024567  0.55123267  1
  O  O99  1  0.79541000  0.69642100  0.61543400  1
  O  O100  1  0.89882633  0.11978067  0.45300567  1
  O  O101  1  0.78644733  0.23215967  0.38032767  1
  O  O102  1  0.02975433  0.46207667  0.55123267  1
  O  O103  1  0.44571233  0.21355267  0.38032767  1
  O  O104  1  0.88021933  0.77904567  0.45300567  1
  O  O105  1  0.11978067  0.22095433  0.54699433  1
  O  O106  1  0.56767767  0.02975433  0.44876733  1
  O  O107  1  0.90101100  0.20459000  0.61543400  1
  O  O108  1  0.12874333  0.76565567  0.78210067  1
  O  O109  1  0.20459000  0.90101100  0.88456600  1
  O  O110  1  0.36308767  0.23434433  0.71789933  1
  O  O111  1  0.44571233  0.23215967  0.88032767  1
  O  O112  1  0.88021933  0.10117367  0.95300567  1
  O  O113  1  0.88762100  0.43450700  0.78633900  1
  O  O114  1  0.87125667  0.63691233  0.71789933  1
  O  O115  1  0.97024567  0.43232233  0.94876733  1
  O  O116  1  0.76565567  0.12874333  0.71789933  1
  O  O117  1  0.22095433  0.11978067  0.95300567  1
  O  O118  1  0.63691233  0.87125667  0.78210067  1
  O  O119  1  0.89882633  0.77904567  0.95300567  1
  O  O120  1  0.43450700  0.88762100  0.71366100  1
  O  O121  1  0.76784033  0.21355267  0.88032767  1
  O  O122  1  0.09898900  0.30357900  0.88456600  1
  O  O123  1  0.46207667  0.02975433  0.94876733  1
  O  O124  1  0.56549300  0.45311400  0.78633900  1
  O  O125  1  0.45311400  0.56549300  0.71366100  1
  O  O126  1  0.69642100  0.79541000  0.88456600  1
  O  O127  1  0.11237900  0.54688600  0.71366100  1
  O  O128  1  0.54688600  0.11237900  0.78633900  1
  O  O129  1  0.78644733  0.55428767  0.88032767  1
  O  O130  1  0.23434433  0.36308767  0.78210067  1
  O  O131  1  0.56767767  0.53792333  0.94876733  1
