# generated using pymatgen
data_SiO2
_symmetry_space_group_name_H-M   'P 1'
_cell_length_a   7.19589900
_cell_length_b   7.19589900
_cell_length_c   8.89646200
_cell_angle_alpha   90.00000000
_cell_angle_beta   90.00000000
_cell_angle_gamma   90.00000000
_symmetry_Int_Tables_number   1
_chemical_formula_structural   SiO2
_chemical_formula_sum   'Si8 O16'
_cell_volume   460.66736448
_cell_formula_units_Z   8
loop_
 _symmetry_equiv_pos_site_id
 _symmetry_equiv_pos_as_xyz
  1  'x, y, z'
loop_
 _atom_site_type_symbol
 _atom_site_label
 _atom_site_symmetry_multiplicity
 _atom_site_fract_x
 _atom_site_fract_y
 _atom_site_fract_z
 _atom_site_occupancy
  Si  Si0  1  0.78182800  0.50000000  0.18080500  1
  Si  Si1  1  0.50000000  0.78182800  0.68080500  1
  Si  Si2  1  0.50000000  0.21817200  0.68080500  1
  Si  Si3  1  0.78182800  0.50000000  0.81919500  1
  Si  Si4  1  0.21817200  0.50000000  0.81919500  1
  Si  Si5  1  0.21817200  0.50000000  0.18080500  1
  Si  Si6  1  0.50000000  0.78182800  0.31919500  1
  Si  Si7  1  0.50000000  0.21817200  0.31919500  1
  O  O8  1  0.68594400  0.31405600  0.25000000  1
  O  O9  1  0.68594400  0.68594400  0.75000000  1
  O  O10  1  0.31405600  0.31405600  0.75000000  1
  O  O11  1  0.31405600  0.68594400  0.25000000  1
  O  O12  1  0.31405600  0.68594400  0.75000000  1
  O  O13  1  0.31405600  0.31405600  0.25000000  1
  O  O14  1  0.68594400  0.68594400  0.25000000  1
  O  O15  1  0.68594400  0.31405600  0.75000000  1
  O  O16  1  0.75521700  0.50000000  0.00000000  1
  O  O17  1  0.50000000  0.75521700  0.50000000  1
  O  O18  1  0.50000000  0.24478300  0.50000000  1
  O  O19  1  0.24478300  0.50000000  0.00000000  1
  O  O20  1  0.00000000  0.50000000  0.22473200  1
  O  O21  1  0.50000000  0.00000000  0.72473200  1
  O  O22  1  0.00000000  0.50000000  0.77526800  1
  O  O23  1  0.50000000  0.00000000  0.27526800  1
