# generated using pymatgen
data_Si4Ag10O13
_symmetry_space_group_name_H-M   'P 1'
_cell_length_a   8.11205484
_cell_length_b   9.38491756
_cell_length_c   11.60167664
_cell_angle_alpha   113.40783524
_cell_angle_beta   98.37314220
_cell_angle_gamma   100.57526474
_symmetry_Int_Tables_number   1
_chemical_formula_structural   Si4Ag10O13
_chemical_formula_sum   'Si8 Ag20 O26'
_cell_volume   773.05667833
_cell_formula_units_Z   2
loop_
 _symmetry_equiv_pos_site_id
 _symmetry_equiv_pos_as_xyz
  1  'x, y, z'
loop_
 _atom_site_type_symbol
 _atom_site_label
 _atom_site_symmetry_multiplicity
 _atom_site_fract_x
 _atom_site_fract_y
 _atom_site_fract_z
 _atom_site_occupancy
  Si  Si0  1  0.77886156  0.66530561  0.75542719  1
  Si  Si1  1  0.22113844  0.33469439  0.24457281  1
  Si  Si2  1  0.26795729  0.67439286  0.24502348  1
  Si  Si3  1  0.55730039  0.23411981  0.25032414  1
  Si  Si4  1  0.91665797  0.77229190  0.25132241  1
  Si  Si5  1  0.73204271  0.32560714  0.75497652  1
  Si  Si6  1  0.44269961  0.76588019  0.74967586  1
  Si  Si7  1  0.08334203  0.22770810  0.74867759  1
  Ag  Ag8  1  0.11075443  0.95212531  0.64163894  1
  Ag  Ag9  1  0.15912817  0.49259730  0.91663631  1
  Ag  Ag10  1  0.57662989  0.96305885  0.16101133  1
  Ag  Ag11  1  0.33406563  0.93879147  0.43272760  1
  Ag  Ag12  1  0.21382199  0.10112661  0.07014564  1
  Ag  Ag13  1  0.15082733  0.80284829  0.92860272  1
  Ag  Ag14  1  0.32019999  0.50947087  0.56951264  1
  Ag  Ag15  1  0.84917267  0.19715171  0.07139728  1
  Ag  Ag16  1  0.84087183  0.50740270  0.08336369  1
  Ag  Ag17  1  0.67980001  0.49052913  0.43048736  1
  Ag  Ag18  1  0.78617801  0.89887339  0.92985436  1
  Ag  Ag19  1  0.98599380  0.38931101  0.42905016  1
  Ag  Ag20  1  0.56093187  0.64778852  0.08398790  1
  Ag  Ag21  1  0.43906813  0.35221148  0.91601210  1
  Ag  Ag22  1  0.63293435  0.78920438  0.44799071  1
  Ag  Ag23  1  0.42337011  0.03694115  0.83898867  1
  Ag  Ag24  1  0.66593437  0.06120853  0.56727240  1
  Ag  Ag25  1  0.88924557  0.04787469  0.35836106  1
  Ag  Ag26  1  0.01400620  0.61068899  0.57094984  1
  Ag  Ag27  1  0.36706565  0.21079562  0.55200929  1
  O  O28  1  0.59473539  0.36329539  0.61322510  1
  O  O29  1  0.62004998  0.31772722  0.11444877  1
  O  O30  1  0.72455035  0.20488247  0.37707431  1
  O  O31  1  0.35635313  0.77016013  0.12341382  1
  O  O32  1  0.83066896  0.49590089  0.76345424  1
  O  O33  1  0.88385838  0.68903387  0.89020255  1
  O  O34  1  0.18583255  0.08935352  0.87932113  1
  O  O35  1  0.27544965  0.79511753  0.62292569  1
  O  O36  1  0.64364687  0.22983987  0.87658618  1
  O  O37  1  0.40526461  0.63670461  0.38677490  1
  O  O38  1  0.43332635  0.35618933  0.25489660  1
  O  O39  1  0.16933104  0.50409911  0.23654576  1
  O  O40  1  0.11614162  0.31096613  0.10979745  1
  O  O41  1  0.81416745  0.91064648  0.12067887  1
  O  O42  1  0.17464133  0.19350000  0.37313711  1
  O  O43  1  0.82535867  0.80650000  0.62686289  1
  O  O44  1  0.18342135  0.40368791  0.73465213  1
  O  O45  1  0.56173786  0.93249749  0.74388386  1
  O  O46  1  0.93356105  0.80962680  0.38038695  1
  O  O47  1  0.11286832  0.77691997  0.23175828  1
  O  O48  1  0.88713168  0.22308003  0.76824172  1
  O  O49  1  0.37995002  0.68227278  0.88555123  1
  O  O50  1  0.06643895  0.19037320  0.61961305  1
  O  O51  1  0.81657865  0.59631209  0.26534787  1
  O  O52  1  0.43826214  0.06750251  0.25611614  1
  O  O53  1  0.56667365  0.64381067  0.74510340  1
