# generated using pymatgen
data_Sn4Sb6S13
_symmetry_space_group_name_H-M   'P 1'
_cell_length_a   33.75630000
_cell_length_b   3.83342400
_cell_length_c   24.94199032
_cell_angle_alpha   90.00000000
_cell_angle_beta   131.88560059
_cell_angle_gamma   90.00000000
_symmetry_Int_Tables_number   1
_chemical_formula_structural   Sn4Sb6S13
_chemical_formula_sum   'Sn16 Sb24 S52'
_cell_volume   2402.84337945
_cell_formula_units_Z   4
loop_
 _symmetry_equiv_pos_site_id
 _symmetry_equiv_pos_as_xyz
  1  'x, y, z'
loop_
 _atom_site_type_symbol
 _atom_site_label
 _atom_site_symmetry_multiplicity
 _atom_site_fract_x
 _atom_site_fract_y
 _atom_site_fract_z
 _atom_site_occupancy
  Sn  Sn0  1  0.80172400  0.00000000  0.10151400  1
  Sn  Sn1  1  0.35371800  0.00000000  0.83676800  1
  Sn  Sn2  1  0.07095600  0.50000000  0.69654700  1
  Sn  Sn3  1  0.95221800  0.50000000  0.51133700  1
  Sn  Sn4  1  0.04778200  0.50000000  0.48866300  1
  Sn  Sn5  1  0.92904400  0.50000000  0.30345300  1
  Sn  Sn6  1  0.19827600  0.00000000  0.89848600  1
  Sn  Sn7  1  0.64628200  0.00000000  0.16323200  1
  Sn  Sn8  1  0.30172400  0.50000000  0.10151400  1
  Sn  Sn9  1  0.85371800  0.50000000  0.83676800  1
  Sn  Sn10  1  0.57095600  0.00000000  0.69654700  1
  Sn  Sn11  1  0.45221800  0.00000000  0.51133700  1
  Sn  Sn12  1  0.54778200  0.00000000  0.48866300  1
  Sn  Sn13  1  0.42904400  0.00000000  0.30345300  1
  Sn  Sn14  1  0.69827600  0.50000000  0.89848600  1
  Sn  Sn15  1  0.14628200  0.50000000  0.16323200  1
  Sb  Sb16  1  0.67206100  0.00000000  0.33202100  1
  Sb  Sb17  1  0.32793900  0.00000000  0.66797900  1
  Sb  Sb18  1  0.17867600  0.00000000  0.69300600  1
  Sb  Sb19  1  0.01135800  0.50000000  0.09637400  1
  Sb  Sb20  1  0.98864200  0.50000000  0.90362600  1
  Sb  Sb21  1  0.82132400  0.00000000  0.30699400  1
  Sb  Sb22  1  0.13240300  0.00000000  0.99295900  1
  Sb  Sb23  1  0.97263800  0.00000000  0.75115100  1
  Sb  Sb24  1  0.02736200  0.00000000  0.24884900  1
  Sb  Sb25  1  0.14409400  0.00000000  0.47770100  1
  Sb  Sb26  1  0.85590600  0.00000000  0.52229900  1
  Sb  Sb27  1  0.86759700  0.00000000  0.00704100  1
  Sb  Sb28  1  0.17206100  0.50000000  0.33202100  1
  Sb  Sb29  1  0.82793900  0.50000000  0.66797900  1
  Sb  Sb30  1  0.67867600  0.50000000  0.69300600  1
  Sb  Sb31  1  0.51135800  0.00000000  0.09637400  1
  Sb  Sb32  1  0.48864200  0.00000000  0.90362600  1
  Sb  Sb33  1  0.32132400  0.50000000  0.30699400  1
  Sb  Sb34  1  0.63240300  0.50000000  0.99295900  1
  Sb  Sb35  1  0.47263800  0.50000000  0.75115100  1
  Sb  Sb36  1  0.52736200  0.50000000  0.24884900  1
  Sb  Sb37  1  0.64409400  0.50000000  0.47770100  1
  Sb  Sb38  1  0.35590600  0.50000000  0.52229900  1
  Sb  Sb39  1  0.36759700  0.50000000  0.00704100  1
  S  S40  1  0.07636500  0.00000000  0.20282000  1
  S  S41  1  0.28923100  0.50000000  0.75755500  1
  S  S42  1  0.81364700  0.50000000  0.04188200  1
  S  S43  1  0.71076900  0.50000000  0.24244500  1
  S  S44  1  0.18635300  0.50000000  0.95811800  1
  S  S45  1  0.32012700  0.00000000  0.91100900  1
  S  S46  1  0.94226000  0.00000000  0.00073000  1
  S  S47  1  0.91973600  0.00000000  0.40565100  1
  S  S48  1  0.91213400  0.00000000  0.21812300  1
  S  S49  1  0.03661900  0.50000000  0.85632100  1
  S  S50  1  0.95251200  0.00000000  0.59562800  1
  S  S51  1  0.84645500  0.50000000  0.44123100  1
  S  S52  1  0.08026400  0.00000000  0.59434900  1
  S  S53  1  0.10397500  0.50000000  0.34609500  1
  S  S54  1  0.89602500  0.50000000  0.65390500  1
  S  S55  1  0.05774000  0.00000000  0.99927000  1
  S  S56  1  0.17823400  0.50000000  0.76319100  1
  S  S57  1  0.08786600  0.00000000  0.78187700  1
  S  S58  1  0.67987300  0.00000000  0.08899100  1
  S  S59  1  0.27655000  0.50000000  0.57768600  1
  S  S60  1  0.82176600  0.50000000  0.23680900  1
  S  S61  1  0.04748800  0.00000000  0.40437200  1
  S  S62  1  0.72345000  0.50000000  0.42231400  1
  S  S63  1  0.96338100  0.50000000  0.14367900  1
  S  S64  1  0.92363500  0.00000000  0.79718000  1
  S  S65  1  0.15354500  0.50000000  0.55876900  1
  S  S66  1  0.57636500  0.50000000  0.20282000  1
  S  S67  1  0.78923100  0.00000000  0.75755500  1
  S  S68  1  0.31364700  0.00000000  0.04188200  1
  S  S69  1  0.21076900  0.00000000  0.24244500  1
  S  S70  1  0.68635300  0.00000000  0.95811800  1
  S  S71  1  0.82012700  0.50000000  0.91100900  1
  S  S72  1  0.44226000  0.50000000  0.00073000  1
  S  S73  1  0.41973600  0.50000000  0.40565100  1
  S  S74  1  0.41213400  0.50000000  0.21812300  1
  S  S75  1  0.53661900  0.00000000  0.85632100  1
  S  S76  1  0.45251200  0.50000000  0.59562800  1
  S  S77  1  0.34645500  0.00000000  0.44123100  1
  S  S78  1  0.58026400  0.50000000  0.59434900  1
  S  S79  1  0.60397500  0.00000000  0.34609500  1
  S  S80  1  0.39602500  0.00000000  0.65390500  1
  S  S81  1  0.55774000  0.50000000  0.99927000  1
  S  S82  1  0.67823400  0.00000000  0.76319100  1
  S  S83  1  0.58786600  0.50000000  0.78187700  1
  S  S84  1  0.17987300  0.50000000  0.08899100  1
  S  S85  1  0.77655000  0.00000000  0.57768600  1
  S  S86  1  0.32176600  0.00000000  0.23680900  1
  S  S87  1  0.54748800  0.50000000  0.40437200  1
  S  S88  1  0.22345000  0.00000000  0.42231400  1
  S  S89  1  0.46338100  0.00000000  0.14367900  1
  S  S90  1  0.42363500  0.50000000  0.79718000  1
  S  S91  1  0.65354500  0.00000000  0.55876900  1
