# generated using pymatgen
data_NaP(HO)6
_symmetry_space_group_name_H-M   'P 1'
_cell_length_a   6.69630600
_cell_length_b   7.25128400
_cell_length_c   11.40523400
_cell_angle_alpha   90.00000000
_cell_angle_beta   90.00000000
_cell_angle_gamma   90.00000000
_symmetry_Int_Tables_number   1
_chemical_formula_structural   NaP(HO)6
_chemical_formula_sum   'Na4 P4 H24 O24'
_cell_volume   553.80185513
_cell_formula_units_Z   4
loop_
 _symmetry_equiv_pos_site_id
 _symmetry_equiv_pos_as_xyz
  1  'x, y, z'
loop_
 _atom_site_type_symbol
 _atom_site_label
 _atom_site_symmetry_multiplicity
 _atom_site_fract_x
 _atom_site_fract_y
 _atom_site_fract_z
 _atom_site_occupancy
  Na  Na0  1  0.72002400  0.61296900  0.92100000  1
  Na  Na1  1  0.22002400  0.88703100  0.07900000  1
  Na  Na2  1  0.27997600  0.11296900  0.57900000  1
  Na  Na3  1  0.77997600  0.38703100  0.42100000  1
  P  P4  1  0.54477200  0.28134800  0.15073500  1
  P  P5  1  0.04477200  0.21865200  0.84926500  1
  P  P6  1  0.45522800  0.78134800  0.34926500  1
  P  P7  1  0.95522800  0.71865200  0.65073500  1
  H  H8  1  0.51631900  0.59457300  0.15471800  1
  H  H9  1  0.01631900  0.90542700  0.84528200  1
  H  H10  1  0.48368100  0.09457300  0.34528200  1
  H  H11  1  0.98368100  0.40542700  0.65471800  1
  H  H12  1  0.27960800  0.26665800  0.03124900  1
  H  H13  1  0.77960800  0.23334200  0.96875100  1
  H  H14  1  0.72039200  0.76665800  0.46875100  1
  H  H15  1  0.22039200  0.73334200  0.53124900  1
  H  H16  1  0.85100100  0.01742200  0.18087500  1
  H  H17  1  0.35100100  0.48257800  0.81912500  1
  H  H18  1  0.14899900  0.51742200  0.31912500  1
  H  H19  1  0.64899900  0.98257800  0.68087500  1
  H  H20  1  0.88775200  0.84327000  0.25803700  1
  H  H21  1  0.38775200  0.65673000  0.74196300  1
  H  H22  1  0.11224800  0.34327000  0.24196300  1
  H  H23  1  0.61224800  0.15673000  0.75803700  1
  H  H24  1  0.59662500  0.97964600  0.00359600  1
  H  H25  1  0.09662500  0.52035400  0.99640400  1
  H  H26  1  0.40337500  0.47964600  0.49640400  1
  H  H27  1  0.90337500  0.02035400  0.50359600  1
  H  H28  1  0.51113900  0.93645400  0.87873600  1
  H  H29  1  0.01113900  0.56354600  0.12126400  1
  H  H30  1  0.48886100  0.43645400  0.62126400  1
  H  H31  1  0.98886100  0.06354600  0.37873600  1
  O  O32  1  0.55469800  0.26531300  0.28304100  1
  O  O33  1  0.05469800  0.23468700  0.71695900  1
  O  O34  1  0.44530200  0.76531300  0.21695900  1
  O  O35  1  0.94530200  0.73468700  0.78304100  1
  O  O36  1  0.69974000  0.16443200  0.08494200  1
  O  O37  1  0.19974000  0.33556800  0.91505800  1
  O  O38  1  0.30026000  0.66443200  0.41505800  1
  O  O39  1  0.80026000  0.83556800  0.58494200  1
  O  O40  1  0.57308500  0.48614000  0.10498100  1
  O  O41  1  0.07308500  0.01386000  0.89501900  1
  O  O42  1  0.42691500  0.98614000  0.39501900  1
  O  O43  1  0.92691500  0.51386000  0.60498100  1
  O  O44  1  0.32333700  0.22015000  0.11352200  1
  O  O45  1  0.82333700  0.27985000  0.88647800  1
  O  O46  1  0.67666300  0.72015000  0.38647800  1
  O  O47  1  0.17666300  0.77985000  0.61352200  1
  O  O48  1  0.95683300  0.95022100  0.22473500  1
  O  O49  1  0.45683300  0.54977900  0.77526500  1
  O  O50  1  0.04316700  0.45022100  0.27526500  1
  O  O51  1  0.54316700  0.04977900  0.72473500  1
  O  O52  1  0.52614700  0.88256200  0.95782500  1
  O  O53  1  0.02614700  0.61743800  0.04217500  1
  O  O54  1  0.47385300  0.38256200  0.54217500  1
  O  O55  1  0.97385300  0.11743800  0.45782500  1
