# generated using pymatgen
data_Na2La2Ti3O10
_symmetry_space_group_name_H-M   'P 1'
_cell_length_a   3.87136200
_cell_length_b   3.87136200
_cell_length_c   28.87842400
_cell_angle_alpha   90.00000000
_cell_angle_beta   90.00000000
_cell_angle_gamma   90.00000000
_symmetry_Int_Tables_number   1
_chemical_formula_structural   Na2La2Ti3O10
_chemical_formula_sum   'Na4 La4 Ti6 O20'
_cell_volume   432.81375486
_cell_formula_units_Z   2
loop_
 _symmetry_equiv_pos_site_id
 _symmetry_equiv_pos_as_xyz
  1  'x, y, z'
loop_
 _atom_site_type_symbol
 _atom_site_label
 _atom_site_symmetry_multiplicity
 _atom_site_fract_x
 _atom_site_fract_y
 _atom_site_fract_z
 _atom_site_occupancy
  Na  Na0  1  0.50000000  0.50000000  0.21177800  1
  Na  Na1  1  0.00000000  0.00000000  0.28822200  1
  Na  Na2  1  0.00000000  0.00000000  0.71177800  1
  Na  Na3  1  0.50000000  0.50000000  0.78822200  1
  La  La4  1  0.50000000  0.50000000  0.07527700  1
  La  La5  1  0.00000000  0.00000000  0.42472300  1
  La  La6  1  0.00000000  0.00000000  0.57527700  1
  La  La7  1  0.50000000  0.50000000  0.92472300  1
  Ti  Ti8  1  0.50000000  0.50000000  0.35219600  1
  Ti  Ti9  1  0.00000000  0.00000000  0.14780400  1
  Ti  Ti10  1  0.00000000  0.00000000  0.00000000  1
  Ti  Ti11  1  0.00000000  0.00000000  0.85219600  1
  Ti  Ti12  1  0.50000000  0.50000000  0.64780400  1
  Ti  Ti13  1  0.50000000  0.50000000  0.50000000  1
  O  O14  1  0.50000000  0.00000000  0.36674700  1
  O  O15  1  0.00000000  0.50000000  0.36674700  1
  O  O16  1  0.00000000  0.50000000  0.13325300  1
  O  O17  1  0.50000000  0.00000000  0.13325300  1
  O  O18  1  0.50000000  0.50000000  0.29138100  1
  O  O19  1  0.00000000  0.00000000  0.20861900  1
  O  O20  1  0.00000000  0.50000000  0.00000000  1
  O  O21  1  0.00000000  0.00000000  0.06734300  1
  O  O22  1  0.50000000  0.50000000  0.43265700  1
  O  O23  1  0.50000000  0.00000000  0.00000000  1
  O  O24  1  0.00000000  0.50000000  0.86674700  1
  O  O25  1  0.50000000  0.00000000  0.86674700  1
  O  O26  1  0.50000000  0.00000000  0.63325300  1
  O  O27  1  0.00000000  0.50000000  0.63325300  1
  O  O28  1  0.00000000  0.00000000  0.79138100  1
  O  O29  1  0.50000000  0.50000000  0.70861900  1
  O  O30  1  0.50000000  0.00000000  0.50000000  1
  O  O31  1  0.50000000  0.50000000  0.56734300  1
  O  O32  1  0.00000000  0.00000000  0.93265700  1
  O  O33  1  0.00000000  0.50000000  0.50000000  1
