# generated using pymatgen
data_CdH2SeO4
_symmetry_space_group_name_H-M   'P 1'
_cell_length_a   5.11912800
_cell_length_b   6.04475700
_cell_length_c   13.43150100
_cell_angle_alpha   90.00000000
_cell_angle_beta   90.00000000
_cell_angle_gamma   90.00000000
_symmetry_Int_Tables_number   1
_chemical_formula_structural   CdH2SeO4
_chemical_formula_sum   'Cd4 H8 Se4 O16'
_cell_volume   415.62281979
_cell_formula_units_Z   4
loop_
 _symmetry_equiv_pos_site_id
 _symmetry_equiv_pos_as_xyz
  1  'x, y, z'
loop_
 _atom_site_type_symbol
 _atom_site_label
 _atom_site_symmetry_multiplicity
 _atom_site_fract_x
 _atom_site_fract_y
 _atom_site_fract_z
 _atom_site_occupancy
  Cd  Cd0  1  0.09801000  0.25000000  0.22802900  1
  Cd  Cd1  1  0.40199000  0.25000000  0.72802900  1
  Cd  Cd2  1  0.90199000  0.75000000  0.77197100  1
  Cd  Cd3  1  0.59801000  0.75000000  0.27197100  1
  H  H4  1  0.53723300  0.12114200  0.11062700  1
  H  H5  1  0.96276700  0.37885800  0.61062700  1
  H  H6  1  0.46276700  0.62114200  0.88937300  1
  H  H7  1  0.03723300  0.87885800  0.38937300  1
  H  H8  1  0.46276700  0.87885800  0.88937300  1
  H  H9  1  0.03723300  0.62114200  0.38937300  1
  H  H10  1  0.53723300  0.37885800  0.11062700  1
  H  H11  1  0.96276700  0.12114200  0.61062700  1
  Se  Se12  1  0.01021400  0.75000000  0.09277700  1
  Se  Se13  1  0.48978600  0.75000000  0.59277700  1
  Se  Se14  1  0.98978600  0.25000000  0.90722300  1
  Se  Se15  1  0.51021400  0.25000000  0.40722300  1
  O  O16  1  0.82090600  0.25000000  0.36493200  1
  O  O17  1  0.67909400  0.25000000  0.86493200  1
  O  O18  1  0.17909400  0.75000000  0.63506800  1
  O  O19  1  0.32090600  0.75000000  0.13506800  1
  O  O20  1  0.85740400  0.53207600  0.15871700  1
  O  O21  1  0.64259600  0.96792400  0.65871700  1
  O  O22  1  0.14259600  0.03207600  0.84128300  1
  O  O23  1  0.35740400  0.46792400  0.34128300  1
  O  O24  1  0.14259600  0.46792400  0.84128300  1
  O  O25  1  0.35740400  0.03207600  0.34128300  1
  O  O26  1  0.85740400  0.96792400  0.15871700  1
  O  O27  1  0.64259600  0.53207600  0.65871700  1
  O  O28  1  0.42066200  0.25000000  0.10229900  1
  O  O29  1  0.07933800  0.25000000  0.60229900  1
  O  O30  1  0.57933800  0.75000000  0.89770100  1
  O  O31  1  0.92066200  0.75000000  0.39770100  1
