# generated using pymatgen
data_SiO2
_symmetry_space_group_name_H-M   'P 1'
_cell_length_a   5.29065000
_cell_length_b   14.11361800
_cell_length_c   26.18657400
_cell_angle_alpha   90.00000000
_cell_angle_beta   90.00000000
_cell_angle_gamma   90.00000000
_symmetry_Int_Tables_number   1
_chemical_formula_structural   SiO2
_chemical_formula_sum   'Si32 O64'
_cell_volume   1955.35706020
_cell_formula_units_Z   32
loop_
 _symmetry_equiv_pos_site_id
 _symmetry_equiv_pos_as_xyz
  1  'x, y, z'
loop_
 _atom_site_type_symbol
 _atom_site_label
 _atom_site_symmetry_multiplicity
 _atom_site_fract_x
 _atom_site_fract_y
 _atom_site_fract_z
 _atom_site_occupancy
  Si  Si0  1  0.00000000  0.63908700  0.78382100  1
  Si  Si1  1  0.50000000  0.63908700  0.71617900  1
  Si  Si2  1  0.50000000  0.86091300  0.71617900  1
  Si  Si3  1  0.00000000  0.86091300  0.78382100  1
  Si  Si4  1  0.50000000  0.45998800  0.94131300  1
  Si  Si5  1  0.00000000  0.45998800  0.55868700  1
  Si  Si6  1  0.00000000  0.04001200  0.55868700  1
  Si  Si7  1  0.50000000  0.04001200  0.94131300  1
  Si  Si8  1  0.00000000  0.55345500  0.89397900  1
  Si  Si9  1  0.50000000  0.55345500  0.60602100  1
  Si  Si10  1  0.50000000  0.94654500  0.60602100  1
  Si  Si11  1  0.00000000  0.94654500  0.89397900  1
  Si  Si12  1  0.00000000  0.25000000  0.52548500  1
  Si  Si13  1  0.50000000  0.25000000  0.97451500  1
  Si  Si14  1  0.00000000  0.75000000  0.95534300  1
  Si  Si15  1  0.50000000  0.75000000  0.54465700  1
  Si  Si16  1  0.50000000  0.13908700  0.28382100  1
  Si  Si17  1  0.00000000  0.13908700  0.21617900  1
  Si  Si18  1  0.00000000  0.36091300  0.21617900  1
  Si  Si19  1  0.50000000  0.36091300  0.28382100  1
  Si  Si20  1  0.00000000  0.95998800  0.44131300  1
  Si  Si21  1  0.50000000  0.95998800  0.05868700  1
  Si  Si22  1  0.50000000  0.54001200  0.05868700  1
  Si  Si23  1  0.00000000  0.54001200  0.44131300  1
  Si  Si24  1  0.50000000  0.05345500  0.39397900  1
  Si  Si25  1  0.00000000  0.05345500  0.10602100  1
  Si  Si26  1  0.00000000  0.44654500  0.10602100  1
  Si  Si27  1  0.50000000  0.44654500  0.39397900  1
  Si  Si28  1  0.50000000  0.75000000  0.02548500  1
  Si  Si29  1  0.00000000  0.75000000  0.47451500  1
  Si  Si30  1  0.50000000  0.25000000  0.45534300  1
  Si  Si31  1  0.00000000  0.25000000  0.04465700  1
  O  O32  1  0.00000000  0.75000000  0.80236300  1
  O  O33  1  0.50000000  0.75000000  0.69763700  1
  O  O34  1  0.00000000  0.65703600  0.91994500  1
  O  O35  1  0.50000000  0.65703600  0.58005500  1
  O  O36  1  0.50000000  0.84296400  0.58005500  1
  O  O37  1  0.00000000  0.84296400  0.91994500  1
  O  O38  1  0.25039750  0.75000000  0.99015950  1
  O  O39  1  0.24960250  0.75000000  0.50984050  1
  O  O40  1  0.75039750  0.75000000  0.50984050  1
  O  O41  1  0.74960250  0.75000000  0.99015950  1
  O  O42  1  0.75000000  0.61758300  0.75000000  1
  O  O43  1  0.25000000  0.88241700  0.75000000  1
  O  O44  1  0.75000000  0.88241700  0.75000000  1
  O  O45  1  0.25000000  0.61758300  0.75000000  1
  O  O46  1  0.00000000  0.56792900  0.83249800  1
  O  O47  1  0.50000000  0.56792900  0.66750200  1
  O  O48  1  0.50000000  0.93207100  0.66750200  1
  O  O49  1  0.00000000  0.93207100  0.83249800  1
  O  O50  1  0.50000000  0.50000000  0.00000000  1
  O  O51  1  0.50000000  0.00000000  0.00000000  1
  O  O52  1  0.00000000  0.15524850  0.56044050  1
  O  O53  1  0.50000000  0.15524850  0.93955950  1
  O  O54  1  0.50000000  0.34475150  0.93955950  1
  O  O55  1  0.00000000  0.34475150  0.56044050  1
  O  O56  1  0.24993600  0.49570300  0.91135400  1
  O  O57  1  0.25006400  0.49570300  0.58864600  1
  O  O58  1  0.74993600  0.00429700  0.58864600  1
  O  O59  1  0.75006400  0.00429700  0.91135400  1
  O  O60  1  0.25006400  0.00429700  0.58864600  1
  O  O61  1  0.24993600  0.00429700  0.91135400  1
  O  O62  1  0.75006400  0.49570300  0.91135400  1
  O  O63  1  0.74993600  0.49570300  0.58864600  1
  O  O64  1  0.50000000  0.25000000  0.30236300  1
  O  O65  1  0.00000000  0.25000000  0.19763700  1
  O  O66  1  0.50000000  0.15703600  0.41994500  1
  O  O67  1  0.00000000  0.15703600  0.08005500  1
  O  O68  1  0.00000000  0.34296400  0.08005500  1
  O  O69  1  0.50000000  0.34296400  0.41994500  1
  O  O70  1  0.75039750  0.25000000  0.49015950  1
  O  O71  1  0.74960250  0.25000000  0.00984050  1
  O  O72  1  0.25039750  0.25000000  0.00984050  1
  O  O73  1  0.24960250  0.25000000  0.49015950  1
  O  O74  1  0.25000000  0.11758300  0.25000000  1
  O  O75  1  0.75000000  0.38241700  0.25000000  1
  O  O76  1  0.25000000  0.38241700  0.25000000  1
  O  O77  1  0.75000000  0.11758300  0.25000000  1
  O  O78  1  0.50000000  0.06792900  0.33249800  1
  O  O79  1  0.00000000  0.06792900  0.16750200  1
  O  O80  1  0.00000000  0.43207100  0.16750200  1
  O  O81  1  0.50000000  0.43207100  0.33249800  1
  O  O82  1  0.00000000  0.00000000  0.50000000  1
  O  O83  1  0.00000000  0.50000000  0.50000000  1
  O  O84  1  0.50000000  0.65524850  0.06044050  1
  O  O85  1  0.00000000  0.65524850  0.43955950  1
  O  O86  1  0.00000000  0.84475150  0.43955950  1
  O  O87  1  0.50000000  0.84475150  0.06044050  1
  O  O88  1  0.74993600  0.99570300  0.41135400  1
  O  O89  1  0.75006400  0.99570300  0.08864600  1
  O  O90  1  0.24993600  0.50429700  0.08864600  1
  O  O91  1  0.25006400  0.50429700  0.41135400  1
  O  O92  1  0.75006400  0.50429700  0.08864600  1
  O  O93  1  0.74993600  0.50429700  0.41135400  1
  O  O94  1  0.25006400  0.99570300  0.41135400  1
  O  O95  1  0.24993600  0.99570300  0.08864600  1
