# generated using pymatgen
data_RbAg4I5
_symmetry_space_group_name_H-M   'P 1'
_cell_length_a   11.75913000
_cell_length_b   11.80274306
_cell_length_c   11.81203689
_cell_angle_alpha   88.11854712
_cell_angle_beta   89.20830405
_cell_angle_gamma   89.22415328
_symmetry_Int_Tables_number   1
_chemical_formula_structural   RbAg4I5
_chemical_formula_sum   'Rb4 Ag16 I20'
_cell_volume   1638.21177855
_cell_formula_units_Z   4
loop_
 _symmetry_equiv_pos_site_id
 _symmetry_equiv_pos_as_xyz
  1  'x, y, z'
loop_
 _atom_site_type_symbol
 _atom_site_label
 _atom_site_symmetry_multiplicity
 _atom_site_fract_x
 _atom_site_fract_y
 _atom_site_fract_z
 _atom_site_occupancy
  Rb  Rb0  1  0.86762100  0.81017000  0.37588300  1
  Rb  Rb1  1  0.40436800  0.61911800  0.67725500  1
  Rb  Rb2  1  0.13419200  0.40514400  0.11789300  1
  Rb  Rb3  1  0.63540100  0.11054500  0.88373500  1
  Ag  Ag4  1  0.61281300  0.72760400  0.97071700  1
  Ag  Ag5  1  0.52932000  0.69279100  0.20446300  1
  Ag  Ag6  1  0.94666100  0.63455500  0.93014200  1
  Ag  Ag7  1  0.55682000  0.42187800  0.44737200  1
  Ag  Ag8  1  0.94996000  0.44049300  0.75709900  1
  Ag  Ag9  1  0.46267500  0.32557700  0.23848000  1
  Ag  Ag10  1  0.99904700  0.21574500  0.53231300  1
  Ag  Ag11  1  0.74386300  0.27737000  0.53339000  1
  Ag  Ag12  1  0.26187800  0.20947700  0.44561100  1
  Ag  Ag13  1  0.98002200  0.16727500  0.79182600  1
  Ag  Ag14  1  0.54826000  0.07605800  0.24672500  1
  Ag  Ag15  1  0.23872100  0.99474000  0.57805300  1
  Ag  Ag16  1  0.22662600  0.98137900  0.82782000  1
  Ag  Ag17  1  0.29658900  0.00010800  0.31597700  1
  Ag  Ag18  1  0.99917500  0.87424000  0.74286100  1
  Ag  Ag19  1  0.24632200  0.96318800  0.07349400  1
  I  I20  1  0.02907100  0.95868600  0.96315100  1
  I  I21  1  0.66955400  0.90315700  0.13705300  1
  I  I22  1  0.43828500  0.88045900  0.82908200  1
  I  I23  1  0.12839400  0.79357400  0.56390100  1
  I  I24  1  0.29235000  0.78475500  0.22498200  1
  I  I25  1  0.78072000  0.73528400  0.79161200  1
  I  I26  1  0.59960700  0.65757700  0.43033700  1
  I  I27  1  0.91763000  0.61062800  0.16214600  1
  I  I28  1  0.15035000  0.54270500  0.83959800  1
  I  I29  1  0.50010600  0.52373700  0.04351900  1
  I  I30  1  0.92583100  0.44403100  0.52399300  1
  I  I31  1  0.30746700  0.43400200  0.38557800  1
  I  I32  1  0.56733300  0.34733100  0.68274200  1
  I  I33  1  0.86759000  0.30774300  0.94175900  1
  I  I34  1  0.69280400  0.27075700  0.29080200  1
  I  I35  1  0.20698800  0.20155600  0.70107900  1
  I  I36  1  0.37276600  0.17001100  0.07678700  1
  I  I37  1  0.07496400  0.11811600  0.32201100  1
  I  I38  1  0.83522900  0.05482600  0.62895600  1
  I  I39  1  0.46212800  0.04870700  0.47890200  1
