# generated using pymatgen
data_MnH2SO5
_symmetry_space_group_name_H-M   'P 1'
_cell_length_a   6.90758483
_cell_length_b   8.09242700
_cell_length_c   7.94094992
_cell_angle_alpha   90.00000000
_cell_angle_beta   114.90065912
_cell_angle_gamma   90.00000000
_symmetry_Int_Tables_number   1
_chemical_formula_structural   MnH2SO5
_chemical_formula_sum   'Mn4 H8 S4 O20'
_cell_volume   402.62757715
_cell_formula_units_Z   4
loop_
 _symmetry_equiv_pos_site_id
 _symmetry_equiv_pos_as_xyz
  1  'x, y, z'
loop_
 _atom_site_type_symbol
 _atom_site_label
 _atom_site_symmetry_multiplicity
 _atom_site_fract_x
 _atom_site_fract_y
 _atom_site_fract_z
 _atom_site_occupancy
  Mn  Mn0  1  0.25000000  0.75000000  0.50000000  1
  Mn  Mn1  1  0.25000000  0.25000000  0.00000000  1
  Mn  Mn2  1  0.75000000  0.25000000  0.50000000  1
  Mn  Mn3  1  0.75000000  0.75000000  0.00000000  1
  H  H4  1  0.40697600  0.53927700  0.78786325  1
  H  H5  1  0.09302400  0.03927700  0.71213675  1
  H  H6  1  0.09302400  0.96072300  0.21213675  1
  H  H7  1  0.40697600  0.46072300  0.28786325  1
  H  H8  1  0.90697600  0.03927700  0.78786325  1
  H  H9  1  0.59302400  0.53927700  0.71213675  1
  H  H10  1  0.59302400  0.46072300  0.21213675  1
  H  H11  1  0.90697600  0.96072300  0.28786325  1
  S  S12  1  0.50000000  0.08614250  0.75000000  1
  S  S13  1  0.00000000  0.41385750  0.25000000  1
  S  S14  1  0.00000000  0.58614250  0.75000000  1
  S  S15  1  0.50000000  0.91385750  0.25000000  1
  O  O16  1  0.00000000  0.11065400  0.75000000  1
  O  O17  1  0.50000000  0.38934600  0.25000000  1
  O  O18  1  0.47957450  0.19042750  0.89452325  1
  O  O19  1  0.52042550  0.19042750  0.60547675  1
  O  O20  1  0.02042550  0.30957250  0.10547675  1
  O  O21  1  0.97957450  0.30957250  0.39452325  1
  O  O22  1  0.30590050  0.97756950  0.66475925  1
  O  O23  1  0.19409950  0.47756950  0.83524075  1
  O  O24  1  0.19409950  0.52243050  0.33524075  1
  O  O25  1  0.30590050  0.02243050  0.16475925  1
  O  O26  1  0.50000000  0.61065400  0.75000000  1
  O  O27  1  0.00000000  0.88934600  0.25000000  1
  O  O28  1  0.97957450  0.69042750  0.89452325  1
  O  O29  1  0.02042550  0.69042750  0.60547675  1
  O  O30  1  0.52042550  0.80957250  0.10547675  1
  O  O31  1  0.47957450  0.80957250  0.39452325  1
  O  O32  1  0.80590050  0.47756950  0.66475925  1
  O  O33  1  0.69409950  0.97756950  0.83524075  1
  O  O34  1  0.69409950  0.02243050  0.33524075  1
  O  O35  1  0.80590050  0.52243050  0.16475925  1
