# generated using pymatgen
data_H9BrO4
_symmetry_space_group_name_H-M   'P 1'
_cell_length_a   7.09512600
_cell_length_b   11.80375800
_cell_length_c   7.12632178
_cell_angle_alpha   90.00000000
_cell_angle_beta   109.29336473
_cell_angle_gamma   90.00000000
_symmetry_Int_Tables_number   1
_chemical_formula_structural   H9BrO4
_chemical_formula_sum   'H36 Br4 O16'
_cell_volume   563.30532722
_cell_formula_units_Z   4
loop_
 _symmetry_equiv_pos_site_id
 _symmetry_equiv_pos_as_xyz
  1  'x, y, z'
loop_
 _atom_site_type_symbol
 _atom_site_label
 _atom_site_symmetry_multiplicity
 _atom_site_fract_x
 _atom_site_fract_y
 _atom_site_fract_z
 _atom_site_occupancy
  H  H0  1  0.99682800  0.66633100  0.33000800  1
  H  H1  1  0.01532700  0.73647000  0.14842300  1
  H  H2  1  0.98467300  0.23647000  0.85157700  1
  H  H3  1  0.00317200  0.16633100  0.66999200  1
  H  H4  1  0.17034900  0.80909900  0.97696500  1
  H  H5  1  0.99520400  0.73563900  0.84219900  1
  H  H6  1  0.82965100  0.30909900  0.02303500  1
  H  H7  1  0.00479600  0.23563900  0.15780100  1
  H  H8  1  0.81440100  0.82891900  0.54815600  1
  H  H9  1  0.82301200  0.69585200  0.53448500  1
  H  H10  1  0.17698800  0.19585200  0.46551500  1
  H  H11  1  0.18559900  0.32891900  0.45184400  1
  H  H12  1  0.48620400  0.75340800  0.84462500  1
  H  H13  1  0.58426100  0.74882100  0.66912800  1
  H  H14  1  0.37762100  0.84069700  0.61778100  1
  H  H15  1  0.41573900  0.24882100  0.33087200  1
  H  H16  1  0.51379600  0.25340800  0.15537500  1
  H  H17  1  0.62237900  0.34069700  0.38221900  1
  H  H18  1  0.52306600  0.84023500  0.12059300  1
  H  H19  1  0.71978700  0.75886700  0.15748900  1
  H  H20  1  0.28021300  0.25886700  0.84251100  1
  H  H21  1  0.47693400  0.34023500  0.87940700  1
  H  H22  1  0.37439800  0.63070700  0.36721600  1
  H  H23  1  0.47902000  0.66482600  0.20370500  1
  H  H24  1  0.62560200  0.13070700  0.63278400  1
  H  H25  1  0.52098000  0.16482600  0.79629500  1
  H  H26  1  0.82906600  0.44414100  0.50588400  1
  H  H27  1  0.60967300  0.49589800  0.39915400  1
  H  H28  1  0.17093400  0.94414100  0.49411600  1
  H  H29  1  0.39032700  0.99589800  0.60084600  1
  H  H30  1  0.17555800  0.49367900  0.87341900  1
  H  H31  1  0.03203400  0.48328900  0.01405200  1
  H  H32  1  0.27654000  0.53136700  0.11662300  1
  H  H33  1  0.82444200  0.99367900  0.12658100  1
  H  H34  1  0.96796600  0.98328900  0.98594800  1
  H  H35  1  0.72346000  0.03136700  0.88337700  1
  Br  Br36  1  0.73147400  0.49210500  0.98460400  1
  Br  Br37  1  0.26852600  0.99210500  0.01539600  1
  Br  Br38  1  0.13791600  0.51084200  0.56005700  1
  Br  Br39  1  0.86208400  0.01084200  0.43994300  1
  O  O40  1  0.95966600  0.73975900  0.26253400  1
  O  O41  1  0.04033400  0.23975900  0.73746600  1
  O  O42  1  0.10866000  0.73271600  0.96781100  1
  O  O43  1  0.89134000  0.23271600  0.03218900  1
  O  O44  1  0.79264500  0.75728300  0.61201500  1
  O  O45  1  0.20735500  0.25728300  0.38798500  1
  O  O46  1  0.45374400  0.75542700  0.69527100  1
  O  O47  1  0.54625600  0.25542700  0.30472900  1
  O  O48  1  0.56792800  0.76376900  0.09769500  1
  O  O49  1  0.43207200  0.26376900  0.90230500  1
  O  O50  1  0.43478000  0.59902700  0.27257300  1
  O  O51  1  0.56522000  0.09902700  0.72742700  1
  O  O52  1  0.68348600  0.42927700  0.47489200  1
  O  O53  1  0.31651400  0.92927700  0.52510800  1
  O  O54  1  0.17830300  0.47591000  0.01417500  1
  O  O55  1  0.82169700  0.97591000  0.98582500  1
