# generated using pymatgen
data_RbP(HO2)2
_symmetry_space_group_name_H-M   'P 1'
_cell_length_a   7.62998600
_cell_length_b   7.62998600
_cell_length_c   7.48062800
_cell_angle_alpha   90.00000000
_cell_angle_beta   90.00000000
_cell_angle_gamma   90.00000000
_symmetry_Int_Tables_number   1
_chemical_formula_structural   RbP(HO2)2
_chemical_formula_sum   'Rb4 P4 H8 O16'
_cell_volume   435.49737405
_cell_formula_units_Z   4
loop_
 _symmetry_equiv_pos_site_id
 _symmetry_equiv_pos_as_xyz
  1  'x, y, z'
loop_
 _atom_site_type_symbol
 _atom_site_label
 _atom_site_symmetry_multiplicity
 _atom_site_fract_x
 _atom_site_fract_y
 _atom_site_fract_z
 _atom_site_occupancy
  Rb  Rb0  1  0.00000000  0.00000000  0.50000000  1
  Rb  Rb1  1  0.50000000  0.00000000  0.75000000  1
  Rb  Rb2  1  0.50000000  0.50000000  0.00000000  1
  Rb  Rb3  1  0.00000000  0.50000000  0.25000000  1
  P  P4  1  0.50000000  0.50000000  0.50000000  1
  P  P5  1  0.50000000  0.00000000  0.25000000  1
  P  P6  1  0.00000000  0.00000000  0.00000000  1
  P  P7  1  0.00000000  0.50000000  0.75000000  1
  H  H8  1  0.25000000  0.36513300  0.62500000  1
  H  H9  1  0.25000000  0.13486700  0.12500000  1
  H  H10  1  0.63486700  0.25000000  0.37500000  1
  H  H11  1  0.86513300  0.25000000  0.87500000  1
  H  H12  1  0.75000000  0.86513300  0.12500000  1
  H  H13  1  0.75000000  0.63486700  0.62500000  1
  H  H14  1  0.13486700  0.75000000  0.87500000  1
  H  H15  1  0.36513300  0.75000000  0.37500000  1
  O  O16  1  0.40815450  0.35944850  0.61805450  1
  O  O17  1  0.09184550  0.35944850  0.63194550  1
  O  O18  1  0.09184550  0.14055150  0.11805450  1
  O  O19  1  0.90815450  0.64055150  0.63194550  1
  O  O20  1  0.64055150  0.40815450  0.38194550  1
  O  O21  1  0.35944850  0.90815450  0.36805450  1
  O  O22  1  0.85944850  0.09184550  0.88194550  1
  O  O23  1  0.64055150  0.09184550  0.36805450  1
  O  O24  1  0.90815450  0.85944850  0.11805450  1
  O  O25  1  0.59184550  0.85944850  0.13194550  1
  O  O26  1  0.59184550  0.64055150  0.61805450  1
  O  O27  1  0.40815450  0.14055150  0.13194550  1
  O  O28  1  0.14055150  0.90815450  0.88194550  1
  O  O29  1  0.85944850  0.40815450  0.86805450  1
  O  O30  1  0.35944850  0.59184550  0.38194550  1
  O  O31  1  0.14055150  0.59184550  0.86805450  1
