# generated using pymatgen
data_LiSnP2O7
_symmetry_space_group_name_H-M   'P 1'
_cell_length_a   7.11958000
_cell_length_b   12.90923400
_cell_length_c   12.49447374
_cell_angle_alpha   90.00000000
_cell_angle_beta   90.44256931
_cell_angle_gamma   90.00000000
_symmetry_Int_Tables_number   1
_chemical_formula_structural   LiSnP2O7
_chemical_formula_sum   'Li8 Sn8 P16 O56'
_cell_volume   1148.31188532
_cell_formula_units_Z   8
loop_
 _symmetry_equiv_pos_site_id
 _symmetry_equiv_pos_as_xyz
  1  'x, y, z'
loop_
 _atom_site_type_symbol
 _atom_site_label
 _atom_site_symmetry_multiplicity
 _atom_site_fract_x
 _atom_site_fract_y
 _atom_site_fract_z
 _atom_site_occupancy
  Li  Li0  1  0.98776550  0.72944550  0.98947200  1
  Li  Li1  1  0.00603600  0.71402300  0.25371000  1
  Li  Li2  1  0.50603600  0.78597700  0.75371000  1
  Li  Li3  1  0.48776550  0.77055450  0.48947200  1
  Li  Li4  1  0.48776550  0.22944550  0.98947200  1
  Li  Li5  1  0.50603600  0.21402300  0.25371000  1
  Li  Li6  1  0.00603600  0.28597700  0.75371000  1
  Li  Li7  1  0.98776550  0.27055450  0.48947200  1
  Sn  Sn8  1  0.34281300  0.99932100  0.37831500  1
  Sn  Sn9  1  0.84281300  0.50067900  0.87831500  1
  Sn  Sn10  1  0.63576900  0.99028100  0.12319700  1
  Sn  Sn11  1  0.13576900  0.50971900  0.62319700  1
  Sn  Sn12  1  0.84281300  0.49932100  0.37831500  1
  Sn  Sn13  1  0.34281300  0.00067900  0.87831500  1
  Sn  Sn14  1  0.13576900  0.49028100  0.12319700  1
  Sn  Sn15  1  0.63576900  0.00971900  0.62319700  1
  P  P16  1  0.72128650  0.62079750  0.64627800  1
  P  P17  1  0.82731450  0.90536450  0.88766700  1
  P  P18  1  0.78158850  0.87829350  0.35297500  1
  P  P19  1  0.28158850  0.62170650  0.85297500  1
  P  P20  1  0.16948350  0.90123350  0.61208200  1
  P  P21  1  0.66948350  0.59876650  0.11208200  1
  P  P22  1  0.32731450  0.59463550  0.38766700  1
  P  P23  1  0.22128650  0.87920250  0.14627800  1
  P  P24  1  0.22128650  0.12079750  0.64627800  1
  P  P25  1  0.32731450  0.40536450  0.88766700  1
  P  P26  1  0.28158850  0.37829350  0.35297500  1
  P  P27  1  0.78158850  0.12170650  0.85297500  1
  P  P28  1  0.66948350  0.40123350  0.61208200  1
  P  P29  1  0.16948350  0.09876650  0.11208200  1
  P  P30  1  0.82731450  0.09463550  0.38766700  1
  P  P31  1  0.72128650  0.37920250  0.14627800  1
  O  O32  1  0.84495900  0.59875700  0.19117100  1
  O  O33  1  0.88927300  0.78195500  0.37553400  1
  O  O34  1  0.10715000  0.60021900  0.92606300  1
  O  O35  1  0.72278950  0.88230150  0.23278100  1
  O  O36  1  0.08918200  0.97902100  0.12009500  1
  O  O37  1  0.15979800  0.59645900  0.30681100  1
  O  O38  1  0.25502650  0.88654650  0.49881400  1
  O  O39  1  0.98349550  0.82904250  0.87434000  1
  O  O40  1  0.65979800  0.90354100  0.80681100  1
  O  O41  1  0.58918200  0.52097900  0.62009500  1
  O  O42  1  0.27326350  0.88143750  0.26623800  1
  O  O43  1  0.38927300  0.71804500  0.87553400  1
  O  O44  1  0.60715000  0.89978100  0.42606300  1
  O  O45  1  0.22278950  0.61769850  0.73278100  1
  O  O46  1  0.75514850  0.89869050  0.00470800  1
  O  O47  1  0.75502650  0.61345350  0.99881400  1
  O  O48  1  0.50565950  0.66570250  0.13640000  1
  O  O49  1  0.77326350  0.61856250  0.76623800  1
  O  O50  1  0.48349550  0.67095750  0.37434000  1
  O  O51  1  0.39833850  0.90062550  0.07588400  1
  O  O52  1  0.10925850  0.78399450  0.11867700  1
  O  O53  1  0.25514850  0.60130950  0.50470800  1
  O  O54  1  0.89833850  0.59937450  0.57588400  1
  O  O55  1  0.91740550  0.97875950  0.37355900  1
  O  O56  1  0.41740550  0.52124050  0.87355900  1
  O  O57  1  0.60925850  0.71600550  0.61867700  1
  O  O58  1  0.00565950  0.83429750  0.63640000  1
  O  O59  1  0.34495900  0.90124300  0.69117100  1
  O  O60  1  0.34495900  0.09875700  0.19117100  1
  O  O61  1  0.38927300  0.28195500  0.37553400  1
  O  O62  1  0.60715000  0.10021900  0.92606300  1
  O  O63  1  0.22278950  0.38230150  0.23278100  1
  O  O64  1  0.58918200  0.47902100  0.12009500  1
  O  O65  1  0.65979800  0.09645900  0.30681100  1
  O  O66  1  0.75502650  0.38654650  0.49881400  1
  O  O67  1  0.48349550  0.32904250  0.87434000  1
  O  O68  1  0.15979800  0.40354100  0.80681100  1
  O  O69  1  0.08918200  0.02097900  0.62009500  1
  O  O70  1  0.77326350  0.38143750  0.26623800  1
  O  O71  1  0.88927300  0.21804500  0.87553400  1
  O  O72  1  0.10715000  0.39978100  0.42606300  1
  O  O73  1  0.72278950  0.11769850  0.73278100  1
  O  O74  1  0.25514850  0.39869050  0.00470800  1
  O  O75  1  0.25502650  0.11345350  0.99881400  1
  O  O76  1  0.00565950  0.16570250  0.13640000  1
  O  O77  1  0.27326350  0.11856250  0.76623800  1
  O  O78  1  0.98349550  0.17095750  0.37434000  1
  O  O79  1  0.89833850  0.40062550  0.07588400  1
  O  O80  1  0.60925850  0.28399450  0.11867700  1
  O  O81  1  0.75514850  0.10130950  0.50470800  1
  O  O82  1  0.39833850  0.09937450  0.57588400  1
  O  O83  1  0.41740550  0.47875950  0.37355900  1
  O  O84  1  0.91740550  0.02124050  0.87355900  1
  O  O85  1  0.10925850  0.21600550  0.61867700  1
  O  O86  1  0.50565950  0.33429750  0.63640000  1
  O  O87  1  0.84495900  0.40124300  0.69117100  1
