# generated using pymatgen
data_VTe4Cl4O
_symmetry_space_group_name_H-M   'P 1'
_cell_length_a   16.80986600
_cell_length_b   16.80986600
_cell_length_c   14.73708400
_cell_angle_alpha   90.00000000
_cell_angle_beta   90.00000000
_cell_angle_gamma   90.00000000
_symmetry_Int_Tables_number   1
_chemical_formula_structural   VTe4Cl4O
_chemical_formula_sum   'V16 Te64 Cl64 O16'
_cell_volume   4164.28133061
_cell_formula_units_Z   16
loop_
 _symmetry_equiv_pos_site_id
 _symmetry_equiv_pos_as_xyz
  1  'x, y, z'
loop_
 _atom_site_type_symbol
 _atom_site_label
 _atom_site_symmetry_multiplicity
 _atom_site_fract_x
 _atom_site_fract_y
 _atom_site_fract_z
 _atom_site_occupancy
  V  V0  1  0.25440000  0.25297700  0.52118200  1
  V  V1  1  0.74702300  0.25440000  0.47881800  1
  V  V2  1  0.75297700  0.24560000  0.97881800  1
  V  V3  1  0.74560000  0.24702300  0.22881800  1
  V  V4  1  0.24702300  0.25440000  0.77118200  1
  V  V5  1  0.75440000  0.25297700  0.72881800  1
  V  V6  1  0.25297700  0.24560000  0.27118200  1
  V  V7  1  0.24560000  0.24702300  0.02118200  1
  V  V8  1  0.75440000  0.75297700  0.02118200  1
  V  V9  1  0.24702300  0.75440000  0.97881800  1
  V  V10  1  0.25297700  0.74560000  0.47881800  1
  V  V11  1  0.24560000  0.74702300  0.72881800  1
  V  V12  1  0.74702300  0.75440000  0.27118200  1
  V  V13  1  0.25440000  0.75297700  0.22881800  1
  V  V14  1  0.75297700  0.74560000  0.77118200  1
  V  V15  1  0.74560000  0.74702300  0.52118200  1
  Te  Te16  1  0.53769400  0.39027800  0.34116200  1
  Te  Te17  1  0.04494050  0.88998550  0.39360350  1
  Te  Te18  1  0.60972200  0.03769400  0.09116200  1
  Te  Te19  1  0.45728800  0.10796300  0.61870300  1
  Te  Te20  1  0.03814500  0.39046700  0.61605400  1
  Te  Te21  1  0.60953300  0.53814500  0.36605400  1
  Te  Te22  1  0.46185500  0.10953300  0.11605400  1
  Te  Te23  1  0.04271200  0.39203700  0.11870300  1
  Te  Te24  1  0.46230600  0.10972200  0.40883800  1
  Te  Te25  1  0.53814500  0.39046700  0.63394600  1
  Te  Te26  1  0.39027800  0.46230600  0.65883800  1
  Te  Te27  1  0.46185500  0.60953300  0.63394600  1
  Te  Te28  1  0.89046700  0.46185500  0.88394600  1
  Te  Te29  1  0.95505950  0.11001450  0.39360350  1
  Te  Te30  1  0.03769400  0.39027800  0.90883800  1
  Te  Te31  1  0.89203700  0.45728800  0.38129700  1
  Te  Te32  1  0.46230600  0.60972200  0.34116200  1
  Te  Te33  1  0.04271200  0.89203700  0.63129700  1
  Te  Te34  1  0.39046700  0.46185500  0.36605400  1
  Te  Te35  1  0.88998550  0.45505950  0.14360350  1
  Te  Te36  1  0.95728800  0.10796300  0.63129700  1
  Te  Te37  1  0.60953300  0.03814500  0.38394600  1
  Te  Te38  1  0.88998550  0.95505950  0.60639650  1
  Te  Te39  1  0.04494050  0.38998550  0.35639650  1
  Te  Te40  1  0.60972200  0.53769400  0.65883800  1
  Te  Te41  1  0.45505950  0.11001450  0.85639650  1
  Te  Te42  1  0.89203700  0.95728800  0.36870300  1
  Te  Te43  1  0.10796300  0.04271200  0.36870300  1
  Te  Te44  1  0.11001450  0.04494050  0.60639650  1
  Te  Te45  1  0.60796300  0.04271200  0.88129700  1
  Te  Te46  1  0.61001450  0.04494050  0.64360350  1
  Te  Te47  1  0.89027800  0.46230600  0.59116200  1
  Te  Te48  1  0.03769400  0.89027800  0.84116200  1
  Te  Te49  1  0.54494050  0.38998550  0.89360350  1
  Te  Te50  1  0.10972200  0.53769400  0.59116200  1
  Te  Te51  1  0.95728800  0.60796300  0.11870300  1
  Te  Te52  1  0.53814500  0.89046700  0.11605400  1
  Te  Te53  1  0.10953300  0.03814500  0.86605400  1
  Te  Te54  1  0.96185500  0.60953300  0.61605400  1
  Te  Te55  1  0.54271200  0.89203700  0.61870300  1
  Te  Te56  1  0.96230600  0.60972200  0.90883800  1
  Te  Te57  1  0.03814500  0.89046700  0.13394600  1
  Te  Te58  1  0.89027800  0.96230600  0.15883800  1
  Te  Te59  1  0.96185500  0.10953300  0.13394600  1
  Te  Te60  1  0.39046700  0.96185500  0.38394600  1
  Te  Te61  1  0.45505950  0.61001450  0.89360350  1
  Te  Te62  1  0.53769400  0.89027800  0.40883800  1
  Te  Te63  1  0.39203700  0.95728800  0.88129700  1
  Te  Te64  1  0.96230600  0.10972200  0.84116200  1
  Te  Te65  1  0.54271200  0.39203700  0.13129700  1
  Te  Te66  1  0.89046700  0.96185500  0.86605400  1
  Te  Te67  1  0.38998550  0.95505950  0.64360350  1
  Te  Te68  1  0.45728800  0.60796300  0.13129700  1
  Te  Te69  1  0.10953300  0.53814500  0.88394600  1
  Te  Te70  1  0.38998550  0.45505950  0.10639650  1
  Te  Te71  1  0.54494050  0.88998550  0.85639650  1
  Te  Te72  1  0.10972200  0.03769400  0.15883800  1
  Te  Te73  1  0.95505950  0.61001450  0.35639650  1
  Te  Te74  1  0.39203700  0.45728800  0.86870300  1
  Te  Te75  1  0.60796300  0.54271200  0.86870300  1
  Te  Te76  1  0.61001450  0.54494050  0.10639650  1
  Te  Te77  1  0.10796300  0.54271200  0.38129700  1
  Te  Te78  1  0.11001450  0.54494050  0.14360350  1
  Te  Te79  1  0.39027800  0.96230600  0.09116200  1
  Cl  Cl80  1  0.89245400  0.77820700  0.75625500  1
  Cl  Cl81  1  0.28508300  0.10712400  0.25964600  1
  Cl  Cl82  1  0.38754700  0.28981800  0.76298100  1
  Cl  Cl83  1  0.61245300  0.21018200  0.98701900  1
  Cl  Cl84  1  0.88754700  0.28981800  0.48701900  1
  Cl  Cl85  1  0.11462050  0.21116750  0.51077050  1
  Cl  Cl86  1  0.11245300  0.21018200  0.26298100  1
  Cl  Cl87  1  0.78981800  0.11245300  0.73701900  1
  Cl  Cl88  1  0.21491700  0.39287600  0.75964600  1
  Cl  Cl89  1  0.71018200  0.38754700  0.23701900  1
  Cl  Cl90  1  0.60712400  0.21491700  0.24035400  1
  Cl  Cl91  1  0.78883250  0.11462050  0.48922950  1
  Cl  Cl92  1  0.61462050  0.21116750  0.73922950  1
  Cl  Cl93  1  0.60712400  0.71491700  0.50964600  1
  Cl  Cl94  1  0.77820700  0.10754600  0.24374500  1
  Cl  Cl95  1  0.21116750  0.88537950  0.48922950  1
  Cl  Cl96  1  0.89287600  0.28508300  0.74035400  1
  Cl  Cl97  1  0.89245400  0.27820700  0.99374500  1
  Cl  Cl98  1  0.71116750  0.88537950  0.76077050  1
  Cl  Cl99  1  0.72179300  0.39245400  0.74374500  1
  Cl  Cl100  1  0.88537950  0.28883250  0.23922950  1
  Cl  Cl101  1  0.60754600  0.72179300  0.25625500  1
  Cl  Cl102  1  0.71491700  0.39287600  0.49035400  1
  Cl  Cl103  1  0.78883250  0.61462050  0.26077050  1
  Cl  Cl104  1  0.77820700  0.60754600  0.50625500  1
  Cl  Cl105  1  0.78981800  0.61245300  0.01298100  1
  Cl  Cl106  1  0.28508300  0.60712400  0.49035400  1
  Cl  Cl107  1  0.71018200  0.88754700  0.51298100  1
  Cl  Cl108  1  0.72179300  0.89245400  0.00625500  1
  Cl  Cl109  1  0.60754600  0.22179300  0.49374500  1
  Cl  Cl110  1  0.88537950  0.78883250  0.51077050  1
  Cl  Cl111  1  0.39287600  0.28508300  0.50964600  1
  Cl  Cl112  1  0.39245400  0.27820700  0.25625500  1
  Cl  Cl113  1  0.78508300  0.60712400  0.75964600  1
  Cl  Cl114  1  0.88754700  0.78981800  0.26298100  1
  Cl  Cl115  1  0.11245300  0.71018200  0.48701900  1
  Cl  Cl116  1  0.38754700  0.78981800  0.98701900  1
  Cl  Cl117  1  0.61462050  0.71116750  0.01077050  1
  Cl  Cl118  1  0.61245300  0.71018200  0.76298100  1
  Cl  Cl119  1  0.28981800  0.61245300  0.23701900  1
  Cl  Cl120  1  0.71491700  0.89287600  0.25964600  1
  Cl  Cl121  1  0.21018200  0.88754700  0.73701900  1
  Cl  Cl122  1  0.10712400  0.71491700  0.74035400  1
  Cl  Cl123  1  0.28883250  0.61462050  0.98922950  1
  Cl  Cl124  1  0.11462050  0.71116750  0.23922950  1
  Cl  Cl125  1  0.10712400  0.21491700  0.00964600  1
  Cl  Cl126  1  0.27820700  0.60754600  0.74374500  1
  Cl  Cl127  1  0.71116750  0.38537950  0.98922950  1
  Cl  Cl128  1  0.39287600  0.78508300  0.24035400  1
  Cl  Cl129  1  0.39245400  0.77820700  0.49374500  1
  Cl  Cl130  1  0.21116750  0.38537950  0.26077050  1
  Cl  Cl131  1  0.22179300  0.89245400  0.24374500  1
  Cl  Cl132  1  0.38537950  0.78883250  0.73922950  1
  Cl  Cl133  1  0.10754600  0.22179300  0.75625500  1
  Cl  Cl134  1  0.21491700  0.89287600  0.99035400  1
  Cl  Cl135  1  0.28883250  0.11462050  0.76077050  1
  Cl  Cl136  1  0.27820700  0.10754600  0.00625500  1
  Cl  Cl137  1  0.28981800  0.11245300  0.51298100  1
  Cl  Cl138  1  0.78508300  0.10712400  0.99035400  1
  Cl  Cl139  1  0.21018200  0.38754700  0.01298100  1
  Cl  Cl140  1  0.22179300  0.39245400  0.50625500  1
  Cl  Cl141  1  0.10754600  0.72179300  0.99374500  1
  Cl  Cl142  1  0.38537950  0.28883250  0.01077050  1
  Cl  Cl143  1  0.89287600  0.78508300  0.00964600  1
  O  O144  1  0.74663250  0.25128450  0.36346050  1
  O  O145  1  0.75336750  0.74871550  0.88653950  1
  O  O146  1  0.74663250  0.75128450  0.38653950  1
  O  O147  1  0.75336750  0.24871550  0.86346050  1
  O  O148  1  0.75128450  0.25336750  0.61346050  1
  O  O149  1  0.74871550  0.24663250  0.11346050  1
  O  O150  1  0.24871550  0.24663250  0.13653950  1
  O  O151  1  0.25128450  0.25336750  0.63653950  1
  O  O152  1  0.24663250  0.75128450  0.86346050  1
  O  O153  1  0.25336750  0.24871550  0.38653950  1
  O  O154  1  0.24663250  0.25128450  0.88653950  1
  O  O155  1  0.25336750  0.74871550  0.36346050  1
  O  O156  1  0.25128450  0.75336750  0.11346050  1
  O  O157  1  0.24871550  0.74663250  0.61346050  1
  O  O158  1  0.74871550  0.74663250  0.63653950  1
  O  O159  1  0.75128450  0.75336750  0.13653950  1
