# generated using pymatgen
data_RbCr4BiO14
_symmetry_space_group_name_H-M   'P 1'
_cell_length_a   8.41931000
_cell_length_b   17.23711700
_cell_length_c   8.92000759
_cell_angle_alpha   90.00000000
_cell_angle_beta   91.53515043
_cell_angle_gamma   90.00000000
_symmetry_Int_Tables_number   1
_chemical_formula_structural   RbCr4BiO14
_chemical_formula_sum   'Rb4 Cr16 Bi4 O56'
_cell_volume   1294.04818517
_cell_formula_units_Z   4
loop_
 _symmetry_equiv_pos_site_id
 _symmetry_equiv_pos_as_xyz
  1  'x, y, z'
loop_
 _atom_site_type_symbol
 _atom_site_label
 _atom_site_symmetry_multiplicity
 _atom_site_fract_x
 _atom_site_fract_y
 _atom_site_fract_z
 _atom_site_occupancy
  Rb  Rb0  1  0.75440700  0.62318900  0.50158500  1
  Rb  Rb1  1  0.74559300  0.12318900  0.49841500  1
  Rb  Rb2  1  0.25440700  0.87681100  0.50158500  1
  Rb  Rb3  1  0.24559300  0.37681100  0.49841500  1
  Cr  Cr4  1  0.91683100  0.81574900  0.78800500  1
  Cr  Cr5  1  0.41683100  0.68425100  0.78800500  1
  Cr  Cr6  1  0.91019200  0.94131300  0.20496900  1
  Cr  Cr7  1  0.86875700  0.44716500  0.26965800  1
  Cr  Cr8  1  0.13124300  0.55283500  0.73034200  1
  Cr  Cr9  1  0.58980800  0.44131300  0.79503100  1
  Cr  Cr10  1  0.66486600  0.79545100  0.23621700  1
  Cr  Cr11  1  0.16486600  0.70454900  0.23621700  1
  Cr  Cr12  1  0.83513400  0.29545100  0.76378300  1
  Cr  Cr13  1  0.63124300  0.94716500  0.73034200  1
  Cr  Cr14  1  0.41019200  0.55868700  0.20496900  1
  Cr  Cr15  1  0.58316900  0.31574900  0.21199500  1
  Cr  Cr16  1  0.36875700  0.05283500  0.26965800  1
  Cr  Cr17  1  0.33513400  0.20454900  0.76378300  1
  Cr  Cr18  1  0.08316900  0.18425100  0.21199500  1
  Cr  Cr19  1  0.08980800  0.05868700  0.79503100  1
  Bi  Bi20  1  0.29126200  0.87618400  0.99587300  1
  Bi  Bi21  1  0.79126200  0.62381600  0.99587300  1
  Bi  Bi22  1  0.70873800  0.12381600  0.00412700  1
  Bi  Bi23  1  0.20873800  0.37618400  0.00412700  1
  O  O24  1  0.11022400  0.83956400  0.79886100  1
  O  O25  1  0.55616600  0.79291400  0.38186900  1
  O  O26  1  0.23219900  0.00344800  0.86698000  1
  O  O27  1  0.70016400  0.39975600  0.19061400  1
  O  O28  1  0.43380400  0.16570200  0.90541300  1
  O  O29  1  0.16686800  0.14602800  0.71975000  1
  O  O30  1  0.64052100  0.95017500  0.55038100  1
  O  O31  1  0.06619600  0.66570200  0.09458700  1
  O  O32  1  0.13075500  0.24466600  0.07764300  1
  O  O33  1  0.52961400  0.10171700  0.22300700  1
  O  O34  1  0.61022400  0.66043600  0.79886100  1
  O  O35  1  0.03828700  0.91827800  0.07380100  1
  O  O36  1  0.97038600  0.60171700  0.77699300  1
  O  O37  1  0.14052100  0.54982500  0.55038100  1
  O  O38  1  0.73219900  0.49655200  0.86698000  1
  O  O39  1  0.85947900  0.45017500  0.44961900  1
  O  O40  1  0.33313200  0.64602800  0.28025000  1
  O  O41  1  0.83313200  0.85397200  0.28025000  1
  O  O42  1  0.77481600  0.20475100  0.80175900  1
  O  O43  1  0.86857500  0.53681500  0.20188600  1
  O  O44  1  0.63075500  0.25533400  0.07764300  1
  O  O45  1  0.00058600  0.98513600  0.34183600  1
  O  O46  1  0.50058600  0.51486400  0.34183600  1
  O  O47  1  0.26780100  0.50344800  0.13302000  1
  O  O48  1  0.37735600  0.72226200  0.62737300  1
  O  O49  1  0.76780100  0.99655200  0.13302000  1
  O  O50  1  0.66686800  0.35397200  0.71975000  1
  O  O51  1  0.72518400  0.70475100  0.19824100  1
  O  O52  1  0.35947900  0.04982500  0.44961900  1
  O  O53  1  0.02961400  0.39828300  0.22300700  1
  O  O54  1  0.53828700  0.58172200  0.07380100  1
  O  O55  1  0.46171300  0.41827800  0.92619900  1
  O  O56  1  0.20016400  0.10024400  0.19061400  1
  O  O57  1  0.47038600  0.89828300  0.77699300  1
  O  O58  1  0.96171300  0.08172200  0.92619900  1
  O  O59  1  0.56619600  0.83429800  0.09458700  1
  O  O60  1  0.27481600  0.29524900  0.80175900  1
  O  O61  1  0.86924500  0.75533400  0.92235700  1
  O  O62  1  0.29983600  0.60024400  0.80938600  1
  O  O63  1  0.36857500  0.96318500  0.20188600  1
  O  O64  1  0.22518400  0.79524900  0.19824100  1
  O  O65  1  0.38977600  0.33956400  0.20113900  1
  O  O66  1  0.13142500  0.46318500  0.79811400  1
  O  O67  1  0.49941400  0.48513600  0.65816400  1
  O  O68  1  0.87735600  0.77773800  0.62737300  1
  O  O69  1  0.62264400  0.27773800  0.37262700  1
  O  O70  1  0.05616600  0.70708600  0.38186900  1
  O  O71  1  0.63142500  0.03681500  0.79811400  1
  O  O72  1  0.93380400  0.33429800  0.90541300  1
  O  O73  1  0.99941400  0.01486400  0.65816400  1
  O  O74  1  0.79983600  0.89975600  0.80938600  1
  O  O75  1  0.44383400  0.20708600  0.61813100  1
  O  O76  1  0.12264400  0.22226200  0.37262700  1
  O  O77  1  0.36924500  0.74466600  0.92235700  1
  O  O78  1  0.94383400  0.29291400  0.61813100  1
  O  O79  1  0.88977600  0.16043600  0.20113900  1
