# generated using pymatgen
data_RbLiNd2(MoO4)4
_symmetry_space_group_name_H-M   'P 1'
_cell_length_a   5.37847600
_cell_length_b   13.21451200
_cell_length_c   19.98819802
_cell_angle_alpha   90.00000000
_cell_angle_beta   92.29652815
_cell_angle_gamma   90.00000000
_symmetry_Int_Tables_number   1
_chemical_formula_structural   RbLiNd2(MoO4)4
_chemical_formula_sum   'Rb4 Li4 Nd8 Mo16 O64'
_cell_volume   1419.49887732
_cell_formula_units_Z   4
loop_
 _symmetry_equiv_pos_site_id
 _symmetry_equiv_pos_as_xyz
  1  'x, y, z'
loop_
 _atom_site_type_symbol
 _atom_site_label
 _atom_site_symmetry_multiplicity
 _atom_site_fract_x
 _atom_site_fract_y
 _atom_site_fract_z
 _atom_site_occupancy
  Rb  Rb0  1  0.50000000  0.52957500  0.75000000  1
  Rb  Rb1  1  0.00000000  0.97042500  0.25000000  1
  Rb  Rb2  1  0.00000000  0.02957500  0.75000000  1
  Rb  Rb3  1  0.50000000  0.47042500  0.25000000  1
  Li  Li4  1  0.50000000  0.81160700  0.75000000  1
  Li  Li5  1  0.00000000  0.68839300  0.25000000  1
  Li  Li6  1  0.00000000  0.31160700  0.75000000  1
  Li  Li7  1  0.50000000  0.18839300  0.25000000  1
  Nd  Nd8  1  0.00131500  0.85394400  0.46602700  1
  Nd  Nd9  1  0.99868500  0.85394400  0.03397300  1
  Nd  Nd10  1  0.49868500  0.64605600  0.53397300  1
  Nd  Nd11  1  0.50131500  0.64605600  0.96602700  1
  Nd  Nd12  1  0.50131500  0.35394400  0.46602700  1
  Nd  Nd13  1  0.49868500  0.35394400  0.03397300  1
  Nd  Nd14  1  0.99868500  0.14605600  0.53397300  1
  Nd  Nd15  1  0.00131500  0.14605600  0.96602700  1
  Mo  Mo16  1  0.99412200  0.74343100  0.85170800  1
  Mo  Mo17  1  0.00587800  0.74343100  0.64829200  1
  Mo  Mo18  1  0.50673850  0.93668750  0.59204600  1
  Mo  Mo19  1  0.49412200  0.75656900  0.35170800  1
  Mo  Mo20  1  0.49326150  0.93668750  0.90795400  1
  Mo  Mo21  1  0.50587800  0.75656900  0.14829200  1
  Mo  Mo22  1  0.99326150  0.56331250  0.40795400  1
  Mo  Mo23  1  0.00673850  0.56331250  0.09204600  1
  Mo  Mo24  1  0.49412200  0.24343100  0.85170800  1
  Mo  Mo25  1  0.50587800  0.24343100  0.64829200  1
  Mo  Mo26  1  0.00673850  0.43668750  0.59204600  1
  Mo  Mo27  1  0.99412200  0.25656900  0.35170800  1
  Mo  Mo28  1  0.99326150  0.43668750  0.90795400  1
  Mo  Mo29  1  0.00587800  0.25656900  0.14829200  1
  Mo  Mo30  1  0.49326150  0.06331250  0.40795400  1
  Mo  Mo31  1  0.50673850  0.06331250  0.09204600  1
  O  O32  1  0.24165800  0.65167900  0.86712100  1
  O  O33  1  0.64951750  0.83293550  0.54383100  1
  O  O34  1  0.26916900  0.79382300  0.28944300  1
  O  O35  1  0.71954850  0.95971450  0.10049600  1
  O  O36  1  0.78045150  0.54028550  0.89950400  1
  O  O37  1  0.13875000  0.85537100  0.82508900  1
  O  O38  1  0.85048250  0.66706450  0.45616900  1
  O  O39  1  0.88778450  0.59372250  0.17062500  1
  O  O40  1  0.73083100  0.79382300  0.21055700  1
  O  O41  1  0.63875000  0.64462900  0.32508900  1
  O  O42  1  0.86125000  0.85537100  0.67491100  1
  O  O43  1  0.35048250  0.83293550  0.95616900  1
  O  O44  1  0.33598150  0.73938750  0.43269100  1
  O  O45  1  0.16401850  0.76061250  0.56730900  1
  O  O46  1  0.26450800  0.52129700  0.46017200  1
  O  O47  1  0.75834200  0.65167900  0.63287900  1
  O  O48  1  0.11221550  0.59372250  0.32937500  1
  O  O49  1  0.14951750  0.66706450  0.04383100  1
  O  O50  1  0.61221550  0.90627750  0.82937500  1
  O  O51  1  0.76916900  0.70617700  0.78944300  1
  O  O52  1  0.66401850  0.73938750  0.06730900  1
  O  O53  1  0.21954850  0.54028550  0.60049600  1
  O  O54  1  0.23083100  0.70617700  0.71055700  1
  O  O55  1  0.25834200  0.84832100  0.13287900  1
  O  O56  1  0.36125000  0.64462900  0.17491100  1
  O  O57  1  0.38778450  0.90627750  0.67062500  1
  O  O58  1  0.28045150  0.95971450  0.39950400  1
  O  O59  1  0.74165800  0.84832100  0.36712100  1
  O  O60  1  0.83598150  0.76061250  0.93269100  1
  O  O61  1  0.76450800  0.97870300  0.96017200  1
  O  O62  1  0.23549200  0.97870300  0.53982800  1
  O  O63  1  0.73549200  0.52129700  0.03982800  1
  O  O64  1  0.74165800  0.15167900  0.86712100  1
  O  O65  1  0.14951750  0.33293550  0.54383100  1
  O  O66  1  0.76916900  0.29382300  0.28944300  1
  O  O67  1  0.21954850  0.45971450  0.10049600  1
  O  O68  1  0.28045150  0.04028550  0.89950400  1
  O  O69  1  0.63875000  0.35537100  0.82508900  1
  O  O70  1  0.35048250  0.16706450  0.45616900  1
  O  O71  1  0.38778450  0.09372250  0.17062500  1
  O  O72  1  0.23083100  0.29382300  0.21055700  1
  O  O73  1  0.13875000  0.14462900  0.32508900  1
  O  O74  1  0.36125000  0.35537100  0.67491100  1
  O  O75  1  0.85048250  0.33293550  0.95616900  1
  O  O76  1  0.83598150  0.23938750  0.43269100  1
  O  O77  1  0.66401850  0.26061250  0.56730900  1
  O  O78  1  0.76450800  0.02129700  0.46017200  1
  O  O79  1  0.25834200  0.15167900  0.63287900  1
  O  O80  1  0.61221550  0.09372250  0.32937500  1
  O  O81  1  0.64951750  0.16706450  0.04383100  1
  O  O82  1  0.11221550  0.40627750  0.82937500  1
  O  O83  1  0.26916900  0.20617700  0.78944300  1
  O  O84  1  0.16401850  0.23938750  0.06730900  1
  O  O85  1  0.71954850  0.04028550  0.60049600  1
  O  O86  1  0.73083100  0.20617700  0.71055700  1
  O  O87  1  0.75834200  0.34832100  0.13287900  1
  O  O88  1  0.86125000  0.14462900  0.17491100  1
  O  O89  1  0.88778450  0.40627750  0.67062500  1
  O  O90  1  0.78045150  0.45971450  0.39950400  1
  O  O91  1  0.24165800  0.34832100  0.36712100  1
  O  O92  1  0.33598150  0.26061250  0.93269100  1
  O  O93  1  0.26450800  0.47870300  0.96017200  1
  O  O94  1  0.73549200  0.47870300  0.53982800  1
  O  O95  1  0.23549200  0.02129700  0.03982800  1
