# generated using pymatgen
data_Cs3Tb2Br9
_symmetry_space_group_name_H-M   'P 1'
_cell_length_a   14.04362511
_cell_length_b   14.04362511
_cell_length_c   19.96158363
_cell_angle_alpha   90.00000000
_cell_angle_beta   90.00000000
_cell_angle_gamma   120.00000000
_symmetry_Int_Tables_number   1
_chemical_formula_structural   Cs3Tb2Br9
_chemical_formula_sum   'Cs18 Tb12 Br54'
_cell_volume   3409.44806833
_cell_formula_units_Z   6
loop_
 _symmetry_equiv_pos_site_id
 _symmetry_equiv_pos_as_xyz
  1  'x, y, z'
loop_
 _atom_site_type_symbol
 _atom_site_label
 _atom_site_symmetry_multiplicity
 _atom_site_fract_x
 _atom_site_fract_y
 _atom_site_fract_z
 _atom_site_occupancy
  Cs  Cs0  1  0.32847967  0.33333333  0.08333333  1
  Cs  Cs1  1  0.66666667  0.99514633  0.08333333  1
  Cs  Cs2  1  0.33818700  0.00000000  0.25000000  1
  Cs  Cs3  1  0.00485367  0.67152033  0.08333333  1
  Cs  Cs4  1  0.00000000  0.33818700  0.25000000  1
  Cs  Cs5  1  0.66181300  0.66181300  0.25000000  1
  Cs  Cs6  1  0.99514633  0.66666667  0.41666667  1
  Cs  Cs7  1  0.33333333  0.32847967  0.41666667  1
  Cs  Cs8  1  0.00485367  0.33333333  0.58333333  1
  Cs  Cs9  1  0.67152033  0.00485367  0.41666667  1
  Cs  Cs10  1  0.66666667  0.67152033  0.58333333  1
  Cs  Cs11  1  0.32847967  0.99514633  0.58333333  1
  Cs  Cs12  1  0.66181300  0.00000000  0.75000000  1
  Cs  Cs13  1  0.00000000  0.66181300  0.75000000  1
  Cs  Cs14  1  0.67152033  0.66666667  0.91666667  1
  Cs  Cs15  1  0.33818700  0.33818700  0.75000000  1
  Cs  Cs16  1  0.33333333  0.00485367  0.91666667  1
  Cs  Cs17  1  0.99514633  0.32847967  0.91666667  1
  Tb  Tb18  1  0.33333333  0.66666667  0.01557667  1
  Tb  Tb19  1  0.33333333  0.66666667  0.31775667  1
  Tb  Tb20  1  0.33333333  0.66666667  0.51557667  1
  Tb  Tb21  1  0.33333333  0.66666667  0.81775667  1
  Tb  Tb22  1  0.00000000  0.00000000  0.34891000  1
  Tb  Tb23  1  0.00000000  0.00000000  0.65109000  1
  Tb  Tb24  1  0.00000000  0.00000000  0.84891000  1
  Tb  Tb25  1  1.00000000  0.00000000  0.15109000  1
  Tb  Tb26  1  0.66666667  0.33333333  0.68224333  1
  Tb  Tb27  1  0.66666667  0.33333333  0.98442333  1
  Tb  Tb28  1  0.66666667  0.33333333  0.18224333  1
  Tb  Tb29  1  0.66666667  0.33333333  0.48442333  1
  Br  Br30  1  0.50972967  0.83611233  0.25461533  1
  Br  Br31  1  0.34028400  0.84306300  0.07871800  1
  Br  Br32  1  0.33333333  0.51197267  0.91666667  1
  Br  Br33  1  0.48802733  0.82136067  0.91666667  1
  Br  Br34  1  0.49027033  0.32638267  0.24538467  1
  Br  Br35  1  0.99304933  0.16944567  0.08794867  1
  Br  Br36  1  0.33333333  0.82136067  0.41666667  1
  Br  Br37  1  0.48802733  0.66666667  0.41666667  1
  Br  Br38  1  0.16388767  0.67361733  0.25461533  1
  Br  Br39  1  0.17863933  0.66666667  0.91666667  1
  Br  Br40  1  0.32638267  0.49027033  0.25461533  1
  Br  Br41  1  0.83611233  0.50972967  0.24538467  1
  Br  Br42  1  0.17639633  0.00695067  0.08794867  1
  Br  Br43  1  0.50277900  0.65971600  0.07871800  1
  Br  Br44  1  0.15693700  0.49722100  0.07871800  1
  Br  Br45  1  0.17863933  0.51197267  0.41666667  1
  Br  Br46  1  0.83055433  0.82360367  0.08794867  1
  Br  Br47  1  0.67361733  0.16388767  0.24538467  1
  Br  Br48  1  0.17639633  0.16944567  0.58794867  1
  Br  Br49  1  0.00695067  0.17639633  0.41205133  1
  Br  Br50  1  0.00000000  0.84530600  0.25000000  1
  Br  Br51  1  0.15469400  0.15469400  0.25000000  1
  Br  Br52  1  0.15693700  0.65971600  0.57871800  1
  Br  Br53  1  0.65971600  0.50277900  0.42128200  1
  Br  Br54  1  0.00000000  0.15469400  0.75000000  1
  Br  Br55  1  0.15469400  0.00000000  0.75000000  1
  Br  Br56  1  0.83055433  0.00695067  0.58794867  1
  Br  Br57  1  0.84530600  0.00000000  0.25000000  1
  Br  Br58  1  0.99304933  0.82360367  0.58794867  1
  Br  Br59  1  0.50277900  0.84306300  0.57871800  1
  Br  Br60  1  0.84306300  0.34028400  0.42128200  1
  Br  Br61  1  0.16944567  0.99304933  0.41205133  1
  Br  Br62  1  0.82360367  0.83055433  0.41205133  1
  Br  Br63  1  0.84530600  0.84530600  0.75000000  1
  Br  Br64  1  0.49722100  0.15693700  0.42128200  1
  Br  Br65  1  0.34028400  0.49722100  0.57871800  1
  Br  Br66  1  0.84306300  0.50277900  0.92128200  1
  Br  Br67  1  0.67361733  0.50972967  0.74538467  1
  Br  Br68  1  0.66666667  0.17863933  0.58333333  1
  Br  Br69  1  0.82136067  0.48802733  0.58333333  1
  Br  Br70  1  0.82360367  0.99304933  0.91205133  1
  Br  Br71  1  0.32638267  0.83611233  0.75461533  1
  Br  Br72  1  0.66666667  0.48802733  0.08333333  1
  Br  Br73  1  0.82136067  0.33333333  0.08333333  1
  Br  Br74  1  0.49722100  0.34028400  0.92128200  1
  Br  Br75  1  0.51197267  0.33333333  0.58333333  1
  Br  Br76  1  0.65971600  0.15693700  0.92128200  1
  Br  Br77  1  0.16944567  0.17639633  0.91205133  1
  Br  Br78  1  0.50972967  0.67361733  0.75461533  1
  Br  Br79  1  0.83611233  0.32638267  0.74538467  1
  Br  Br80  1  0.49027033  0.16388767  0.74538467  1
  Br  Br81  1  0.51197267  0.17863933  0.08333333  1
  Br  Br82  1  0.16388767  0.49027033  0.75461533  1
  Br  Br83  1  0.00695067  0.83055433  0.91205133  1
