# generated using pymatgen
data_NaHCN2
_symmetry_space_group_name_H-M   'P 1'
_cell_length_a   3.57692500
_cell_length_b   6.51462800
_cell_length_c   10.49068000
_cell_angle_alpha   90.00000000
_cell_angle_beta   90.00000000
_cell_angle_gamma   90.00000000
_symmetry_Int_Tables_number   1
_chemical_formula_structural   NaHCN2
_chemical_formula_sum   'Na4 H4 C4 N8'
_cell_volume   244.45734770
_cell_formula_units_Z   4
loop_
 _symmetry_equiv_pos_site_id
 _symmetry_equiv_pos_as_xyz
  1  'x, y, z'
loop_
 _atom_site_type_symbol
 _atom_site_label
 _atom_site_symmetry_multiplicity
 _atom_site_fract_x
 _atom_site_fract_y
 _atom_site_fract_z
 _atom_site_occupancy
  Na  Na0  1  0.23799300  0.50000000  0.75000000  1
  Na  Na1  1  0.76200700  0.00000000  0.25000000  1
  Na  Na2  1  0.76200700  0.50000000  0.25000000  1
  Na  Na3  1  0.23799300  0.00000000  0.75000000  1
  H  H4  1  0.16067700  0.75000000  0.08348600  1
  H  H5  1  0.83932300  0.25000000  0.91651400  1
  H  H6  1  0.16067700  0.25000000  0.41651400  1
  H  H7  1  0.83932300  0.75000000  0.58348600  1
  C  C8  1  0.79101200  0.75000000  0.95339700  1
  C  C9  1  0.20898800  0.25000000  0.04660300  1
  C  C10  1  0.79101200  0.25000000  0.54660300  1
  C  C11  1  0.20898800  0.75000000  0.45339700  1
  N  N12  1  0.69619700  0.75000000  0.84336600  1
  N  N13  1  0.30380300  0.25000000  0.15663400  1
  N  N14  1  0.69619700  0.25000000  0.65663400  1
  N  N15  1  0.30380300  0.75000000  0.34336600  1
  N  N16  1  0.87575700  0.75000000  0.07184300  1
  N  N17  1  0.12424300  0.25000000  0.92815700  1
  N  N18  1  0.87575700  0.25000000  0.42815700  1
  N  N19  1  0.12424300  0.75000000  0.57184300  1
