# generated using pymatgen
data_H4CSN2
_symmetry_space_group_name_H-M   'P 1'
_cell_length_a   5.49760600
_cell_length_b   7.50470300
_cell_length_c   8.52882000
_cell_angle_alpha   90.00000000
_cell_angle_beta   90.00000000
_cell_angle_gamma   90.00000000
_symmetry_Int_Tables_number   1
_chemical_formula_structural   H4CSN2
_chemical_formula_sum   'H8 C2 S2 N4'
_cell_volume   351.88120473
_cell_formula_units_Z   2
loop_
 _symmetry_equiv_pos_site_id
 _symmetry_equiv_pos_as_xyz
  1  'x, y, z'
loop_
 _atom_site_type_symbol
 _atom_site_label
 _atom_site_symmetry_multiplicity
 _atom_site_fract_x
 _atom_site_fract_y
 _atom_site_fract_z
 _atom_site_occupancy
  H  H0  1  0.25304800  0.63696100  0.13080600  1
  H  H1  1  0.25304800  0.63696100  0.86919400  1
  H  H2  1  0.74695200  0.13696100  0.86919400  1
  H  H3  1  0.74695200  0.13696100  0.13080600  1
  H  H4  1  0.99313800  0.57691200  0.23763900  1
  H  H5  1  0.99313800  0.57691200  0.76236100  1
  H  H6  1  0.00686200  0.07691200  0.76236100  1
  H  H7  1  0.00686200  0.07691200  0.23763900  1
  C  C8  1  0.94868500  0.57256500  0.00000000  1
  C  C9  1  0.05131500  0.07256500  0.00000000  1
  S  S10  1  0.65473800  0.50555600  0.00000000  1
  S  S11  1  0.34526200  0.00555600  0.00000000  1
  N  N12  1  0.07472400  0.60016600  0.13360200  1
  N  N13  1  0.07472400  0.60016600  0.86639800  1
  N  N14  1  0.92527600  0.10016600  0.86639800  1
  N  N15  1  0.92527600  0.10016600  0.13360200  1
