# generated using pymatgen
data_Na2ZrSi4O11
_symmetry_space_group_name_H-M   'P 1'
_cell_length_a   11.19124200
_cell_length_b   10.24734800
_cell_length_c   8.69353770
_cell_angle_alpha   90.00000000
_cell_angle_beta   100.48098183
_cell_angle_gamma   90.00000000
_symmetry_Int_Tables_number   1
_chemical_formula_structural   Na2ZrSi4O11
_chemical_formula_sum   'Na8 Zr4 Si16 O44'
_cell_volume   980.34543153
_cell_formula_units_Z   4
loop_
 _symmetry_equiv_pos_site_id
 _symmetry_equiv_pos_as_xyz
  1  'x, y, z'
loop_
 _atom_site_type_symbol
 _atom_site_label
 _atom_site_symmetry_multiplicity
 _atom_site_fract_x
 _atom_site_fract_y
 _atom_site_fract_z
 _atom_site_occupancy
  Na  Na0  1  0.00000000  0.07562500  0.25000000  1
  Na  Na1  1  0.00000000  0.92437500  0.75000000  1
  Na  Na2  1  0.00000000  0.39418100  0.25000000  1
  Na  Na3  1  0.00000000  0.60581900  0.75000000  1
  Na  Na4  1  0.50000000  0.57562500  0.25000000  1
  Na  Na5  1  0.50000000  0.42437500  0.75000000  1
  Na  Na6  1  0.50000000  0.89418100  0.25000000  1
  Na  Na7  1  0.50000000  0.10581900  0.75000000  1
  Zr  Zr8  1  0.75000000  0.75000000  0.50000000  1
  Zr  Zr9  1  0.25000000  0.75000000  0.00000000  1
  Zr  Zr10  1  0.25000000  0.25000000  0.50000000  1
  Zr  Zr11  1  0.75000000  0.25000000  0.00000000  1
  Si  Si12  1  0.76426800  0.42777400  0.63927300  1
  Si  Si13  1  0.23573200  0.57222600  0.36072700  1
  Si  Si14  1  0.76426800  0.57222600  0.13927300  1
  Si  Si15  1  0.94978150  0.78282750  0.07308300  1
  Si  Si16  1  0.05021850  0.78282750  0.42691700  1
  Si  Si17  1  0.05021850  0.21717250  0.92691700  1
  Si  Si18  1  0.94978150  0.21717250  0.57308300  1
  Si  Si19  1  0.23573200  0.42777400  0.86072700  1
  Si  Si20  1  0.26426800  0.92777400  0.63927300  1
  Si  Si21  1  0.73573200  0.07222600  0.36072700  1
  Si  Si22  1  0.26426800  0.07222600  0.13927300  1
  Si  Si23  1  0.44978150  0.28282750  0.07308300  1
  Si  Si24  1  0.55021850  0.28282750  0.42691700  1
  Si  Si25  1  0.55021850  0.71717250  0.92691700  1
  Si  Si26  1  0.44978150  0.71717250  0.57308300  1
  Si  Si27  1  0.73573200  0.92777400  0.86072700  1
  O  O28  1  0.21095700  0.41677400  0.35466900  1
  O  O29  1  0.78904300  0.41677400  0.14533100  1
  O  O30  1  0.78904300  0.58322600  0.64533100  1
  O  O31  1  0.21095700  0.58322600  0.85466900  1
  O  O32  1  0.26156350  0.36563950  0.69891200  1
  O  O33  1  0.73843650  0.36563950  0.80108800  1
  O  O34  1  0.73843650  0.63436050  0.30108800  1
  O  O35  1  0.26156350  0.63436050  0.19891200  1
  O  O36  1  0.94485150  0.76849450  0.53091300  1
  O  O37  1  0.05514850  0.76849450  0.96908700  1
  O  O38  1  0.05514850  0.23150550  0.46908700  1
  O  O39  1  0.94485150  0.23150550  0.03091300  1
  O  O40  1  0.88503500  0.64110100  0.08615100  1
  O  O41  1  0.11496500  0.64110100  0.41384900  1
  O  O42  1  0.00000000  0.15929600  0.75000000  1
  O  O43  1  0.00000000  0.84070400  0.25000000  1
  O  O44  1  0.35615900  0.60255800  0.49629900  1
  O  O45  1  0.64384100  0.60255800  0.00370100  1
  O  O46  1  0.64384100  0.39744200  0.50370100  1
  O  O47  1  0.35615900  0.39744200  0.99629900  1
  O  O48  1  0.88503500  0.35889900  0.58615100  1
  O  O49  1  0.11496500  0.35889900  0.91384900  1
  O  O50  1  0.71095700  0.91677400  0.35466900  1
  O  O51  1  0.28904300  0.91677400  0.14533100  1
  O  O52  1  0.28904300  0.08322600  0.64533100  1
  O  O53  1  0.71095700  0.08322600  0.85466900  1
  O  O54  1  0.76156350  0.86563950  0.69891200  1
  O  O55  1  0.23843650  0.86563950  0.80108800  1
  O  O56  1  0.23843650  0.13436050  0.30108800  1
  O  O57  1  0.76156350  0.13436050  0.19891200  1
  O  O58  1  0.44485150  0.26849450  0.53091300  1
  O  O59  1  0.55514850  0.26849450  0.96908700  1
  O  O60  1  0.55514850  0.73150550  0.46908700  1
  O  O61  1  0.44485150  0.73150550  0.03091300  1
  O  O62  1  0.38503500  0.14110100  0.08615100  1
  O  O63  1  0.61496500  0.14110100  0.41384900  1
  O  O64  1  0.50000000  0.65929600  0.75000000  1
  O  O65  1  0.50000000  0.34070400  0.25000000  1
  O  O66  1  0.85615900  0.10255800  0.49629900  1
  O  O67  1  0.14384100  0.10255800  0.00370100  1
  O  O68  1  0.14384100  0.89744200  0.50370100  1
  O  O69  1  0.85615900  0.89744200  0.99629900  1
  O  O70  1  0.38503500  0.85889900  0.58615100  1
  O  O71  1  0.61496500  0.85889900  0.91384900  1
