# generated using pymatgen
data_Cs2NaAlF6
_symmetry_space_group_name_H-M   'P 1'
_cell_length_a   6.27687027
_cell_length_b   6.27687027
_cell_length_c   30.38907861
_cell_angle_alpha   90.00000000
_cell_angle_beta   90.00000000
_cell_angle_gamma   120.00000000
_symmetry_Int_Tables_number   1
_chemical_formula_structural   Cs2NaAlF6
_chemical_formula_sum   'Cs12 Na6 Al6 F36'
_cell_volume   1036.89425917
_cell_formula_units_Z   6
loop_
 _symmetry_equiv_pos_site_id
 _symmetry_equiv_pos_as_xyz
  1  'x, y, z'
loop_
 _atom_site_type_symbol
 _atom_site_label
 _atom_site_symmetry_multiplicity
 _atom_site_fract_x
 _atom_site_fract_y
 _atom_site_fract_z
 _atom_site_occupancy
  Cs  Cs0  1  0.66666667  0.33333333  0.11386533  1
  Cs  Cs1  1  0.00000000  0.00000000  0.21946800  1
  Cs  Cs2  1  0.33333333  0.66666667  0.03852667  1
  Cs  Cs3  1  0.33333333  0.66666667  0.29480667  1
  Cs  Cs4  1  0.33333333  0.66666667  0.44719867  1
  Cs  Cs5  1  0.66666667  0.33333333  0.55280133  1
  Cs  Cs6  1  0.00000000  0.00000000  0.37186000  1
  Cs  Cs7  1  0.00000000  0.00000000  0.62814000  1
  Cs  Cs8  1  0.00000000  0.00000000  0.78053200  1
  Cs  Cs9  1  0.33333333  0.66666667  0.88613467  1
  Cs  Cs10  1  0.66666667  0.33333333  0.70519333  1
  Cs  Cs11  1  0.66666667  0.33333333  0.96147333  1
  Na  Na12  1  0.00000000  0.00000000  0.09789700  1
  Na  Na13  1  0.66666667  0.33333333  0.23543633  1
  Na  Na14  1  0.66666667  0.33333333  0.43123033  1
  Na  Na15  1  0.33333333  0.66666667  0.56876967  1
  Na  Na16  1  0.33333333  0.66666667  0.76456367  1
  Na  Na17  1  0.00000000  0.00000000  0.90210300  1
  Al  Al18  1  0.00000000  0.00000000  0.00000000  1
  Al  Al19  1  0.33333333  0.66666667  0.16666667  1
  Al  Al20  1  0.66666667  0.33333333  0.33333333  1
  Al  Al21  1  1.00000000  1.00000000  0.50000000  1
  Al  Al22  1  0.33333333  0.66666667  0.66666667  1
  Al  Al23  1  0.66666667  0.33333333  0.83333333  1
  F  F24  1  0.47383467  0.52616533  0.20146533  1
  F  F25  1  0.19283200  0.38566400  0.13186800  1
  F  F26  1  0.61433600  0.80716800  0.13186800  1
  F  F27  1  0.05233067  0.52616533  0.20146533  1
  F  F28  1  0.86365333  0.13634667  0.03617467  1
  F  F29  1  0.86365333  0.72730667  0.03617467  1
  F  F30  1  0.27269333  0.13634667  0.03617467  1
  F  F31  1  0.47383467  0.94766933  0.20146533  1
  F  F32  1  0.80301333  0.19698667  0.29715867  1
  F  F33  1  0.80301333  0.60602667  0.29715867  1
  F  F34  1  0.39397333  0.19698667  0.29715867  1
  F  F35  1  0.19283200  0.80716800  0.13186800  1
  F  F36  1  0.14050133  0.85949867  0.53479867  1
  F  F37  1  0.85949867  0.71899733  0.46520133  1
  F  F38  1  0.28100267  0.14050133  0.46520133  1
  F  F39  1  0.71899733  0.85949867  0.53479867  1
  F  F40  1  0.53032000  0.46968000  0.36950800  1
  F  F41  1  0.53032000  0.06064000  0.36950800  1
  F  F42  1  0.93936000  0.46968000  0.36950800  1
  F  F43  1  0.14050133  0.28100267  0.53479867  1
  F  F44  1  0.46968000  0.53032000  0.63049200  1
  F  F45  1  0.46968000  0.93936000  0.63049200  1
  F  F46  1  0.06064000  0.53032000  0.63049200  1
  F  F47  1  0.85949867  0.14050133  0.46520133  1
  F  F48  1  0.80716800  0.19283200  0.86813200  1
  F  F49  1  0.52616533  0.05233067  0.79853467  1
  F  F50  1  0.94766933  0.47383467  0.79853467  1
  F  F51  1  0.38566400  0.19283200  0.86813200  1
  F  F52  1  0.19698667  0.80301333  0.70284133  1
  F  F53  1  0.19698667  0.39397333  0.70284133  1
  F  F54  1  0.60602667  0.80301333  0.70284133  1
  F  F55  1  0.80716800  0.61433600  0.86813200  1
  F  F56  1  0.13634667  0.86365333  0.96382533  1
  F  F57  1  0.13634667  0.27269333  0.96382533  1
  F  F58  1  0.72730667  0.86365333  0.96382533  1
  F  F59  1  0.52616533  0.47383467  0.79853467  1
