# generated using pymatgen
data_Sr3LiRuO6
_symmetry_space_group_name_H-M   'P 1'
_cell_length_a   9.73892132
_cell_length_b   9.73892132
_cell_length_c   11.22254722
_cell_angle_alpha   90.00000000
_cell_angle_beta   90.00000000
_cell_angle_gamma   120.00000000
_symmetry_Int_Tables_number   1
_chemical_formula_structural   Sr3LiRuO6
_chemical_formula_sum   'Sr18 Li6 Ru6 O36'
_cell_volume   921.81503520
_cell_formula_units_Z   6
loop_
 _symmetry_equiv_pos_site_id
 _symmetry_equiv_pos_as_xyz
  1  'x, y, z'
loop_
 _atom_site_type_symbol
 _atom_site_label
 _atom_site_symmetry_multiplicity
 _atom_site_fract_x
 _atom_site_fract_y
 _atom_site_fract_z
 _atom_site_occupancy
  Sr  Sr0  1  0.02497167  0.69163833  0.58333333  1
  Sr  Sr1  1  0.66666667  0.97502833  0.58333333  1
  Sr  Sr2  1  0.69163833  0.66666667  0.41666667  1
  Sr  Sr3  1  0.33333333  0.02497167  0.41666667  1
  Sr  Sr4  1  0.97502833  0.30836167  0.41666667  1
  Sr  Sr5  1  0.30836167  0.33333333  0.58333333  1
  Sr  Sr6  1  0.69163833  0.02497167  0.91666667  1
  Sr  Sr7  1  0.33333333  0.30836167  0.91666667  1
  Sr  Sr8  1  0.35830500  0.00000000  0.75000000  1
  Sr  Sr9  1  1.00000000  0.35830500  0.75000000  1
  Sr  Sr10  1  0.64169500  0.64169500  0.75000000  1
  Sr  Sr11  1  0.97502833  0.66666667  0.91666667  1
  Sr  Sr12  1  0.35830500  0.35830500  0.25000000  1
  Sr  Sr13  1  0.00000000  0.64169500  0.25000000  1
  Sr  Sr14  1  0.02497167  0.33333333  0.08333333  1
  Sr  Sr15  1  0.66666667  0.69163833  0.08333333  1
  Sr  Sr16  1  0.30836167  0.97502833  0.08333333  1
  Sr  Sr17  1  0.64169500  1.00000000  0.25000000  1
  Li  Li18  1  0.00000000  0.00000000  0.25000000  1
  Li  Li19  1  0.00000000  0.00000000  0.75000000  1
  Li  Li20  1  0.66666667  0.33333333  0.58333333  1
  Li  Li21  1  0.66666667  0.33333333  0.08333333  1
  Li  Li22  1  0.33333333  0.66666667  0.91666667  1
  Li  Li23  1  0.33333333  0.66666667  0.41666667  1
  Ru  Ru24  1  0.00000000  0.00000000  0.00000000  1
  Ru  Ru25  1  0.00000000  0.00000000  0.50000000  1
  Ru  Ru26  1  0.66666667  0.33333333  0.33333333  1
  Ru  Ru27  1  0.66666667  0.33333333  0.83333333  1
  Ru  Ru28  1  0.33333333  0.66666667  0.66666667  1
  Ru  Ru29  1  0.33333333  0.66666667  0.16666667  1
  O  O30  1  0.84737033  0.82484267  0.60515867  1
  O  O31  1  0.48596300  0.64413900  0.56150800  1
  O  O32  1  0.35586100  0.84182400  0.56150800  1
  O  O33  1  0.15817600  0.51403700  0.56150800  1
  O  O34  1  0.17515733  0.02252767  0.60515867  1
  O  O35  1  0.97747233  0.15262967  0.60515867  1
  O  O36  1  0.82484267  0.97747233  0.39484133  1
  O  O37  1  0.02252767  0.84737033  0.39484133  1
  O  O38  1  0.84182400  0.48596300  0.43849200  1
  O  O39  1  0.64413900  0.15817600  0.43849200  1
  O  O40  1  0.51403700  0.35586100  0.43849200  1
  O  O41  1  0.15262967  0.17515733  0.39484133  1
  O  O42  1  0.51403700  0.15817600  0.93849200  1
  O  O43  1  0.15262967  0.97747233  0.89484133  1
  O  O44  1  0.02252767  0.17515733  0.89484133  1
  O  O45  1  0.82484267  0.84737033  0.89484133  1
  O  O46  1  0.84182400  0.35586100  0.93849200  1
  O  O47  1  0.64413900  0.48596300  0.93849200  1
  O  O48  1  0.49150933  0.31080567  0.72817467  1
  O  O49  1  0.68919433  0.18070367  0.72817467  1
  O  O50  1  0.50849067  0.81929633  0.77182533  1
  O  O51  1  0.31080567  0.49150933  0.77182533  1
  O  O52  1  0.18070367  0.68919433  0.77182533  1
  O  O53  1  0.81929633  0.50849067  0.72817467  1
  O  O54  1  0.18070367  0.49150933  0.27182533  1
  O  O55  1  0.81929633  0.31080567  0.22817467  1
  O  O56  1  0.68919433  0.50849067  0.22817467  1
  O  O57  1  0.49150933  0.18070367  0.22817467  1
  O  O58  1  0.50849067  0.68919433  0.27182533  1
  O  O59  1  0.31080567  0.81929633  0.27182533  1
  O  O60  1  0.15817600  0.64413900  0.06150800  1
  O  O61  1  0.35586100  0.51403700  0.06150800  1
  O  O62  1  0.17515733  0.15262967  0.10515867  1
  O  O63  1  0.97747233  0.82484267  0.10515867  1
  O  O64  1  0.84737033  0.02252767  0.10515867  1
  O  O65  1  0.48596300  0.84182400  0.06150800  1
