# generated using pymatgen
data_Y3U2O10
_symmetry_space_group_name_H-M   'P 1'
_cell_length_a   11.77963800
_cell_length_b   5.36835400
_cell_length_c   8.37113463
_cell_angle_alpha   90.00000000
_cell_angle_beta   133.11032386
_cell_angle_gamma   90.00000000
_symmetry_Int_Tables_number   1
_chemical_formula_structural   Y3U2O10
_chemical_formula_sum   'Y6 U4 O20'
_cell_volume   386.45912601
_cell_formula_units_Z   2
loop_
 _symmetry_equiv_pos_site_id
 _symmetry_equiv_pos_as_xyz
  1  'x, y, z'
loop_
 _atom_site_type_symbol
 _atom_site_label
 _atom_site_symmetry_multiplicity
 _atom_site_fract_x
 _atom_site_fract_y
 _atom_site_fract_z
 _atom_site_occupancy
  Y  Y0  1  0.39771200  0.50000000  0.59575500  1
  Y  Y1  1  0.00000000  0.50000000  0.00000000  1
  Y  Y2  1  0.60228800  0.50000000  0.40424500  1
  Y  Y3  1  0.89771200  0.00000000  0.59575500  1
  Y  Y4  1  0.50000000  0.00000000  0.00000000  1
  Y  Y5  1  0.10228800  0.00000000  0.40424500  1
  U  U6  1  0.69678000  0.00000000  0.79415400  1
  U  U7  1  0.30322000  0.00000000  0.20584600  1
  U  U8  1  0.19678000  0.50000000  0.79415400  1
  U  U9  1  0.80322000  0.50000000  0.20584600  1
  O  O10  1  0.20491550  0.24210650  0.29155300  1
  O  O11  1  0.79508450  0.24210650  0.70844700  1
  O  O12  1  0.20491550  0.75789350  0.29155300  1
  O  O13  1  0.39483050  0.25010650  0.10644100  1
  O  O14  1  0.79508450  0.75789350  0.70844700  1
  O  O15  1  0.50000000  0.76622100  0.50000000  1
  O  O16  1  0.39483050  0.74989350  0.10644100  1
  O  O17  1  0.60516950  0.25010650  0.89355900  1
  O  O18  1  0.50000000  0.23377900  0.50000000  1
  O  O19  1  0.60516950  0.74989350  0.89355900  1
  O  O20  1  0.70491550  0.74210650  0.29155300  1
  O  O21  1  0.29508450  0.74210650  0.70844700  1
  O  O22  1  0.70491550  0.25789350  0.29155300  1
  O  O23  1  0.89483050  0.75010650  0.10644100  1
  O  O24  1  0.29508450  0.25789350  0.70844700  1
  O  O25  1  0.00000000  0.26622100  0.50000000  1
  O  O26  1  0.89483050  0.24989350  0.10644100  1
  O  O27  1  0.10516950  0.75010650  0.89355900  1
  O  O28  1  0.00000000  0.73377900  0.50000000  1
  O  O29  1  0.10516950  0.24989350  0.89355900  1
