# generated using pymatgen
data_Ga6SnTe10
_symmetry_space_group_name_H-M   'P 1'
_cell_length_a   14.86011800
_cell_length_b   14.71532600
_cell_length_c   10.47087823
_cell_angle_alpha   90.00000000
_cell_angle_beta   90.19271035
_cell_angle_gamma   90.00000000
_symmetry_Int_Tables_number   1
_chemical_formula_structural   Ga6SnTe10
_chemical_formula_sum   'Ga24 Sn4 Te40'
_cell_volume   2289.66949559
_cell_formula_units_Z   4
loop_
 _symmetry_equiv_pos_site_id
 _symmetry_equiv_pos_as_xyz
  1  'x, y, z'
loop_
 _atom_site_type_symbol
 _atom_site_label
 _atom_site_symmetry_multiplicity
 _atom_site_fract_x
 _atom_site_fract_y
 _atom_site_fract_z
 _atom_site_occupancy
  Ga  Ga0  1  0.29264250  0.13356350  0.87784900  1
  Ga  Ga1  1  0.27725550  0.84915050  0.83955600  1
  Ga  Ga2  1  0.54416750  0.19974250  0.82907400  1
  Ga  Ga3  1  0.74427750  0.08595450  0.74458600  1
  Ga  Ga4  1  0.45730350  0.71528450  0.66222400  1
  Ga  Ga5  1  0.14200350  0.01919150  0.57546600  1
  Ga  Ga6  1  0.85799650  0.01919150  0.42453400  1
  Ga  Ga7  1  0.54269650  0.71528450  0.33777600  1
  Ga  Ga8  1  0.25572250  0.08595450  0.25541400  1
  Ga  Ga9  1  0.45583250  0.19974250  0.17092600  1
  Ga  Ga10  1  0.72274450  0.84915050  0.16044400  1
  Ga  Ga11  1  0.70735750  0.13356350  0.12215100  1
  Ga  Ga12  1  0.79264250  0.63356350  0.87784900  1
  Ga  Ga13  1  0.77725550  0.34915050  0.83955600  1
  Ga  Ga14  1  0.04416750  0.69974250  0.82907400  1
  Ga  Ga15  1  0.24427750  0.58595450  0.74458600  1
  Ga  Ga16  1  0.95730350  0.21528450  0.66222400  1
  Ga  Ga17  1  0.64200350  0.51919150  0.57546600  1
  Ga  Ga18  1  0.35799650  0.51919150  0.42453400  1
  Ga  Ga19  1  0.04269650  0.21528450  0.33777600  1
  Ga  Ga20  1  0.75572250  0.58595450  0.25541400  1
  Ga  Ga21  1  0.95583250  0.69974250  0.17092600  1
  Ga  Ga22  1  0.22274450  0.34915050  0.16044400  1
  Ga  Ga23  1  0.20735750  0.63356350  0.12215100  1
  Sn  Sn24  1  0.86727450  0.87116850  0.74556700  1
  Sn  Sn25  1  0.13272550  0.87116850  0.25443300  1
  Sn  Sn26  1  0.36727450  0.37116850  0.74556700  1
  Sn  Sn27  1  0.63272550  0.37116850  0.25443300  1
  Te  Te28  1  0.50000000  0.32595100  0.00000000  1
  Te  Te29  1  0.62044950  0.04874050  0.92912000  1
  Te  Te30  1  0.70740650  0.79060150  0.91675100  1
  Te  Te31  1  0.16925400  0.99959300  0.83132100  1
  Te  Te32  1  0.91150150  0.08757850  0.82969000  1
  Te  Te33  1  0.43904400  0.87982200  0.75044900  1
  Te  Te34  1  0.40383600  0.15861300  0.68016900  1
  Te  Te35  1  0.67870200  0.25004200  0.67114600  1
  Te  Te36  1  0.62833900  0.69981100  0.57005500  1
  Te  Te37  1  0.71788150  0.96114050  0.56304100  1
  Te  Te38  1  0.50000000  0.41755900  0.50000000  1
  Te  Te39  1  0.28211850  0.96114050  0.43695900  1
  Te  Te40  1  0.37166100  0.69981100  0.42994500  1
  Te  Te41  1  0.32129800  0.25004200  0.32885400  1
  Te  Te42  1  0.59616400  0.15861300  0.31983100  1
  Te  Te43  1  0.56095600  0.87982200  0.24955100  1
  Te  Te44  1  0.08849850  0.08757850  0.17031000  1
  Te  Te45  1  0.83074600  0.99959300  0.16867900  1
  Te  Te46  1  0.29259350  0.79060150  0.08324900  1
  Te  Te47  1  0.37955050  0.04874050  0.07088000  1
  Te  Te48  1  0.00000000  0.82595100  0.00000000  1
  Te  Te49  1  0.12044950  0.54874050  0.92912000  1
  Te  Te50  1  0.20740650  0.29060150  0.91675100  1
  Te  Te51  1  0.66925400  0.49959300  0.83132100  1
  Te  Te52  1  0.41150150  0.58757850  0.82969000  1
  Te  Te53  1  0.93904400  0.37982200  0.75044900  1
  Te  Te54  1  0.90383600  0.65861300  0.68016900  1
  Te  Te55  1  0.17870200  0.75004200  0.67114600  1
  Te  Te56  1  0.12833900  0.19981100  0.57005500  1
  Te  Te57  1  0.21788150  0.46114050  0.56304100  1
  Te  Te58  1  0.00000000  0.91755900  0.50000000  1
  Te  Te59  1  0.78211850  0.46114050  0.43695900  1
  Te  Te60  1  0.87166100  0.19981100  0.42994500  1
  Te  Te61  1  0.82129800  0.75004200  0.32885400  1
  Te  Te62  1  0.09616400  0.65861300  0.31983100  1
  Te  Te63  1  0.06095600  0.37982200  0.24955100  1
  Te  Te64  1  0.58849850  0.58757850  0.17031000  1
  Te  Te65  1  0.33074600  0.49959300  0.16867900  1
  Te  Te66  1  0.79259350  0.29060150  0.08324900  1
  Te  Te67  1  0.87955050  0.54874050  0.07088000  1
