# generated using pymatgen
data_LiP(HO)2
_symmetry_space_group_name_H-M   'P 1'
_cell_length_a   9.49384200
_cell_length_b   5.51174600
_cell_length_c   6.58948908
_cell_angle_alpha   90.00000000
_cell_angle_beta   108.75153488
_cell_angle_gamma   90.00000000
_symmetry_Int_Tables_number   1
_chemical_formula_structural   LiP(HO)2
_chemical_formula_sum   'Li4 P4 H8 O8'
_cell_volume   326.51032818
_cell_formula_units_Z   4
loop_
 _symmetry_equiv_pos_site_id
 _symmetry_equiv_pos_as_xyz
  1  'x, y, z'
loop_
 _atom_site_type_symbol
 _atom_site_label
 _atom_site_symmetry_multiplicity
 _atom_site_fract_x
 _atom_site_fract_y
 _atom_site_fract_z
 _atom_site_occupancy
  Li  Li0  1  0.50000000  0.75029500  0.00000000  1
  Li  Li1  1  0.50000000  0.24970500  0.00000000  1
  Li  Li2  1  0.00000000  0.25029500  0.00000000  1
  Li  Li3  1  0.00000000  0.74970500  0.00000000  1
  P  P4  1  0.18954200  0.00000000  0.72560600  1
  P  P5  1  0.81045800  0.00000000  0.27439400  1
  P  P6  1  0.68954200  0.50000000  0.72560600  1
  P  P7  1  0.31045800  0.50000000  0.27439400  1
  H  H8  1  0.65511100  0.29819900  0.58435300  1
  H  H9  1  0.65511100  0.70180100  0.58435300  1
  H  H10  1  0.34488900  0.70180100  0.41564700  1
  H  H11  1  0.34488900  0.29819900  0.41564700  1
  H  H12  1  0.15511100  0.79819900  0.58435300  1
  H  H13  1  0.15511100  0.20180100  0.58435300  1
  H  H14  1  0.84488900  0.20180100  0.41564700  1
  H  H15  1  0.84488900  0.79819900  0.41564700  1
  O  O16  1  0.08316300  0.00000000  0.85570000  1
  O  O17  1  0.91683700  0.00000000  0.14430000  1
  O  O18  1  0.35637900  0.00000000  0.84291100  1
  O  O19  1  0.64362100  0.00000000  0.15708900  1
  O  O20  1  0.58316300  0.50000000  0.85570000  1
  O  O21  1  0.41683700  0.50000000  0.14430000  1
  O  O22  1  0.85637900  0.50000000  0.84291100  1
  O  O23  1  0.14362100  0.50000000  0.15708900  1
