# generated using pymatgen
data_NaSr2LaTi4O12
_symmetry_space_group_name_H-M   'P 1'
_cell_length_a   5.53073800
_cell_length_b   5.53073800
_cell_length_c   23.62070800
_cell_angle_alpha   90.00000000
_cell_angle_beta   90.00000000
_cell_angle_gamma   90.00000000
_symmetry_Int_Tables_number   1
_chemical_formula_structural   NaSr2LaTi4O12
_chemical_formula_sum   'Na3 Sr6 La3 Ti12 O36'
_cell_volume   722.53532097
_cell_formula_units_Z   3
loop_
 _symmetry_equiv_pos_site_id
 _symmetry_equiv_pos_as_xyz
  1  'x, y, z'
loop_
 _atom_site_type_symbol
 _atom_site_label
 _atom_site_symmetry_multiplicity
 _atom_site_fract_x
 _atom_site_fract_y
 _atom_site_fract_z
 _atom_site_occupancy
  Na  Na0  1  0.50000000  0.50000000  0.66638900  1
  Na  Na1  1  0.00000000  0.00000000  0.50000000  1
  Na  Na2  1  0.50000000  0.50000000  0.33361100  1
  Sr  Sr3  1  0.00000000  0.00000000  0.16688500  1
  Sr  Sr4  1  0.50000000  0.50000000  0.00000000  1
  Sr  Sr5  1  0.50000000  0.50000000  0.16765100  1
  Sr  Sr6  1  0.00000000  0.00000000  0.83311500  1
  Sr  Sr7  1  0.00000000  0.00000000  0.00000000  1
  Sr  Sr8  1  0.50000000  0.50000000  0.83234900  1
  La  La9  1  0.00000000  0.00000000  0.66620400  1
  La  La10  1  0.50000000  0.50000000  0.50000000  1
  La  La11  1  0.00000000  0.00000000  0.33379600  1
  Ti  Ti12  1  0.50000000  0.00000000  0.41716100  1
  Ti  Ti13  1  0.50000000  0.00000000  0.58283900  1
  Ti  Ti14  1  0.00000000  0.50000000  0.25166400  1
  Ti  Ti15  1  0.00000000  0.50000000  0.41716100  1
  Ti  Ti16  1  0.00000000  0.50000000  0.58283900  1
  Ti  Ti17  1  0.50000000  0.00000000  0.08371900  1
  Ti  Ti18  1  0.50000000  0.00000000  0.25166400  1
  Ti  Ti19  1  0.00000000  0.50000000  0.91628100  1
  Ti  Ti20  1  0.00000000  0.50000000  0.08371900  1
  Ti  Ti21  1  0.50000000  0.00000000  0.74833600  1
  Ti  Ti22  1  0.50000000  0.00000000  0.91628100  1
  Ti  Ti23  1  0.00000000  0.50000000  0.74833600  1
  O  O24  1  0.00000000  0.50000000  0.66600900  1
  O  O25  1  0.28657300  0.71342700  0.58128000  1
  O  O26  1  0.78599100  0.78599100  0.58481700  1
  O  O27  1  0.50000000  0.00000000  0.50000000  1
  O  O28  1  0.50000000  0.00000000  0.66600900  1
  O  O29  1  0.78599100  0.21400900  0.41518300  1
  O  O30  1  0.21400900  0.21400900  0.58481700  1
  O  O31  1  0.28657300  0.28657300  0.41872000  1
  O  O32  1  0.71342700  0.28657300  0.58128000  1
  O  O33  1  0.00000000  0.50000000  0.33399100  1
  O  O34  1  0.00000000  0.50000000  0.50000000  1
  O  O35  1  0.27309600  0.72690400  0.25088600  1
  O  O36  1  0.71342700  0.71342700  0.41872000  1
  O  O37  1  0.78587900  0.78587900  0.25267700  1
  O  O38  1  0.21400900  0.78599100  0.41518300  1
  O  O39  1  0.50000000  0.00000000  0.16741400  1
  O  O40  1  0.50000000  0.00000000  0.33399100  1
  O  O41  1  0.77459600  0.22540400  0.08324900  1
  O  O42  1  0.21412100  0.21412100  0.25267700  1
  O  O43  1  0.27483700  0.27483700  0.08373600  1
  O  O44  1  0.72690400  0.27309600  0.25088600  1
  O  O45  1  0.00000000  0.50000000  0.00000000  1
  O  O46  1  0.00000000  0.50000000  0.16741400  1
  O  O47  1  0.27483700  0.72516300  0.91626400  1
  O  O48  1  0.72516300  0.72516300  0.08373600  1
  O  O49  1  0.77459600  0.77459600  0.91675100  1
  O  O50  1  0.22540400  0.77459600  0.08324900  1
  O  O51  1  0.50000000  0.00000000  0.83258600  1
  O  O52  1  0.50000000  0.00000000  0.00000000  1
  O  O53  1  0.78587900  0.21412100  0.74732300  1
  O  O54  1  0.22540400  0.22540400  0.91675100  1
  O  O55  1  0.27309600  0.27309600  0.74911400  1
  O  O56  1  0.72516300  0.27483700  0.91626400  1
  O  O57  1  0.00000000  0.50000000  0.83258600  1
  O  O58  1  0.72690400  0.72690400  0.74911400  1
  O  O59  1  0.21412100  0.78587900  0.74732300  1
