# generated using pymatgen
data_Rb2NaNb6(PO8)3
_symmetry_space_group_name_H-M   'P 1'
_cell_length_a   10.50810000
_cell_length_b   13.55897000
_cell_length_c   8.57702942
_cell_angle_alpha   90.00000000
_cell_angle_beta   114.07508183
_cell_angle_gamma   90.00000000
_symmetry_Int_Tables_number   1
_chemical_formula_structural   Rb2NaNb6(PO8)3
_chemical_formula_sum   'Rb4 Na2 Nb12 P6 O48'
_cell_volume   1115.74288963
_cell_formula_units_Z   2
loop_
 _symmetry_equiv_pos_site_id
 _symmetry_equiv_pos_as_xyz
  1  'x, y, z'
loop_
 _atom_site_type_symbol
 _atom_site_label
 _atom_site_symmetry_multiplicity
 _atom_site_fract_x
 _atom_site_fract_y
 _atom_site_fract_z
 _atom_site_occupancy
  Rb  Rb0  1  0.25845350  0.84676750  0.79963000  1
  Rb  Rb1  1  0.74154650  0.84676750  0.20037000  1
  Rb  Rb2  1  0.75845350  0.34676750  0.79963000  1
  Rb  Rb3  1  0.24154650  0.34676750  0.20037000  1
  Na  Na4  1  0.50000000  0.50049600  0.00000000  1
  Na  Na5  1  0.00000000  0.00049600  0.00000000  1
  Nb  Nb6  1  0.24509200  0.09851400  0.46348000  1
  Nb  Nb7  1  0.59520350  0.05993350  0.85130600  1
  Nb  Nb8  1  0.40479650  0.05993350  0.14869400  1
  Nb  Nb9  1  0.75490800  0.09851400  0.53652000  1
  Nb  Nb10  1  0.30532750  0.84148150  0.34465800  1
  Nb  Nb11  1  0.69467250  0.84148150  0.65534200  1
  Nb  Nb12  1  0.74509200  0.59851400  0.46348000  1
  Nb  Nb13  1  0.09520350  0.55993350  0.85130600  1
  Nb  Nb14  1  0.90479650  0.55993350  0.14869400  1
  Nb  Nb15  1  0.25490800  0.59851400  0.53652000  1
  Nb  Nb16  1  0.80532750  0.34148150  0.34465800  1
  Nb  Nb17  1  0.19467250  0.34148150  0.65534200  1
  P  P18  1  0.50000000  0.27145700  0.00000000  1
  P  P19  1  0.38603900  0.61461000  0.22866300  1
  P  P20  1  0.61396100  0.61461000  0.77133700  1
  P  P21  1  0.00000000  0.77145700  0.00000000  1
  P  P22  1  0.88603900  0.11461000  0.22866300  1
  P  P23  1  0.11396100  0.11461000  0.77133700  1
  O  O24  1  0.39753250  0.34119450  0.86117900  1
  O  O25  1  0.73710300  0.73758700  0.52386900  1
  O  O26  1  0.20020900  0.06044300  0.94271500  1
  O  O27  1  0.14575650  0.06545050  0.62878000  1
  O  O28  1  0.58083850  0.20894450  0.92051200  1
  O  O29  1  0.60246750  0.34119450  0.13882100  1
  O  O30  1  0.30740150  0.12185050  0.28961800  1
  O  O31  1  0.41916150  0.20894450  0.07948800  1
  O  O32  1  0.42347000  0.07605700  0.65287900  1
  O  O33  1  0.23891600  0.94810800  0.43004100  1
  O  O34  1  0.69259850  0.12185050  0.71038200  1
  O  O35  1  0.57653000  0.07605700  0.34712100  1
  O  O36  1  0.35935050  0.93030650  0.18526100  1
  O  O37  1  0.50000000  0.02426400  0.00000000  1
  O  O38  1  0.64064950  0.93030650  0.81473900  1
  O  O39  1  0.26289700  0.73758700  0.47613100  1
  O  O40  1  0.50000000  0.84736300  0.50000000  1
  O  O41  1  0.85424350  0.06545050  0.37122000  1
  O  O42  1  0.76108400  0.94810800  0.56995900  1
  O  O43  1  0.79979100  0.06044300  0.05728500  1
  O  O44  1  0.35363800  0.72587600  0.21042400  1
  O  O45  1  0.64636200  0.72587600  0.78957600  1
  O  O46  1  0.45841450  0.59803650  0.73843500  1
  O  O47  1  0.54158550  0.59803650  0.26156500  1
  O  O48  1  0.89753250  0.84119450  0.86117900  1
  O  O49  1  0.23710300  0.23758700  0.52386900  1
  O  O50  1  0.70020900  0.56044300  0.94271500  1
  O  O51  1  0.64575650  0.56545050  0.62878000  1
  O  O52  1  0.08083850  0.70894450  0.92051200  1
  O  O53  1  0.10246750  0.84119450  0.13882100  1
  O  O54  1  0.80740150  0.62185050  0.28961800  1
  O  O55  1  0.91916150  0.70894450  0.07948800  1
  O  O56  1  0.92347000  0.57605700  0.65287900  1
  O  O57  1  0.73891600  0.44810800  0.43004100  1
  O  O58  1  0.19259850  0.62185050  0.71038200  1
  O  O59  1  0.07653000  0.57605700  0.34712100  1
  O  O60  1  0.85935050  0.43030650  0.18526100  1
  O  O61  1  0.00000000  0.52426400  0.00000000  1
  O  O62  1  0.14064950  0.43030650  0.81473900  1
  O  O63  1  0.76289700  0.23758700  0.47613100  1
  O  O64  1  0.00000000  0.34736300  0.50000000  1
  O  O65  1  0.35424350  0.56545050  0.37122000  1
  O  O66  1  0.26108400  0.44810800  0.56995900  1
  O  O67  1  0.29979100  0.56044300  0.05728500  1
  O  O68  1  0.85363800  0.22587600  0.21042400  1
  O  O69  1  0.14636200  0.22587600  0.78957600  1
  O  O70  1  0.95841450  0.09803650  0.73843500  1
  O  O71  1  0.04158550  0.09803650  0.26156500  1
