# generated using pymatgen
data_SiO2
_symmetry_space_group_name_H-M   'P 1'
_cell_length_a   7.56900200
_cell_length_b   16.32534200
_cell_length_c   5.27530300
_cell_angle_alpha   90.00000000
_cell_angle_beta   90.00000000
_cell_angle_gamma   90.00000000
_symmetry_Int_Tables_number   1
_chemical_formula_structural   SiO2
_chemical_formula_sum   'Si12 O24'
_cell_volume   651.85097213
_cell_formula_units_Z   12
loop_
 _symmetry_equiv_pos_site_id
 _symmetry_equiv_pos_as_xyz
  1  'x, y, z'
loop_
 _atom_site_type_symbol
 _atom_site_label
 _atom_site_symmetry_multiplicity
 _atom_site_fract_x
 _atom_site_fract_y
 _atom_site_fract_z
 _atom_site_occupancy
  Si  Si0  1  0.20652500  0.19621100  0.75000000  1
  Si  Si1  1  0.70652500  0.30378900  0.25000000  1
  Si  Si2  1  0.79347500  0.19621100  0.75000000  1
  Si  Si3  1  0.29347500  0.30378900  0.25000000  1
  Si  Si4  1  0.50000000  0.05696100  0.75000000  1
  Si  Si5  1  0.00000000  0.44303900  0.25000000  1
  Si  Si6  1  0.70652500  0.69621100  0.75000000  1
  Si  Si7  1  0.20652500  0.80378900  0.25000000  1
  Si  Si8  1  0.29347500  0.69621100  0.75000000  1
  Si  Si9  1  0.79347500  0.80378900  0.25000000  1
  Si  Si10  1  0.00000000  0.55696100  0.75000000  1
  Si  Si11  1  0.50000000  0.94303900  0.25000000  1
  O  O12  1  0.25000000  0.25000000  0.00000000  1
  O  O13  1  0.75000000  0.25000000  0.00000000  1
  O  O14  1  0.75000000  0.25000000  0.50000000  1
  O  O15  1  0.25000000  0.25000000  0.50000000  1
  O  O16  1  0.32344400  0.11327300  0.75000000  1
  O  O17  1  0.82344400  0.38672700  0.25000000  1
  O  O18  1  0.67655600  0.11327300  0.75000000  1
  O  O19  1  0.17655600  0.38672700  0.25000000  1
  O  O20  1  0.00000000  0.16978500  0.75000000  1
  O  O21  1  0.50000000  0.33021500  0.25000000  1
  O  O22  1  0.50000000  0.00000000  0.50000000  1
  O  O23  1  0.50000000  0.00000000  0.00000000  1
  O  O24  1  0.75000000  0.75000000  0.00000000  1
  O  O25  1  0.25000000  0.75000000  0.00000000  1
  O  O26  1  0.25000000  0.75000000  0.50000000  1
  O  O27  1  0.75000000  0.75000000  0.50000000  1
  O  O28  1  0.82344400  0.61327300  0.75000000  1
  O  O29  1  0.32344400  0.88672700  0.25000000  1
  O  O30  1  0.17655600  0.61327300  0.75000000  1
  O  O31  1  0.67655600  0.88672700  0.25000000  1
  O  O32  1  0.50000000  0.66978500  0.75000000  1
  O  O33  1  0.00000000  0.83021500  0.25000000  1
  O  O34  1  0.00000000  0.50000000  0.50000000  1
  O  O35  1  0.00000000  0.50000000  0.00000000  1
