# generated using pymatgen
data_Na2TeHSO5F3
_symmetry_space_group_name_H-M   'P 1'
_cell_length_a   8.37559900
_cell_length_b   7.57162000
_cell_length_c   10.90943033
_cell_angle_alpha   90.00000000
_cell_angle_beta   90.32110589
_cell_angle_gamma   90.00000000
_symmetry_Int_Tables_number   1
_chemical_formula_structural   Na2TeHSO5F3
_chemical_formula_sum   'Na8 Te4 H4 S4 O20 F12'
_cell_volume   691.83087326
_cell_formula_units_Z   4
loop_
 _symmetry_equiv_pos_site_id
 _symmetry_equiv_pos_as_xyz
  1  'x, y, z'
loop_
 _atom_site_type_symbol
 _atom_site_label
 _atom_site_symmetry_multiplicity
 _atom_site_fract_x
 _atom_site_fract_y
 _atom_site_fract_z
 _atom_site_occupancy
  Na  Na0  1  0.55607600  0.49974500  0.75891500  1
  Na  Na1  1  0.44392400  0.99974500  0.74108500  1
  Na  Na2  1  0.44392400  0.50025500  0.24108500  1
  Na  Na3  1  0.55607600  0.00025500  0.25891500  1
  Na  Na4  1  0.74677800  0.76808900  0.52829600  1
  Na  Na5  1  0.25322200  0.26808900  0.97170400  1
  Na  Na6  1  0.25322200  0.23191100  0.47170400  1
  Na  Na7  1  0.74677800  0.73191100  0.02829600  1
  Te  Te8  1  0.08432900  0.53512700  0.71458800  1
  Te  Te9  1  0.91567100  0.03512700  0.78541200  1
  Te  Te10  1  0.91567100  0.46487300  0.28541200  1
  Te  Te11  1  0.08432900  0.96487300  0.21458800  1
  H  H12  1  0.06973500  0.85307200  0.93433800  1
  H  H13  1  0.93026500  0.35307200  0.56566200  1
  H  H14  1  0.93026500  0.14692800  0.06566200  1
  H  H15  1  0.06973500  0.64692800  0.43433800  1
  S  S16  1  0.35810100  0.76231900  0.51232000  1
  S  S17  1  0.64189900  0.26231900  0.98768000  1
  S  S18  1  0.64189900  0.23768100  0.48768000  1
  S  S19  1  0.35810100  0.73768100  0.01232000  1
  O  O20  1  0.96016900  0.84014700  0.89318100  1
  O  O21  1  0.03983100  0.34014700  0.60681900  1
  O  O22  1  0.03983100  0.15985300  0.10681900  1
  O  O23  1  0.96016900  0.65985300  0.39318100  1
  O  O24  1  0.30681000  0.94369500  0.54221800  1
  O  O25  1  0.69319000  0.44369500  0.95778200  1
  O  O26  1  0.69319000  0.05630500  0.45778200  1
  O  O27  1  0.30681000  0.55630500  0.04221800  1
  O  O28  1  0.21489200  0.63485000  0.52933300  1
  O  O29  1  0.78510800  0.13485000  0.97066700  1
  O  O30  1  0.78510800  0.36515000  0.47066700  1
  O  O31  1  0.21489200  0.86515000  0.02933300  1
  O  O32  1  0.48565600  0.70537600  0.59825800  1
  O  O33  1  0.51434400  0.20537600  0.90174200  1
  O  O34  1  0.51434400  0.29462400  0.40174200  1
  O  O35  1  0.48565600  0.79462400  0.09825800  1
  O  O36  1  0.40716200  0.75345500  0.88285800  1
  O  O37  1  0.59283800  0.25345500  0.61714200  1
  O  O38  1  0.59283800  0.24654500  0.11714200  1
  O  O39  1  0.40716200  0.74654500  0.38285800  1
  F  F40  1  0.97305500  0.89810600  0.63942400  1
  F  F41  1  0.02694500  0.39810600  0.86057600  1
  F  F42  1  0.02694500  0.10189400  0.36057600  1
  F  F43  1  0.97305500  0.60189400  0.13942400  1
  F  F44  1  0.71030800  0.90472500  0.76389400  1
  F  F45  1  0.28969200  0.40472500  0.73610600  1
  F  F46  1  0.28969200  0.09527500  0.23610600  1
  F  F47  1  0.71030800  0.59527500  0.26389400  1
  F  F48  1  0.84280900  0.57216600  0.69473900  1
  F  F49  1  0.15719100  0.07216600  0.80526100  1
  F  F50  1  0.15719100  0.42783400  0.30526100  1
  F  F51  1  0.84280900  0.92783400  0.19473900  1
