# generated using pymatgen
data_K10Zr3Cd(MoO4)12
_symmetry_space_group_name_H-M   'P 1'
_cell_length_a   10.86655956
_cell_length_b   10.86655956
_cell_length_c   38.54663755
_cell_angle_alpha   90.00000000
_cell_angle_beta   90.00000000
_cell_angle_gamma   120.00000000
_symmetry_Int_Tables_number   1
_chemical_formula_structural   K10Zr3Cd(MoO4)12
_chemical_formula_sum   'K30 Zr9 Cd3 Mo36 O144'
_cell_volume   3941.86059665
_cell_formula_units_Z   3
loop_
 _symmetry_equiv_pos_site_id
 _symmetry_equiv_pos_as_xyz
  1  'x, y, z'
loop_
 _atom_site_type_symbol
 _atom_site_label
 _atom_site_symmetry_multiplicity
 _atom_site_fract_x
 _atom_site_fract_y
 _atom_site_fract_z
 _atom_site_occupancy
  K  K0  1  0.66666667  0.33333333  0.22841233  1
  K  K1  1  0.33333333  0.66666667  0.26762367  1
  K  K2  1  0.94798867  0.65999033  0.16699333  1
  K  K3  1  0.71200167  0.05201133  0.16699333  1
  K  K4  1  0.34000967  0.28799833  0.16699333  1
  K  K5  1  0.33333333  0.66666667  0.06451367  1
  K  K6  1  0.38338067  0.99355933  0.00031933  1
  K  K7  1  0.00644067  0.38982133  0.00031933  1
  K  K8  1  0.61017867  0.61661933  0.00031933  1
  K  K9  1  0.00000000  0.00000000  0.10399300  1
  K  K10  1  0.33333333  0.66666667  0.56174567  1
  K  K11  1  0.00000000  0.00000000  0.60095700  1
  K  K12  1  0.61465533  0.99332367  0.50032667  1
  K  K13  1  0.37866833  0.38534467  0.50032667  1
  K  K14  1  0.00667633  0.62133167  0.50032667  1
  K  K15  1  0.00000000  0.00000000  0.39784700  1
  K  K16  1  0.05004733  0.32689267  0.33365267  1
  K  K17  1  0.67310733  0.72315467  0.33365267  1
  K  K18  1  0.27684533  0.94995267  0.33365267  1
  K  K19  1  0.66666667  0.33333333  0.43732633  1
  K  K20  1  0.00000000  0.00000000  0.89507900  1
  K  K21  1  0.66666667  0.33333333  0.93429033  1
  K  K22  1  0.28132200  0.32665700  0.83366000  1
  K  K23  1  0.04533500  0.71867800  0.83366000  1
  K  K24  1  0.67334300  0.95466500  0.83366000  1
  K  K25  1  0.66666667  0.33333333  0.73118033  1
  K  K26  1  0.71671400  0.66022600  0.66698600  1
  K  K27  1  0.33977400  0.05648800  0.66698600  1
  K  K28  1  0.94351200  0.28328600  0.66698600  1
  K  K29  1  0.33333333  0.66666667  0.77065967  1
  Zr  Zr30  1  0.00000000  0.00000000  0.00072200  1
  Zr  Zr31  1  0.66666667  0.33333333  0.08441133  1
  Zr  Zr32  1  0.00000000  0.00000000  0.24867700  1
  Zr  Zr33  1  0.66666667  0.33333333  0.33405533  1
  Zr  Zr34  1  0.33333333  0.66666667  0.41774467  1
  Zr  Zr35  1  0.66666667  0.33333333  0.58201033  1
  Zr  Zr36  1  0.33333333  0.66666667  0.66738867  1
  Zr  Zr37  1  0.00000000  0.00000000  0.75107800  1
  Zr  Zr38  1  0.33333333  0.66666667  0.91534367  1
  Cd  Cd39  1  0.33333333  0.66666667  0.16717167  1
  Cd  Cd40  1  0.00000000  0.00000000  0.50050500  1
  Cd  Cd41  1  0.66666667  0.33333333  0.83383833  1
  Mo  Mo42  1  0.94672767  0.65186833  0.28319933  1
  Mo  Mo43  1  0.70514067  0.05327233  0.28319933  1
  Mo  Mo44  1  0.29870767  0.95045933  0.21915433  1
  Mo  Mo45  1  0.34813167  0.29485933  0.28319933  1
  Mo  Mo46  1  0.04954067  0.34824833  0.21915433  1
  Mo  Mo47  1  0.65175167  0.70129233  0.21915433  1
  Mo  Mo48  1  0.36964000  0.98668900  0.11545700  1
  Mo  Mo49  1  0.01331100  0.38295100  0.11545700  1
  Mo  Mo50  1  0.96302733  0.68265867  0.05146867  1
  Mo  Mo51  1  0.61704900  0.63036000  0.11545700  1
  Mo  Mo52  1  0.71963133  0.03697267  0.05146867  1
  Mo  Mo53  1  0.31734133  0.28036867  0.05146867  1
  Mo  Mo54  1  0.61339433  0.98520167  0.61653267  1
  Mo  Mo55  1  0.37180733  0.38660567  0.61653267  1
  Mo  Mo56  1  0.96537433  0.28379267  0.55248767  1
  Mo  Mo57  1  0.01479833  0.62819267  0.61653267  1
  Mo  Mo58  1  0.71620733  0.68158167  0.55248767  1
  Mo  Mo59  1  0.31841833  0.03462567  0.55248767  1
  Mo  Mo60  1  0.03630667  0.32002233  0.44879033  1
  Mo  Mo61  1  0.67997767  0.71628433  0.44879033  1
  Mo  Mo62  1  0.62969400  0.01599200  0.38480200  1
  Mo  Mo63  1  0.28371567  0.96369333  0.44879033  1
  Mo  Mo64  1  0.38629800  0.37030600  0.38480200  1
  Mo  Mo65  1  0.98400800  0.61370200  0.38480200  1
  Mo  Mo66  1  0.28006100  0.31853500  0.94986600  1
  Mo  Mo67  1  0.03847400  0.71993900  0.94986600  1
  Mo  Mo68  1  0.63204100  0.61712600  0.88582100  1
  Mo  Mo69  1  0.68146500  0.96152600  0.94986600  1
  Mo  Mo70  1  0.38287400  0.01491500  0.88582100  1
  Mo  Mo71  1  0.98508500  0.36795900  0.88582100  1
  Mo  Mo72  1  0.70297333  0.65335567  0.78212367  1
  Mo  Mo73  1  0.34664433  0.04961767  0.78212367  1
  Mo  Mo74  1  0.29636067  0.34932533  0.71813533  1
  Mo  Mo75  1  0.95038233  0.29702667  0.78212367  1
  Mo  Mo76  1  0.05296467  0.70363933  0.71813533  1
  Mo  Mo77  1  0.65067467  0.94703533  0.71813533  1
  O  O78  1  0.64145100  0.47252600  0.11616400  1
  O  O79  1  0.52747400  0.16892500  0.11616400  1
  O  O80  1  0.83107500  0.35854900  0.11616400  1
  O  O81  1  0.49751200  0.30632400  0.05025700  1
  O  O82  1  0.18260700  0.10689400  0.03250600  1
  O  O83  1  0.92428700  0.81739300  0.03250600  1
  O  O84  1  0.80881200  0.50248800  0.05025700  1
  O  O85  1  0.69367600  0.19118800  0.05025700  1
  O  O86  1  0.09160933  0.65270767  0.30390467  1
  O  O87  1  0.89310600  0.07571300  0.03250600  1
  O  O88  1  0.56109833  0.90839067  0.30390467  1
  O  O89  1  0.33916467  0.94808833  0.26339233  1
  O  O90  1  0.94338133  0.60588267  0.23968467  1
  O  O91  1  0.34729233  0.43890167  0.30390467  1
  O  O92  1  0.05191167  0.39107633  0.26339233  1
  O  O93  1  0.66250133  0.05661867  0.23968467  1
  O  O94  1  0.44578533  0.09070867  0.19722167  1
  O  O95  1  0.60892367  0.66083533  0.26339233  1
  O  O96  1  0.24876433  0.77808867  0.20200767  1
  O  O97  1  0.90929133  0.35507667  0.19722167  1
  O  O98  1  0.39411733  0.33749867  0.23968467  1
  O  O99  1  0.22191133  0.47067567  0.20200767  1
  O  O100  1  0.22460667  0.98412033  0.13723833  1
  O  O101  1  0.52932433  0.75123567  0.20200767  1
  O  O102  1  0.64492333  0.55421467  0.19722167  1
  O  O103  1  0.41923900  0.86514900  0.13353600  1
  O  O104  1  0.13485100  0.55409000  0.13353600  1
  O  O105  1  0.00290933  0.72618067  0.09522567  1
  O  O106  1  0.01587967  0.24048633  0.13723833  1
  O  O107  1  0.44591000  0.58076100  0.13353600  1
  O  O108  1  0.32624400  0.94047400  0.07148000  1
  O  O109  1  0.75951367  0.77539333  0.13723833  1
  O  O110  1  0.72327133  0.99709067  0.09522567  1
  O  O111  1  0.05952600  0.38577000  0.07148000  1
  O  O112  1  0.10896000  0.68593600  0.03048300  1
  O  O113  1  0.27381933  0.27672867  0.09522567  1
  O  O114  1  0.61423000  0.67375600  0.07148000  1
  O  O115  1  0.57697600  0.89104000  0.03048300  1
  O  O116  1  0.74233933  0.22569767  0.30286467  1
  O  O117  1  0.31406400  0.42302400  0.03048300  1
  O  O118  1  0.86043700  0.02885900  0.28367100  1
  O  O119  1  0.16842200  0.13956300  0.28367100  1
  O  O120  1  0.48335833  0.25766067  0.30286467  1
  O  O121  1  0.77430233  0.51664167  0.30286467  1
  O  O122  1  0.97114100  0.83157800  0.28367100  1
  O  O123  1  0.02373367  0.16543933  0.21768433  1
  O  O124  1  0.83456067  0.85829433  0.21768433  1
  O  O125  1  0.14170567  0.97626633  0.21768433  1
  O  O126  1  0.30811767  0.80585933  0.44949733  1
  O  O127  1  0.19414067  0.50225833  0.44949733  1
  O  O128  1  0.49774167  0.69188233  0.44949733  1
  O  O129  1  0.16417867  0.63965733  0.38359033  1
  O  O130  1  0.84927367  0.44022733  0.36583933  1
  O  O131  1  0.59095367  0.15072633  0.36583933  1
  O  O132  1  0.47547867  0.83582133  0.38359033  1
  O  O133  1  0.36034267  0.52452133  0.38359033  1
  O  O134  1  0.75827600  0.98604100  0.63723800  1
  O  O135  1  0.55977267  0.40904633  0.36583933  1
  O  O136  1  0.22776500  0.24172400  0.63723800  1
  O  O137  1  0.00583133  0.28142167  0.59672567  1
  O  O138  1  0.61004800  0.93921600  0.57301800  1
  O  O139  1  0.01395900  0.77223500  0.63723800  1
  O  O140  1  0.71857833  0.72440967  0.59672567  1
  O  O141  1  0.32916800  0.38995200  0.57301800  1
  O  O142  1  0.11245200  0.42404200  0.53055500  1
  O  O143  1  0.27559033  0.99416867  0.59672567  1
  O  O144  1  0.91543100  0.11142200  0.53534100  1
  O  O145  1  0.57595800  0.68841000  0.53055500  1
  O  O146  1  0.06078400  0.67083200  0.57301800  1
  O  O147  1  0.88857800  0.80400900  0.53534100  1
  O  O148  1  0.89127333  0.31745367  0.47057167  1
  O  O149  1  0.19599100  0.08456900  0.53534100  1
  O  O150  1  0.31159000  0.88754800  0.53055500  1
  O  O151  1  0.08590567  0.19848233  0.46686933  1
  O  O152  1  0.80151767  0.88742333  0.46686933  1
  O  O153  1  0.66957600  0.05951400  0.42855900  1
  O  O154  1  0.68254633  0.57381967  0.47057167  1
  O  O155  1  0.11257667  0.91409433  0.46686933  1
  O  O156  1  0.99291067  0.27380733  0.40481333  1
  O  O157  1  0.42618033  0.10872667  0.47057167  1
  O  O158  1  0.38993800  0.33042400  0.42855900  1
  O  O159  1  0.72619267  0.71910333  0.40481333  1
  O  O160  1  0.77562667  0.01926933  0.36381633  1
  O  O161  1  0.94048600  0.61006200  0.42855900  1
  O  O162  1  0.28089667  0.00708933  0.40481333  1
  O  O163  1  0.24364267  0.22437333  0.36381633  1
  O  O164  1  0.40900600  0.55903100  0.63619800  1
  O  O165  1  0.98073067  0.75635733  0.36381633  1
  O  O166  1  0.52710367  0.36219233  0.61700433  1
  O  O167  1  0.83508867  0.47289633  0.61700433  1
  O  O168  1  0.15002500  0.59099400  0.63619800  1
  O  O169  1  0.44096900  0.84997500  0.63619800  1
  O  O170  1  0.63780767  0.16491133  0.61700433  1
  O  O171  1  0.69040033  0.49877267  0.55101767  1
  O  O172  1  0.50122733  0.19162767  0.55101767  1
  O  O173  1  0.80837233  0.30959967  0.55101767  1
  O  O174  1  0.97478433  0.13919267  0.78283067  1
  O  O175  1  0.86080733  0.83559167  0.78283067  1
  O  O176  1  0.16440833  0.02521567  0.78283067  1
  O  O177  1  0.83084533  0.97299067  0.71692367  1
  O  O178  1  0.51594033  0.77356067  0.69917267  1
  O  O179  1  0.25762033  0.48405967  0.69917267  1
  O  O180  1  0.14214533  0.16915467  0.71692367  1
  O  O181  1  0.02700933  0.85785467  0.71692367  1
  O  O182  1  0.42494267  0.31937433  0.97057133  1
  O  O183  1  0.22643933  0.74237967  0.69917267  1
  O  O184  1  0.89443167  0.57505733  0.97057133  1
  O  O185  1  0.67249800  0.61475500  0.93005900  1
  O  O186  1  0.27671467  0.27254933  0.90635133  1
  O  O187  1  0.68062567  0.10556833  0.97057133  1
  O  O188  1  0.38524500  0.05774300  0.93005900  1
  O  O189  1  0.99583467  0.72328533  0.90635133  1
  O  O190  1  0.77911867  0.75737533  0.86388833  1
  O  O191  1  0.94225700  0.32750200  0.93005900  1
  O  O192  1  0.58209767  0.44475533  0.86867433  1
  O  O193  1  0.24262467  0.02174333  0.86388833  1
  O  O194  1  0.72745067  0.00416533  0.90635133  1
  O  O195  1  0.55524467  0.13734233  0.86867433  1
  O  O196  1  0.55794000  0.65078700  0.80390500  1
  O  O197  1  0.86265767  0.41790233  0.86867433  1
  O  O198  1  0.97825667  0.22088133  0.86388833  1
  O  O199  1  0.75257233  0.53181567  0.80020267  1
  O  O200  1  0.46818433  0.22075667  0.80020267  1
  O  O201  1  0.33624267  0.39284733  0.76189233  1
  O  O202  1  0.34921300  0.90715300  0.80390500  1
  O  O203  1  0.77924333  0.24742767  0.80020267  1
  O  O204  1  0.65957733  0.60714067  0.73814667  1
  O  O205  1  0.09284700  0.44206000  0.80390500  1
  O  O206  1  0.05660467  0.66375733  0.76189233  1
  O  O207  1  0.39285933  0.05243667  0.73814667  1
  O  O208  1  0.44229333  0.35260267  0.69714967  1
  O  O209  1  0.60715267  0.94339533  0.76189233  1
  O  O210  1  0.94756333  0.34042267  0.73814667  1
  O  O211  1  0.91030933  0.55770667  0.69714967  1
  O  O212  1  0.07567267  0.89236433  0.96953133  1
  O  O213  1  0.64739733  0.08969067  0.69714967  1
  O  O214  1  0.19377033  0.69552567  0.95033767  1
  O  O215  1  0.50175533  0.80622967  0.95033767  1
  O  O216  1  0.81669167  0.92432733  0.96953133  1
  O  O217  1  0.10763567  0.18330833  0.96953133  1
  O  O218  1  0.30447433  0.49824467  0.95033767  1
  O  O219  1  0.35706700  0.83210600  0.88435100  1
  O  O220  1  0.16789400  0.52496100  0.88435100  1
  O  O221  1  0.47503900  0.64293300  0.88435100  1
