# generated using pymatgen
data_Sr3Pr2(BO3)4
_symmetry_space_group_name_H-M   'P 1'
_cell_length_a   7.40318700
_cell_length_b   8.90328600
_cell_length_c   16.79600400
_cell_angle_alpha   90.00000000
_cell_angle_beta   90.00000000
_cell_angle_gamma   90.00000000
_symmetry_Int_Tables_number   1
_chemical_formula_structural   Sr3Pr2(BO3)4
_chemical_formula_sum   'Sr12 Pr8 B16 O48'
_cell_volume   1107.06982458
_cell_formula_units_Z   4
loop_
 _symmetry_equiv_pos_site_id
 _symmetry_equiv_pos_as_xyz
  1  'x, y, z'
loop_
 _atom_site_type_symbol
 _atom_site_label
 _atom_site_symmetry_multiplicity
 _atom_site_fract_x
 _atom_site_fract_y
 _atom_site_fract_z
 _atom_site_occupancy
  Sr  Sr0  1  0.32067200  0.34956000  0.92730000  1
  Sr  Sr1  1  0.67932800  0.65044000  0.42730000  1
  Sr  Sr2  1  0.17932800  0.84956000  0.42730000  1
  Sr  Sr3  1  0.82067200  0.15044000  0.92730000  1
  Sr  Sr4  1  0.03684900  0.32756000  0.72212700  1
  Sr  Sr5  1  0.96315100  0.67244000  0.22212700  1
  Sr  Sr6  1  0.46315100  0.82756000  0.22212700  1
  Sr  Sr7  1  0.53684900  0.17244000  0.72212700  1
  Sr  Sr8  1  0.30686600  0.35181000  0.17554600  1
  Sr  Sr9  1  0.69313400  0.64819000  0.67554600  1
  Sr  Sr10  1  0.80686600  0.14819000  0.17554600  1
  Sr  Sr11  1  0.19313400  0.85181000  0.67554600  1
  Pr  Pr12  1  0.03116300  0.32925500  0.38364600  1
  Pr  Pr13  1  0.96883700  0.67074500  0.88364600  1
  Pr  Pr14  1  0.46883700  0.82925500  0.88364600  1
  Pr  Pr15  1  0.53116300  0.17074500  0.38364600  1
  Pr  Pr16  1  0.31552000  0.46571000  0.55467200  1
  Pr  Pr17  1  0.68448000  0.53429000  0.05467200  1
  Pr  Pr18  1  0.18448000  0.96571000  0.05467200  1
  Pr  Pr19  1  0.81552000  0.03429000  0.55467200  1
  B  B20  1  0.16223700  0.06196300  0.26143900  1
  B  B21  1  0.01498500  0.37080500  0.04893300  1
  B  B22  1  0.98501500  0.62919500  0.54893300  1
  B  B23  1  0.48501500  0.87080500  0.54893300  1
  B  B24  1  0.51498500  0.12919500  0.04893300  1
  B  B25  1  0.72169200  0.35576400  0.55244000  1
  B  B26  1  0.27830800  0.64423600  0.05244000  1
  B  B27  1  0.77830800  0.85576400  0.05244000  1
  B  B28  1  0.22169200  0.14423600  0.55244000  1
  B  B29  1  0.67347800  0.45172800  0.84560200  1
  B  B30  1  0.32652200  0.54827200  0.34560200  1
  B  B31  1  0.82652200  0.95172800  0.34560200  1
  B  B32  1  0.17347800  0.04827200  0.84560200  1
  B  B33  1  0.66223700  0.43803700  0.26143900  1
  B  B34  1  0.33776300  0.56196300  0.76143900  1
  B  B35  1  0.83776300  0.93803700  0.76143900  1
  O  O36  1  0.80949700  0.49141900  0.79275800  1
  O  O37  1  0.24759600  0.71985600  0.98079800  1
  O  O38  1  0.74759600  0.78014400  0.98079800  1
  O  O39  1  0.25240400  0.21985600  0.48079800  1
  O  O40  1  0.61666300  0.25978000  0.04558500  1
  O  O41  1  0.26787000  0.21892800  0.62130200  1
  O  O42  1  0.73213000  0.78107200  0.12130200  1
  O  O43  1  0.23213000  0.71892800  0.12130200  1
  O  O44  1  0.76787000  0.28107200  0.62130200  1
  O  O45  1  0.46094800  0.05500600  0.97885800  1
  O  O46  1  0.53905200  0.94499400  0.47885800  1
  O  O47  1  0.03905200  0.55500600  0.47885800  1
  O  O48  1  0.96094800  0.44499400  0.97885800  1
  O  O49  1  0.45256000  0.07348800  0.12128000  1
  O  O50  1  0.54744000  0.92651200  0.62128000  1
  O  O51  1  0.04744000  0.57348800  0.62128000  1
  O  O52  1  0.95256000  0.42651200  0.12128000  1
  O  O53  1  0.11666300  0.24022000  0.04558500  1
  O  O54  1  0.88333700  0.75978000  0.54558500  1
  O  O55  1  0.38333700  0.74022000  0.54558500  1
  O  O56  1  0.88281500  0.06085600  0.40057000  1
  O  O57  1  0.11718500  0.93914400  0.90057000  1
  O  O58  1  0.61718500  0.56085600  0.90057000  1
  O  O59  1  0.38281500  0.43914400  0.40057000  1
  O  O60  1  0.10355900  0.19145900  0.84782800  1
  O  O61  1  0.89644100  0.80854100  0.34782800  1
  O  O62  1  0.39644100  0.69145900  0.34782800  1
  O  O63  1  0.60355900  0.30854100  0.84782800  1
  O  O64  1  0.69050300  0.99141900  0.29275800  1
  O  O65  1  0.30949700  0.00858100  0.79275800  1
  O  O66  1  0.75240400  0.28014400  0.48079800  1
  O  O67  1  0.19050300  0.50858100  0.29275800  1
  O  O68  1  0.88416300  0.03860200  0.70236200  1
  O  O69  1  0.11583700  0.96139800  0.20236200  1
  O  O70  1  0.61583700  0.53860200  0.20236200  1
  O  O71  1  0.38416300  0.46139800  0.70236200  1
  O  O72  1  0.08261100  0.20417100  0.26105900  1
  O  O73  1  0.91738900  0.79582900  0.76105900  1
  O  O74  1  0.41738900  0.70417100  0.76105900  1
  O  O75  1  0.58261100  0.29582900  0.26105900  1
  O  O76  1  0.70881900  0.97114300  0.81922000  1
  O  O77  1  0.29118100  0.02885700  0.31922000  1
  O  O78  1  0.79118100  0.47114300  0.31922000  1
  O  O79  1  0.20881900  0.52885700  0.81922000  1
  O  O80  1  0.86332700  0.99280600  0.05267500  1
  O  O81  1  0.13667300  0.00719400  0.55267500  1
  O  O82  1  0.63667300  0.49280600  0.55267500  1
  O  O83  1  0.36332700  0.50719400  0.05267500  1
