# generated using pymatgen
data_SnH4(NF)2
_symmetry_space_group_name_H-M   'P 1'
_cell_length_a   10.85387400
_cell_length_b   3.30329400
_cell_length_c   5.10039365
_cell_angle_alpha   90.00000000
_cell_angle_beta   105.87222737
_cell_angle_gamma   90.00000000
_symmetry_Int_Tables_number   1
_chemical_formula_structural   SnH4(NF)2
_chemical_formula_sum   'Sn2 H8 N4 F4'
_cell_volume   175.89515721
_cell_formula_units_Z   2
loop_
 _symmetry_equiv_pos_site_id
 _symmetry_equiv_pos_as_xyz
  1  'x, y, z'
loop_
 _atom_site_type_symbol
 _atom_site_label
 _atom_site_symmetry_multiplicity
 _atom_site_fract_x
 _atom_site_fract_y
 _atom_site_fract_z
 _atom_site_occupancy
  Sn  Sn0  1  0.00000000  0.00000000  0.00000000  1
  Sn  Sn1  1  0.50000000  0.50000000  0.00000000  1
  H  H2  1  0.10915900  0.50000000  0.43349100  1
  H  H3  1  0.39084100  0.00000000  0.56650900  1
  H  H4  1  0.20202700  0.50000000  0.22263000  1
  H  H5  1  0.29797300  0.00000000  0.77737000  1
  H  H6  1  0.60915900  0.00000000  0.43349100  1
  H  H7  1  0.89084100  0.50000000  0.56650900  1
  H  H8  1  0.70202700  0.00000000  0.22263000  1
  H  H9  1  0.79797300  0.50000000  0.77737000  1
  N  N10  1  0.10821500  0.50000000  0.23209700  1
  N  N11  1  0.39178500  0.00000000  0.76790300  1
  N  N12  1  0.60821500  0.00000000  0.23209700  1
  N  N13  1  0.89178500  0.50000000  0.76790300  1
  F  F14  1  0.37970100  0.50000000  0.24744000  1
  F  F15  1  0.12029900  0.00000000  0.75256000  1
  F  F16  1  0.87970100  0.00000000  0.24744000  1
  F  F17  1  0.62029900  0.50000000  0.75256000  1
