# generated using pymatgen
data_CsPF6
_symmetry_space_group_name_H-M   'P 1'
_cell_length_a   5.88383210
_cell_length_b   5.88383210
_cell_length_c   14.40707774
_cell_angle_alpha   90.00000000
_cell_angle_beta   90.00000000
_cell_angle_gamma   120.00000000
_symmetry_Int_Tables_number   1
_chemical_formula_structural   CsPF6
_chemical_formula_sum   'Cs3 P3 F18'
_cell_volume   431.94363082
_cell_formula_units_Z   3
loop_
 _symmetry_equiv_pos_site_id
 _symmetry_equiv_pos_as_xyz
  1  'x, y, z'
loop_
 _atom_site_type_symbol
 _atom_site_label
 _atom_site_symmetry_multiplicity
 _atom_site_fract_x
 _atom_site_fract_y
 _atom_site_fract_z
 _atom_site_occupancy
  Cs  Cs0  1  0.33333333  0.66666667  0.16666667  1
  Cs  Cs1  1  1.00000000  1.00000000  0.50000000  1
  Cs  Cs2  1  0.66666667  0.33333333  0.83333333  1
  P  P3  1  0.00000000  0.00000000  0.00000000  1
  P  P4  1  0.66666667  0.33333333  0.33333333  1
  P  P5  1  0.33333333  0.66666667  0.66666667  1
  F  F6  1  0.73648867  0.86824433  0.93423933  1
  F  F7  1  0.13175567  0.86824433  0.93423933  1
  F  F8  1  0.13175567  0.26351133  0.93423933  1
  F  F9  1  0.53491100  0.06982200  0.39909400  1
  F  F10  1  0.53491100  0.46508900  0.39909400  1
  F  F11  1  0.93017800  0.46508900  0.39909400  1
  F  F12  1  0.40315533  0.20157767  0.26757267  1
  F  F13  1  0.79842233  0.20157767  0.26757267  1
  F  F14  1  0.79842233  0.59684467  0.26757267  1
  F  F15  1  0.20157767  0.40315533  0.73242733  1
  F  F16  1  0.20157767  0.79842233  0.73242733  1
  F  F17  1  0.59684467  0.79842233  0.73242733  1
  F  F18  1  0.06982200  0.53491100  0.60090600  1
  F  F19  1  0.46508900  0.53491100  0.60090600  1
  F  F20  1  0.46508900  0.93017800  0.60090600  1
  F  F21  1  0.86824433  0.73648867  0.06576067  1
  F  F22  1  0.86824433  0.13175567  0.06576067  1
  F  F23  1  0.26351133  0.13175567  0.06576067  1
