# generated using pymatgen
data_Tb2S3
_symmetry_space_group_name_H-M   'P 1'
_cell_length_a   8.34780400
_cell_length_b   8.34780400
_cell_length_c   24.97773400
_cell_angle_alpha   90.00000000
_cell_angle_beta   90.00000000
_cell_angle_gamma   90.00000000
_symmetry_Int_Tables_number   1
_chemical_formula_structural   Tb2S3
_chemical_formula_sum   'Tb32 S48'
_cell_volume   1740.59416583
_cell_formula_units_Z   16
loop_
 _symmetry_equiv_pos_site_id
 _symmetry_equiv_pos_as_xyz
  1  'x, y, z'
loop_
 _atom_site_type_symbol
 _atom_site_label
 _atom_site_symmetry_multiplicity
 _atom_site_fract_x
 _atom_site_fract_y
 _atom_site_fract_z
 _atom_site_occupancy
  Tb  Tb0  1  0.13649150  0.25880650  0.96068700  1
  Tb  Tb1  1  0.86350850  0.74119350  0.96068700  1
  Tb  Tb2  1  0.50000000  0.00000000  0.91633000  1
  Tb  Tb3  1  0.25000000  0.61893050  0.87500000  1
  Tb  Tb4  1  0.63649150  0.74119350  0.78931300  1
  Tb  Tb5  1  0.00000000  0.00000000  0.83367000  1
  Tb  Tb6  1  0.36350850  0.25880650  0.78931300  1
  Tb  Tb7  1  0.75000000  0.38106950  0.87500000  1
  Tb  Tb8  1  0.75880650  0.13649150  0.71068700  1
  Tb  Tb9  1  0.11893050  0.25000000  0.62500000  1
  Tb  Tb10  1  0.50000000  0.50000000  0.66633000  1
  Tb  Tb11  1  0.88106950  0.75000000  0.62500000  1
  Tb  Tb12  1  0.24119350  0.86350850  0.71068700  1
  Tb  Tb13  1  0.50000000  0.00000000  0.58367000  1
  Tb  Tb14  1  0.24119350  0.63649150  0.53931300  1
  Tb  Tb15  1  0.75880650  0.36350850  0.53931300  1
  Tb  Tb16  1  0.63649150  0.75880650  0.46068700  1
  Tb  Tb17  1  0.36350850  0.24119350  0.46068700  1
  Tb  Tb18  1  0.00000000  0.50000000  0.41633000  1
  Tb  Tb19  1  0.75000000  0.11893050  0.37500000  1
  Tb  Tb20  1  0.13649150  0.24119350  0.28931300  1
  Tb  Tb21  1  0.50000000  0.50000000  0.33367000  1
  Tb  Tb22  1  0.86350850  0.75880650  0.28931300  1
  Tb  Tb23  1  0.25000000  0.88106950  0.37500000  1
  Tb  Tb24  1  0.25880650  0.63649150  0.21068700  1
  Tb  Tb25  1  0.61893050  0.75000000  0.12500000  1
  Tb  Tb26  1  0.00000000  0.00000000  0.16633000  1
  Tb  Tb27  1  0.38106950  0.25000000  0.12500000  1
  Tb  Tb28  1  0.74119350  0.36350850  0.21068700  1
  Tb  Tb29  1  0.00000000  0.50000000  0.08367000  1
  Tb  Tb30  1  0.74119350  0.13649150  0.03931300  1
  Tb  Tb31  1  0.25880650  0.86350850  0.03931300  1
  S  S32  1  0.82170000  0.06828800  0.93391950  1
  S  S33  1  0.42877650  0.31698250  0.89482200  1
  S  S34  1  0.17830000  0.93171200  0.93391950  1
  S  S35  1  0.32170000  0.93171200  0.81608050  1
  S  S36  1  0.67830000  0.06828800  0.81608050  1
  S  S37  1  0.07122350  0.31698250  0.85517800  1
  S  S38  1  0.57122350  0.68301750  0.89482200  1
  S  S39  1  0.32710800  0.57925200  0.76698950  1
  S  S40  1  0.92877650  0.68301750  0.85517800  1
  S  S41  1  0.92074800  0.82710800  0.73301050  1
  S  S42  1  0.67289200  0.42074800  0.76698950  1
  S  S43  1  0.81698250  0.42877650  0.64482200  1
  S  S44  1  0.18301750  0.57122350  0.64482200  1
  S  S45  1  0.56828800  0.82170000  0.68391950  1
  S  S46  1  0.07925200  0.17289200  0.73301050  1
  S  S47  1  0.81698250  0.07122350  0.60517800  1
  S  S48  1  0.43171200  0.17830000  0.68391950  1
  S  S49  1  0.43171200  0.32170000  0.56608050  1
  S  S50  1  0.18301750  0.92877650  0.60517800  1
  S  S51  1  0.82710800  0.42074800  0.98301050  1
  S  S52  1  0.17289200  0.57925200  0.98301050  1
  S  S53  1  0.56828800  0.67830000  0.56608050  1
  S  S54  1  0.07925200  0.32710800  0.51698950  1
  S  S55  1  0.92074800  0.67289200  0.51698950  1
  S  S56  1  0.32170000  0.56828800  0.43391950  1
  S  S57  1  0.92877650  0.81698250  0.39482200  1
  S  S58  1  0.67830000  0.43171200  0.43391950  1
  S  S59  1  0.82170000  0.43171200  0.31608050  1
  S  S60  1  0.17830000  0.56828800  0.31608050  1
  S  S61  1  0.57122350  0.81698250  0.35517800  1
  S  S62  1  0.07122350  0.18301750  0.39482200  1
  S  S63  1  0.82710800  0.07925200  0.26698950  1
  S  S64  1  0.42877650  0.18301750  0.35517800  1
  S  S65  1  0.42074800  0.32710800  0.23301050  1
  S  S66  1  0.17289200  0.92074800  0.26698950  1
  S  S67  1  0.31698250  0.92877650  0.14482200  1
  S  S68  1  0.68301750  0.07122350  0.14482200  1
  S  S69  1  0.06828800  0.32170000  0.18391950  1
  S  S70  1  0.57925200  0.67289200  0.23301050  1
  S  S71  1  0.31698250  0.57122350  0.10517800  1
  S  S72  1  0.93171200  0.67830000  0.18391950  1
  S  S73  1  0.93171200  0.82170000  0.06608050  1
  S  S74  1  0.68301750  0.42877650  0.10517800  1
  S  S75  1  0.32710800  0.92074800  0.48301050  1
  S  S76  1  0.67289200  0.07925200  0.48301050  1
  S  S77  1  0.06828800  0.17830000  0.06608050  1
  S  S78  1  0.57925200  0.82710800  0.01698950  1
  S  S79  1  0.42074800  0.17289200  0.01698950  1
