# generated using pymatgen
data_K3CaP2HO8
_symmetry_space_group_name_H-M   'P 1'
_cell_length_a   9.98254600
_cell_length_b   5.81227400
_cell_length_c   7.52155213
_cell_angle_alpha   90.00000000
_cell_angle_beta   94.62919068
_cell_angle_gamma   90.00000000
_symmetry_Int_Tables_number   1
_chemical_formula_structural   K3CaP2HO8
_chemical_formula_sum   'K6 Ca2 P4 H2 O16'
_cell_volume   434.98655874
_cell_formula_units_Z   2
loop_
 _symmetry_equiv_pos_site_id
 _symmetry_equiv_pos_as_xyz
  1  'x, y, z'
loop_
 _atom_site_type_symbol
 _atom_site_label
 _atom_site_symmetry_multiplicity
 _atom_site_fract_x
 _atom_site_fract_y
 _atom_site_fract_z
 _atom_site_occupancy
  K  K0  1  0.00000000  0.00000000  0.50000000  1
  K  K1  1  0.66969300  0.00000000  0.19049300  1
  K  K2  1  0.33030700  0.00000000  0.80950700  1
  K  K3  1  0.50000000  0.50000000  0.50000000  1
  K  K4  1  0.16969300  0.50000000  0.19049300  1
  K  K5  1  0.83030700  0.50000000  0.80950700  1
  Ca  Ca6  1  0.00000000  0.00000000  0.00000000  1
  Ca  Ca7  1  0.50000000  0.50000000  0.00000000  1
  P  P8  1  0.65975100  0.00000000  0.74861400  1
  P  P9  1  0.34024900  0.00000000  0.25138600  1
  P  P10  1  0.15975100  0.50000000  0.74861400  1
  P  P11  1  0.84024900  0.50000000  0.25138600  1
  H  H12  1  0.50000000  0.00000000  0.50000000  1
  H  H13  1  0.00000000  0.50000000  0.50000000  1
  O  O14  1  0.81481900  0.00000000  0.78091100  1
  O  O15  1  0.18518100  0.00000000  0.21908900  1
  O  O16  1  0.62081000  0.00000000  0.54022300  1
  O  O17  1  0.37919000  0.00000000  0.45977700  1
  O  O18  1  0.59866550  0.21910750  0.82827200  1
  O  O19  1  0.59866550  0.78089250  0.82827200  1
  O  O20  1  0.40133450  0.78089250  0.17172800  1
  O  O21  1  0.40133450  0.21910750  0.17172800  1
  O  O22  1  0.31481900  0.50000000  0.78091100  1
  O  O23  1  0.68518100  0.50000000  0.21908900  1
  O  O24  1  0.12081000  0.50000000  0.54022300  1
  O  O25  1  0.87919000  0.50000000  0.45977700  1
  O  O26  1  0.09866550  0.71910750  0.82827200  1
  O  O27  1  0.09866550  0.28089250  0.82827200  1
  O  O28  1  0.90133450  0.28089250  0.17172800  1
  O  O29  1  0.90133450  0.71910750  0.17172800  1
