# generated using pymatgen
data_Lu2TiO5
_symmetry_space_group_name_H-M   'P 1'
_cell_length_a   7.26648500
_cell_length_b   7.30712655
_cell_length_c   17.50859543
_cell_angle_alpha   91.15365932
_cell_angle_beta   89.89614588
_cell_angle_gamma   119.34168787
_symmetry_Int_Tables_number   1
_chemical_formula_structural   Lu2TiO5
_chemical_formula_sum   'Lu16 Ti8 O40'
_cell_volume   810.19440927
_cell_formula_units_Z   8
loop_
 _symmetry_equiv_pos_site_id
 _symmetry_equiv_pos_as_xyz
  1  'x, y, z'
loop_
 _atom_site_type_symbol
 _atom_site_label
 _atom_site_symmetry_multiplicity
 _atom_site_fract_x
 _atom_site_fract_y
 _atom_site_fract_z
 _atom_site_occupancy
  Lu  Lu0  1  0.47757500  0.46158100  0.00711900  1
  Lu  Lu1  1  0.65781800  0.33593200  0.83044100  1
  Lu  Lu2  1  0.81656900  0.14479000  0.67333200  1
  Lu  Lu3  1  0.34304000  0.15223200  0.67156100  1
  Lu  Lu4  1  0.14586400  0.29785500  0.84068300  1
  Lu  Lu5  1  0.97080600  0.95935600  0.50248000  1
  Lu  Lu6  1  0.16704900  0.85375700  0.84193900  1
  Lu  Lu7  1  0.17018000  0.84421400  0.33250300  1
  Lu  Lu8  1  0.52568600  0.01259700  0.48897100  1
  Lu  Lu9  1  0.64039300  0.79181800  0.33025700  1
  Lu  Lu10  1  0.81486200  0.66227900  0.66971000  1
  Lu  Lu11  1  0.32249300  0.63435700  0.17487500  1
  Lu  Lu12  1  0.51398900  0.49811600  0.49191700  1
  Lu  Lu13  1  0.00180900  0.52029700  0.00976700  1
  Lu  Lu14  1  0.80659400  0.63298700  0.17548900  1
  Lu  Lu15  1  0.84392100  0.17285700  0.17587900  1
  Ti  Ti16  1  0.97294700  0.96941500  0.00478500  1
  Ti  Ti17  1  0.32088300  0.65613000  0.67091100  1
  Ti  Ti18  1  0.66020100  0.31835000  0.33042000  1
  Ti  Ti19  1  0.49040900  0.96336700  0.00014400  1
  Ti  Ti20  1  0.67799700  0.81929800  0.83527300  1
  Ti  Ti21  1  0.33378300  0.16586300  0.16333200  1
  Ti  Ti22  1  0.16091700  0.32832600  0.33652000  1
  Ti  Ti23  1  0.97438100  0.46577900  0.50551700  1
  O  O24  1  0.17342500  0.85647800  0.96855100  1
  O  O25  1  0.61511300  0.79407500  0.72598000  1
  O  O26  1  0.15242700  0.35804000  0.95918700  1
  O  O27  1  0.84945200  0.66164000  0.80048000  1
  O  O28  1  0.46218600  0.47703500  0.61161500  1
  O  O29  1  0.50496000  0.55411300  0.87623900  1
  O  O30  1  0.68014300  0.34028300  0.69959000  1
  O  O31  1  0.68645500  0.34053700  0.44784300  1
  O  O32  1  0.69011400  0.34894700  0.95293900  1
  O  O33  1  0.82668700  0.16476500  0.80040900  1
  O  O34  1  0.32458700  0.15800800  0.79881200  1
  O  O35  1  0.48687800  0.97852500  0.61264200  1
  O  O36  1  0.49284200  0.90987300  0.88576900  1
  O  O37  1  0.17370200  0.40692100  0.72200100  1
  O  O38  1  0.17427000  0.42844700  0.44558700  1
  O  O39  1  0.90304700  0.30810100  0.30593400  1
  O  O40  1  0.85442100  0.19408700  0.54143800  1
  O  O41  1  0.01786600  0.04179300  0.36559100  1
  O  O42  1  0.13378600  0.12990600  0.08426400  1
  O  O43  1  0.19688300  0.87481700  0.45936900  1
  O  O44  1  0.01366100  0.00368600  0.62919200  1
  O  O45  1  0.19338100  0.79631700  0.71877400  1
  O  O46  1  0.94784400  0.96951800  0.89086800  1
  O  O47  1  0.64496800  0.80902900  0.45659800  1
  O  O48  1  0.83583200  0.63861000  0.30218400  1
  O  O49  1  0.67529300  0.85032800  0.20769200  1
  O  O50  1  0.83823800  0.64255400  0.54162100  1
  O  O51  1  0.51714800  0.02763100  0.35201400  1
  O  O52  1  0.47922200  0.12788300  0.07908700  1
  O  O53  1  0.19475300  0.89128600  0.20443800  1
  O  O54  1  0.37920700  0.70602200  0.04653300  1
  O  O55  1  0.29894100  0.63744600  0.29964000  1
  O  O56  1  0.48590800  0.47441800  0.13256400  1
  O  O57  1  0.45748600  0.41639300  0.35529500  1
  O  O58  1  0.14301800  0.57720300  0.58761500  1
  O  O59  1  0.99008300  0.48421700  0.13063800  1
  O  O60  1  0.16694900  0.27065000  0.22303100  1
  O  O61  1  0.81912400  0.70200000  0.04534200  1
  O  O62  1  0.60598500  0.27142600  0.21992600  1
  O  O63  1  0.77021600  0.04876900  0.03221700  1
