# generated using pymatgen
data_Cs2NaCo(CN)6
_symmetry_space_group_name_H-M   'P 1'
_cell_length_a   7.58328800
_cell_length_b   7.68256300
_cell_length_c   13.23972853
_cell_angle_alpha   90.00000000
_cell_angle_beta   124.95788271
_cell_angle_gamma   90.00000000
_symmetry_Int_Tables_number   1
_chemical_formula_structural   Cs2NaCo(CN)6
_chemical_formula_sum   'Cs4 Na2 Co2 C12 N12'
_cell_volume   632.16528366
_cell_formula_units_Z   2
loop_
 _symmetry_equiv_pos_site_id
 _symmetry_equiv_pos_as_xyz
  1  'x, y, z'
loop_
 _atom_site_type_symbol
 _atom_site_label
 _atom_site_symmetry_multiplicity
 _atom_site_fract_x
 _atom_site_fract_y
 _atom_site_fract_z
 _atom_site_occupancy
  Cs  Cs0  1  0.75765900  0.53550200  0.75003500  1
  Cs  Cs1  1  0.24234100  0.46449800  0.24996500  1
  Cs  Cs2  1  0.24234100  0.03550200  0.74996500  1
  Cs  Cs3  1  0.75765900  0.96449800  0.25003500  1
  Na  Na4  1  0.50000000  0.50000000  0.00000000  1
  Na  Na5  1  0.50000000  0.00000000  0.50000000  1
  Co  Co6  1  0.00000000  0.50000000  0.50000000  1
  Co  Co7  1  0.00000000  0.00000000  0.00000000  1
  C  C8  1  0.79050100  0.99415500  0.82895700  1
  C  C9  1  0.87910800  0.80116600  0.02066200  1
  C  C10  1  0.79050100  0.50584500  0.32895700  1
  C  C11  1  0.12089200  0.30116600  0.47933800  1
  C  C12  1  0.20949900  0.49415500  0.67104300  1
  C  C13  1  0.81628300  0.14136900  0.01686400  1
  C  C14  1  0.87910800  0.69883400  0.52066200  1
  C  C15  1  0.20949900  0.00584500  0.17104300  1
  C  C16  1  0.18371700  0.85863100  0.98313600  1
  C  C17  1  0.12089200  0.19883400  0.97933800  1
  C  C18  1  0.81628300  0.35863100  0.51686400  1
  C  C19  1  0.18371700  0.64136900  0.48313600  1
  N  N20  1  0.19456200  0.32397300  0.96520500  1
  N  N21  1  0.65799800  0.51196900  0.22208800  1
  N  N22  1  0.29911800  0.72903400  0.47192900  1
  N  N23  1  0.70088200  0.22903400  0.02807100  1
  N  N24  1  0.70088200  0.27096600  0.52807100  1
  N  N25  1  0.80543800  0.82397300  0.53479500  1
  N  N26  1  0.34200200  0.48803100  0.77791200  1
  N  N27  1  0.65799800  0.98803100  0.72208800  1
  N  N28  1  0.80543800  0.67602700  0.03479500  1
  N  N29  1  0.29911800  0.77096600  0.97192900  1
  N  N30  1  0.19456200  0.17602700  0.46520500  1
  N  N31  1  0.34200200  0.01196900  0.27791200  1
